REMARK  Name = ZINC09259729
REMARK  11 active torsions:
REMARK  status: ('A' for Active; 'I' for Inactive)
REMARK    1  A    between atoms: C_1  and  C_2
REMARK    2  A    between atoms: C_2  and  C_3
REMARK    3  A    between atoms: C_2  and  C_4
REMARK    4  A    between atoms: C_4  and  C_5
REMARK    5  A    between atoms: N_7  and  C_8
REMARK    6  A    between atoms: C_11  and  N_14
REMARK    7  A    between atoms: N_14  and  C_15
REMARK    8  A    between atoms: C_15  and  N_17
REMARK    9  A    between atoms: C_18  and  C_20
REMARK   10  A    between atoms: C_20  and  C_21
REMARK   11  A    between atoms: C_20  and  C_27
REMARK                            x       y       z     vdW  Elec       q    Type
REMARK                         _______ _______ _______ _____ _____    ______ ____
ROOT
ATOM      1  C   UNL     1      -4.691   5.652  -1.861  0.00  0.00    +0.141 C 
ATOM      2  S   UNL     1      -3.429   6.792  -2.056  0.00  0.00    -0.018 S 
ENDROOT
BRANCH   1   3
ATOM      3  N   UNL     1      -5.957   6.074  -1.674  0.00  0.00    -0.267 N 
ATOM      4  C   UNL     1      -6.230   7.393  -1.642  0.00  0.00    +0.230 C 
ATOM      5  O   UNL     1      -5.336   8.201  -1.780  0.00  0.00    -0.274 OA
ATOM      6  H   UNL     1      -6.672   5.428  -1.564  0.00  0.00    +0.157 HD
BRANCH   4   7
ATOM      7  C   UNL     1      -7.646   7.865  -1.434  0.00  0.00    +0.135 C 
BRANCH   7   8
ATOM      8  C   UNL     1      -7.679   9.372  -1.438  0.00  0.00    -0.031 A 
ATOM      9  C   UNL     1      -7.187  10.071  -2.525  0.00  0.00    +0.005 A 
ATOM     10  C   UNL     1      -7.222  11.453  -2.531  0.00  0.00    +0.000 A 
ATOM     11  C   UNL     1      -7.740  12.136  -1.447  0.00  0.00    +0.000 A 
ATOM     12  C   UNL     1      -8.227  11.437  -0.358  0.00  0.00    +0.000 A 
ATOM     13  C   UNL     1      -8.197  10.055  -0.354  0.00  0.00    +0.005 A 
ENDBRANCH   7   8
BRANCH   7  14
ATOM     14  C   UNL     1      -8.519   7.340  -2.544  0.00  0.00    -0.031 A 
ATOM     15  C   UNL     1      -8.040   7.301  -3.840  0.00  0.00    +0.005 A 
ATOM     16  C   UNL     1      -8.839   6.815  -4.858  0.00  0.00    +0.000 A 
ATOM     17  C   UNL     1     -10.120   6.377  -4.582  0.00  0.00    +0.000 A 
ATOM     18  C   UNL     1     -10.601   6.421  -3.286  0.00  0.00    +0.000 A 
ATOM     19  C   UNL     1      -9.801   6.902  -2.268  0.00  0.00    +0.005 A 
ENDBRANCH   7  14
ENDBRANCH   4   7
ENDBRANCH   1   3
BRANCH   1  20
ATOM     20  N   UNL     1      -4.418   4.332  -1.893  0.00  0.00    -0.297 N 
ATOM     21  H   UNL     1      -5.122   3.687  -1.721  0.00  0.00    +0.154 HD
BRANCH  20  25
ATOM     22  C   UNL     1      -0.550   3.022  -2.733  0.00  0.00    +0.033 A 
ATOM     23  C   UNL     1      -1.636   2.424  -3.356  0.00  0.00    +0.025 A 
ATOM     24  C   UNL     1      -2.917   2.854  -3.075  0.00  0.00    +0.025 A 
ATOM     25  C   UNL     1      -3.119   3.893  -2.175  0.00  0.00    +0.033 A 
ATOM     26  C   UNL     1      -2.032   4.495  -1.555  0.00  0.00    +0.025 A 
ATOM     27  C   UNL     1      -0.751   4.061  -1.833  0.00  0.00    +0.025 A 
BRANCH  22  30
ATOM     28  C   UNL     1       1.684   2.572  -2.043  0.00  0.00    +0.217 C 
ATOM     29  O   UNL     1       1.423   3.020  -0.947  0.00  0.00    -0.275 OA
ATOM     30  N   UNL     1       0.750   2.583  -3.015  0.00  0.00    -0.285 N 
ATOM     31  H   UNL     1       0.979   2.289  -3.911  0.00  0.00    +0.155 HD
BRANCH  28  32
ATOM     32  C   UNL     1       3.052   2.003  -2.319  0.00  0.00    +0.099 C 
BRANCH  32  34
ATOM     33  C   UNL     1       3.321   1.228   0.041  0.00  0.00    +0.008 C 
ATOM     34  C   UNL     1       3.913   2.111  -1.059  0.00  0.00    -0.008 C 
ATOM     35  C   UNL     1       5.337   1.649  -1.373  0.00  0.00    +0.008 C 
ENDBRANCH  32  34
ENDBRANCH  28  32
ENDBRANCH  22  30
ENDBRANCH  20  25
ENDBRANCH   1  20
TORSDOF 9
