REMARK  Name = ZINC39670204
REMARK  10 active torsions:
REMARK  status: ('A' for Active; 'I' for Inactive)
REMARK    1  A    between atoms: C_1  and  C_2
REMARK    2  A    between atoms: C_2  and  C_3
REMARK    3  A    between atoms: C_3  and  C_4
REMARK    4  A    between atoms: C_4  and  C_5
REMARK    5  A    between atoms: C_5  and  C_7
REMARK    6  A    between atoms: C_5  and  C_8
REMARK    7  A    between atoms: C_12  and  C_21
REMARK    8  A    between atoms: N_23  and  C_24
REMARK    9  A    between atoms: C_24  and  C_25
REMARK   10  A    between atoms: C_30  and  C_34
REMARK                            x       y       z     vdW  Elec       q    Type
REMARK                         _______ _______ _______ _____ _____    ______ ____
ROOT
ATOM      1  C   UNL     1       1.419  -4.211   2.486  0.00  0.00    +0.218 C 
ATOM      2  O   UNL     1       0.786  -4.839   1.665  0.00  0.00    -0.275 OA
ATOM      3  N   UNL     1       1.985  -4.847   3.531  0.00  0.00    -0.300 N 
ATOM      4  C   UNL     1       2.782  -4.255   4.631  0.00  0.00    +0.121 C 
ATOM      5  C   UNL     1       2.333  -5.022   5.896  0.00  0.00    +0.100 C 
ATOM      6  C   UNL     1       1.789  -6.361   5.370  0.00  0.00    -0.004 C 
ATOM      7  C   UNL     1       1.944  -6.295   3.844  0.00  0.00    +0.115 C 
ATOM      8  C   UNL     1       0.317  -6.514   5.739  0.00  0.00    -0.010 C 
ATOM      9  C   UNL     1      -0.186  -7.877   5.255  0.00  0.00    -0.082 C 
ATOM     10  N   UNL     1       0.608  -8.943   5.878  0.00  0.00    +0.379 N 
ATOM     11  C   UNL     1       2.007  -8.843   5.444  0.00  0.00    -0.082 C 
ATOM     12  C   UNL     1       2.603  -7.521   5.935  0.00  0.00    -0.010 C 
ATOM     13  H   UNL     1       0.562  -8.853   6.882  0.00  0.00    -0.086 HD
ATOM     14  H   UNL     1       0.237  -9.841   5.606  0.00  0.00    -0.086 HD
ENDROOT
BRANCH   5  15
ATOM     15  C   UNL     1       3.506  -5.253   6.814  0.00  0.00    +0.219 C 
ATOM     16  O   UNL     1       4.620  -5.383   6.353  0.00  0.00    -0.275 OA
ATOM     17  N   UNL     1       3.316  -5.315   8.146  0.00  0.00    -0.309 N 
ATOM     18  H   UNL     1       2.425  -5.211   8.515  0.00  0.00    +0.149 HD
BRANCH  17  19
ATOM     19  C   UNL     1       4.456  -5.540   9.039  0.00  0.00    +0.159 C 
BRANCH  19  20
ATOM     20  C   UNL     1       3.977  -5.566  10.468  0.00  0.00    +0.051 A 
ATOM     21  C   UNL     1       3.968  -4.514  11.315  0.00  0.00    +0.115 A 
ATOM     22  N   UNL     1       3.460  -4.959  12.505  0.00  0.00    -0.308 N 
ATOM     23  C   UNL     1       3.225  -4.339  13.698  0.00  0.00    +0.093 A 
ATOM     24  C   UNL     1       2.704  -5.024  14.738  0.00  0.00    +0.021 A 
ATOM     25  C   UNL     1       2.398  -6.388  14.606  0.00  0.00    -0.046 A 
ATOM     26  C   UNL     1       2.627  -7.018  13.423  0.00  0.00    +0.048 A 
ATOM     27  C   UNL     1       3.171  -6.289  12.346  0.00  0.00    +0.116 A 
ATOM     28  N   UNL     1       3.487  -6.632  11.105  0.00  0.00    -0.342 N 
ATOM     29  C   UNL     1       1.818  -7.150  15.770  0.00  0.00    +0.044 C 
ATOM     30  H   UNL     1       3.381  -7.517  10.722  0.00  0.00    +0.167 HD
ENDBRANCH  19  20
ENDBRANCH  17  19
ENDBRANCH   5  15
BRANCH   1  31
ATOM     31  C   UNL     1       1.573  -2.719   2.339  0.00  0.00    +0.072 C 
ATOM     32  C   UNL     1       3.058  -2.368   2.226  0.00  0.00    +0.017 C 
BRANCH  31  33
ATOM     33  C   UNL     1       0.841  -2.252   1.079  0.00  0.00    +0.012 C 
BRANCH  33  34
ATOM     34  C   UNL     1       0.892  -0.725   0.997  0.00  0.00    +0.000 C 
BRANCH  34  36
ATOM     35  C   UNL     1       0.210   1.268  -0.346  0.00  0.00    +0.004 C 
ATOM     36  C   UNL     1       0.160  -0.259  -0.263  0.00  0.00    -0.003 C 
ENDBRANCH  34  36
ENDBRANCH  33  34
ENDBRANCH  31  33
ENDBRANCH   1  31
TORSDOF 7
