REMARK  Name = ZINC23982645
REMARK  5 active torsions:
REMARK  status: ('A' for Active; 'I' for Inactive)
REMARK    1  A    between atoms: C_3  and  S_6
REMARK    2  A    between atoms: S_6  and  N_9
REMARK    3  A    between atoms: N_12  and  C_15
REMARK    4  A    between atoms: C_15  and  C_16
REMARK    5  A    between atoms: C_21  and  C_26
REMARK                            x       y       z     vdW  Elec       q    Type
REMARK                         _______ _______ _______ _____ _____    ______ ____
ROOT
ATOM      1  C   UNL     1      -1.220   3.239   0.031  0.00  0.00    +0.095 A 
ATOM      2  N   UNL     1      -1.183   1.882   0.018  0.00  0.00    -0.197 NA
ATOM      3  C   UNL     1      -0.015   1.215   0.009  0.00  0.00    +0.282 A 
ATOM      4  O   UNL     1       0.002  -0.004   0.002  0.00  0.00    -0.265 OA
ATOM      5  C   UNL     1       1.209   1.958   0.001  0.00  0.00    +0.080 A 
ATOM      6  C   UNL     1       2.583   1.473  -0.015  0.00  0.00    +0.004 A 
ATOM      7  C   UNL     1       3.593   2.376  -0.020  0.00  0.00    +0.056 A 
ATOM      8  S   UNL     1       2.745   3.943  -0.004  0.00  0.00    -0.078 S 
ATOM      9  C   UNL     1       1.071   3.356   0.010  0.00  0.00    +0.092 A 
ATOM     10  N   UNL     1      -0.121   3.945   0.025  0.00  0.00    -0.339 N 
ATOM     11  H   UNL     1      -0.173   5.044   0.031  0.00  0.00    +0.167 HD
ENDROOT
BRANCH   6  12
ATOM     12  C   UNL     1       2.871   0.018  -0.026  0.00  0.00    -0.016 A 
ATOM     13  C   UNL     1       2.259  -0.822   0.903  0.00  0.00    +0.011 A 
ATOM     14  C   UNL     1       2.526  -2.176   0.886  0.00  0.00    +0.039 A 
ATOM     15  C   UNL     1       3.408  -2.699  -0.045  0.00  0.00    +0.123 A 
ATOM     16  C   UNL     1       4.022  -1.867  -0.967  0.00  0.00    +0.039 A 
ATOM     17  C   UNL     1       3.758  -0.512  -0.962  0.00  0.00    +0.011 A 
ATOM     18  F   UNL     1       3.670  -4.024  -0.055  0.00  0.00    -0.205 F 
ENDBRANCH   6  12
BRANCH   1  19
ATOM     19  C   UNL     1      -2.553   3.943   0.048  0.00  0.00    -0.003 C 
BRANCH  19  23
ATOM     20  N   UNL     1      -2.529   8.068   0.824  0.00  0.00    -0.180 NA
ATOM     21  C   UNL     1      -3.309   7.611  -0.336  0.00  0.00    +0.091 C 
ATOM     22  C   UNL     1      -3.600   6.116  -0.169  0.00  0.00    -0.061 C 
ATOM     23  N   UNL     1      -2.338   5.397   0.054  0.00  0.00    +0.386 N 
ATOM     24  C   UNL     1      -1.691   5.829   1.300  0.00  0.00    -0.061 C 
ATOM     25  C   UNL     1      -1.322   7.312   1.192  0.00  0.00    +0.091 C 
ATOM     26  H   UNL     1      -1.662   5.644  -0.778  0.00  0.00    -0.081 HD
BRANCH  20  27
ATOM     27  S   UNL     1      -2.997   9.398   1.692  0.00  0.00    +0.067 S 
ATOM     28  O   UNL     1      -1.829   9.899   2.329  0.00  0.00    -0.152 OA
ATOM     29  O   UNL     1      -3.789  10.194   0.821  0.00  0.00    -0.152 OA
BRANCH  27  32
ATOM     30  C   UNL     1      -4.772   8.029   5.075  0.00  0.00    +0.010 A 
ATOM     31  C   UNL     1      -3.756   8.431   4.230  0.00  0.00    +0.036 A 
ATOM     32  C   UNL     1      -4.067   8.834   2.973  0.00  0.00    +0.143 A 
ATOM     33  S   UNL     1      -5.841   8.638   2.951  0.00  0.00    -0.077 S 
ATOM     34  C   UNL     1      -6.049   8.039   4.620  0.00  0.00    +0.047 A 
ENDBRANCH  27  32
ENDBRANCH  20  27
ENDBRANCH  19  23
ENDBRANCH   1  19
TORSDOF 5
