REMARK  Name = ZINC04816189
REMARK  10 active torsions:
REMARK  status: ('A' for Active; 'I' for Inactive)
REMARK    1  A    between atoms: C_1  and  C_2
REMARK    2  A    between atoms: C_6  and  C_26
REMARK    3  A    between atoms: C_10  and  C_12
REMARK    4  A    between atoms: C_12  and  C_24
REMARK    5  A    between atoms: C_13  and  N_23
REMARK    6  A    between atoms: C_14  and  C_21
REMARK    7  A    between atoms: C_16  and  C_17
REMARK    8  A    between atoms: C_16  and  C_19
REMARK    9  A    between atoms: C_26  and  C_27
REMARK   10  A    between atoms: C_26  and  C_28
REMARK                            x       y       z     vdW  Elec       q    Type
REMARK                         _______ _______ _______ _____ _____    ______ ____
ROOT
ATOM      1  C   UNL     1       0.173  -0.138   2.495  0.00  0.00    +0.136 C 
ATOM      2  C   UNL     1       1.003  -0.618   3.664  0.00  0.00    +0.031 C 
ATOM      3  C   UNL     1       0.470  -1.747   4.186  0.00  0.00    +0.012 C 
ATOM      4  C   UNL     1      -0.773  -2.143   3.423  0.00  0.00    +0.078 C 
ATOM      5  C   UNL     1      -1.177  -0.877   2.634  0.00  0.00    +0.171 C 
ENDROOT
BRANCH   1  13
ATOM      6  C   UNL     1      -0.034   1.516   0.005  0.00  0.00    +0.008 C 
ATOM      7  C   UNL     1      -0.003  -0.014   0.002  0.00  0.00    -0.002 C 
ATOM      8  C   UNL     1       0.602  -0.509  -1.313  0.00  0.00    +0.005 C 
ATOM      9  C   UNL     1       0.555  -2.037  -1.362  0.00  0.00    +0.011 C 
ATOM     10  C   UNL     1       1.429  -2.610  -0.241  0.00  0.00    +0.058 C 
ATOM     11  C   UNL     1       0.976  -2.014   1.073  0.00  0.00    +0.142 C 
ATOM     12  O   UNL     1       0.722  -2.721   2.019  0.00  0.00    -0.297 OA
ATOM     13  C   UNL     1       0.849  -0.510   1.174  0.00  0.00    +0.086 C 
BRANCH  10  14
ATOM     14  C   UNL     1       1.279  -4.132  -0.200  0.00  0.00    -0.007 C 
ATOM     15  C   UNL     1       1.718  -4.724  -1.540  0.00  0.00    +0.008 C 
ATOM     16  C   UNL     1       2.153  -4.700   0.921  0.00  0.00    +0.008 C 
ENDBRANCH  10  14
ENDBRANCH   1  13
BRANCH   2  17
ATOM     17  N   UNL     1       2.127  -0.002   4.125  0.00  0.00    -0.360 N 
ATOM     18  H   UNL     1       2.407   0.845   3.744  0.00  0.00    +0.142 HD
ATOM     19  H   UNL     1       2.647  -0.410   4.835  0.00  0.00    +0.142 HD
ENDBRANCH   2  17
BRANCH   5  20
ATOM     20  C   UNL     1      -2.142  -0.069   3.397  0.00  0.00    +0.087 C 
ATOM     21  N   UNL     1      -2.887   0.555   3.985  0.00  0.00    -0.195 NA
ENDBRANCH   5  20
BRANCH   5  22
ATOM     22  C   UNL     1      -1.720  -1.232   1.313  0.00  0.00    +0.087 C 
ATOM     23  N   UNL     1      -2.139  -1.506   0.293  0.00  0.00    -0.195 NA
ENDBRANCH   5  22
BRANCH   3  24
ATOM     24  C   UNL     1       0.996  -2.449   5.279  0.00  0.00    +0.256 C 
ATOM     25  O   UNL     1       0.445  -3.457   5.677  0.00  0.00    -0.296 OA
ENDBRANCH   3  24
BRANCH   1  26
ATOM     26  C   UNL     1      -0.030   1.317   2.573  0.00  0.00    +0.079 C 
ATOM     27  N   UNL     1      -0.187   2.441   2.633  0.00  0.00    -0.195 NA
ENDBRANCH   1  26
TORSDOF 7
