REMARK  Name = ZINC21971113
REMARK  4 active torsions:
REMARK  status: ('A' for Active; 'I' for Inactive)
REMARK    1  A    between atoms: C_6  and  N_7
REMARK    2  A    between atoms: C_8  and  C_14
REMARK    3  A    between atoms: N_16  and  N_17
REMARK    4  A    between atoms: C_18  and  C_20
REMARK                            x       y       z     vdW  Elec       q    Type
REMARK                         _______ _______ _______ _____ _____    ______ ____
ROOT
ATOM      1  C   UNL     1       1.648  -1.764  -0.403  0.00  0.00    +0.278 C 
ATOM      2  O   UNL     1       2.831  -2.038  -0.488  0.00  0.00    -0.267 OA
ATOM      3  N   UNL     1       0.722  -2.736  -0.521  0.00  0.00    -0.229 N 
ATOM      4  H   UNL     1      -0.348  -2.479  -0.530  0.00  0.00    +0.173 HD
ENDROOT
BRANCH   1   6
ATOM      5  N   UNL     1      -0.074   0.067   0.069  0.00  0.00    -0.284 N 
ATOM      6  C   UNL     1       1.230  -0.378  -0.171  0.00  0.00    +0.128 A 
ATOM      7  C   UNL     1       2.034   0.709  -0.149  0.00  0.00    +0.116 A 
ATOM      8  N   UNL     1       1.252   1.805   0.098  0.00  0.00    -0.339 N 
ATOM      9  H   UNL     1       1.709   2.804   0.158  0.00  0.00    +0.167 HD
ATOM     10  C   UNL     1      -0.026   1.404   0.229  0.00  0.00    +0.163 A 
ATOM     11  S   UNL     1      -1.367   2.422   0.538  0.00  0.00    -0.013 S 
BRANCH   5  17
ATOM     12  C   UNL     1      -1.405  -1.606   1.196  0.00  0.00    +0.029 A 
ATOM     13  C   UNL     1      -2.540  -2.391   1.259  0.00  0.00    +0.040 A 
ATOM     14  C   UNL     1      -3.491  -2.314   0.255  0.00  0.00    +0.124 A 
ATOM     15  C   UNL     1      -3.309  -1.449  -0.810  0.00  0.00    +0.040 A 
ATOM     16  C   UNL     1      -2.178  -0.659  -0.874  0.00  0.00    +0.029 A 
ATOM     17  C   UNL     1      -1.223  -0.733   0.132  0.00  0.00    +0.049 A 
ATOM     18  F   UNL     1      -4.598  -3.086   0.316  0.00  0.00    -0.205 F 
ENDBRANCH   5  17
ENDBRANCH   1   6
BRANCH   3  19
ATOM     19  N   UNL     1       1.121  -4.075  -0.633  0.00  0.00    -0.230 N 
ATOM     20  C   UNL     1       0.195  -5.047  -0.751  0.00  0.00    +0.267 C 
ATOM     21  O   UNL     1      -0.989  -4.762  -0.761  0.00  0.00    -0.268 OA
ATOM     22  H   UNL     1       2.190  -4.332  -0.624  0.00  0.00    +0.173 HD
BRANCH  20  23
ATOM     23  C   UNL     1       0.612  -6.447  -0.868  0.00  0.00    +0.076 A 
ATOM     24  C   UNL     1      -0.167  -7.583  -0.997  0.00  0.00    +0.024 A 
ATOM     25  C   UNL     1       0.477  -8.810  -1.098  0.00  0.00    -0.036 A 
ATOM     26  C   UNL     1       1.828  -8.792  -1.032  0.00  0.00    -0.006 A 
ATOM     27  S   UNL     1       2.261  -7.133  -0.889  0.00  0.00    -0.088 S 
ATOM     28  C   UNL     1       2.750  -9.990  -1.065  0.00  0.00    +0.043 C 
ATOM     29  C   UNL     1       2.666 -10.589  -2.479  0.00  0.00    +0.005 C 
ATOM     30  C   UNL     1       1.412 -11.419  -2.623  0.00  0.00    +0.001 C 
ATOM     31  C   UNL     1       0.111 -10.662  -2.689  0.00  0.00    +0.005 C 
ATOM     32  C   UNL     1      -0.303 -10.110  -1.323  0.00  0.00    +0.036 C 
ENDBRANCH  20  23
ENDBRANCH   3  19
TORSDOF 4
