REMARK  Name = ZINC04686388
REMARK  9 active torsions:
REMARK  status: ('A' for Active; 'I' for Inactive)
REMARK    1  A    between atoms: C_1  and  C_2
REMARK    2  A    between atoms: C_2  and  O_3
REMARK    3  A    between atoms: O_3  and  C_4
REMARK    4  A    between atoms: C_4  and  C_6
REMARK    5  A    between atoms: C_7  and  C_21
REMARK    6  A    between atoms: C_12  and  C_14
REMARK    7  A    between atoms: C_21  and  N_56
REMARK    8  A    between atoms: C_23  and  C_30
REMARK    9  A    between atoms: C_26  and  C_29
REMARK                            x       y       z     vdW  Elec       q    Type
REMARK                         _______ _______ _______ _____ _____    ______ ____
ROOT
ATOM      1  C   UNL     1      -3.693  -3.000  -2.339  0.00  0.00    +0.076 C 
ATOM      2  C   UNL     1      -3.536  -2.093  -1.351  0.00  0.00    +0.008 C 
ATOM      3  N   UNL     1      -3.666  -0.756  -1.594  0.00  0.00    -0.274 N 
ATOM      4  C   UNL     1      -3.941  -0.244  -2.800  0.00  0.00    +0.304 C 
ATOM      5  O   UNL     1      -4.032   0.963  -2.920  0.00  0.00    -0.252 OA
ATOM      6  N   UNL     1      -4.126  -1.022  -3.885  0.00  0.00    -0.288 N 
ATOM      7  C   UNL     1      -4.012  -2.482  -3.727  0.00  0.00    +0.143 C 
ATOM      8  H   UNL     1      -3.548  -0.142  -0.852  0.00  0.00    +0.156 HD
ATOM      9  H   UNL     1      -4.328  -0.630  -4.749  0.00  0.00    +0.151 HD
ENDROOT
BRANCH   7  10
ATOM     10  C   UNL     1      -5.316  -3.099  -4.165  0.00  0.00    -0.022 A 
ATOM     11  C   UNL     1      -6.513  -2.582  -3.707  0.00  0.00    +0.007 A 
ATOM     12  C   UNL     1      -7.709  -3.144  -4.113  0.00  0.00    +0.020 A 
ATOM     13  C   UNL     1      -7.707  -4.232  -4.968  0.00  0.00    +0.041 A 
ATOM     14  C   UNL     1      -6.508  -4.752  -5.421  0.00  0.00    +0.020 A 
ATOM     15  C   UNL     1      -5.313  -4.186  -5.019  0.00  0.00    +0.007 A 
ATOM     16 CL   UNL     1      -9.208  -4.943  -5.472  0.00  0.00    -0.084 Cl
ENDBRANCH   7  10
BRANCH   1  17
ATOM     17  C   UNL     1      -3.564  -4.386  -2.088  0.00  0.00    +0.339 C 
ATOM     18  O   UNL     1      -3.202  -4.774  -0.993  0.00  0.00    -0.245 OA
BRANCH  17  19
ATOM     19  O   UNL     1      -3.841  -5.277  -3.062  0.00  0.00    -0.462 OA
BRANCH  19  21
ATOM     20  C   UNL     1      -4.045  -7.512  -3.958  0.00  0.00    +0.048 C 
ATOM     21  C   UNL     1      -3.688  -6.661  -2.738  0.00  0.00    +0.229 C 
ENDBRANCH  19  21
ENDBRANCH  17  19
ENDBRANCH   1  17
BRANCH   2  22
ATOM     22  C   UNL     1      -3.218  -2.565   0.044  0.00  0.00    -0.026 C 
BRANCH  22  30
ATOM     23  C   UNL     1      -1.459  -3.572   1.368  0.00  0.00    -0.075 C 
ATOM     24  C   UNL     1       0.035  -3.902   1.389  0.00  0.00    -0.031 C 
ATOM     25  C   UNL     1       0.840  -2.599   1.391  0.00  0.00    +0.003 C 
ATOM     26  C   UNL     1       0.462  -1.773   0.158  0.00  0.00    -0.031 C 
ATOM     27  C   UNL     1      -1.045  -1.506   0.173  0.00  0.00    -0.075 C 
ATOM     28  C   UNL     1       1.217  -0.443   0.183  0.00  0.00    +0.005 C 
ATOM     29  C   UNL     1       0.395  -4.723   0.149  0.00  0.00    +0.005 C 
ATOM     30  N   UNL     1      -1.762  -2.798   0.146  0.00  0.00    +0.384 N 
ATOM     31  H   UNL     1      -1.453  -3.334  -0.673  0.00  0.00    -0.081 HD
ENDBRANCH  22  30
ENDBRANCH   2  22
TORSDOF 6
