REMARK  Name = ZINC40755911
REMARK  5 active torsions:
REMARK  status: ('A' for Active; 'I' for Inactive)
REMARK    1  A    between atoms: C_1  and  C_2
REMARK    2  A    between atoms: C_4  and  C_25
REMARK    3  A    between atoms: C_8  and  N_24
REMARK    4  A    between atoms: C_9  and  N_13
REMARK    5  A    between atoms: N_13  and  C_14
REMARK                            x       y       z     vdW  Elec       q    Type
REMARK                         _______ _______ _______ _____ _____    ______ ____
ROOT
ATOM      1  C   UNL     1       1.388   1.132  -0.486  0.00  0.00    +0.067 C 
ATOM      2  C   UNL     1       0.681  -0.173  -0.224  0.00  0.00    +0.061 A 
ATOM      3  C   UNL     1      -0.412  -0.671  -0.943  0.00  0.00    +0.048 A 
ATOM      4  C   UNL     1      -0.757  -1.863  -0.405  0.00  0.00    +0.044 A 
ATOM      5  N   UNL     1       0.093  -2.111   0.625  0.00  0.00    -0.217 N 
ATOM      6  N   UNL     1       0.988  -1.036   0.710  0.00  0.00    -0.170 NA
ATOM      7  C   UNL     1       0.082  -3.240   1.449  0.00  0.00    +0.180 A 
ATOM      8  C   UNL     1       0.156  -3.106   2.834  0.00  0.00    +0.110 A 
ATOM      9  C   UNL     1       0.140  -4.268   3.612  0.00  0.00    +0.145 A 
ATOM     10  N   UNL     1       0.057  -5.448   3.004  0.00  0.00    -0.219 NA
ATOM     11  C   UNL     1      -0.011  -5.529   1.690  0.00  0.00    +0.225 A 
ATOM     12  N   UNL     1      -0.005  -4.459   0.923  0.00  0.00    -0.215 NA
ATOM     13  C   UNL     1      -1.883  -2.754  -0.864  0.00  0.00    +0.066 C 
ENDROOT
BRANCH   8  14
ATOM     14  N   UNL     1       0.244  -1.841   3.432  0.00  0.00    -0.352 N 
ATOM     15  H   UNL     1       0.160  -1.041   2.889  0.00  0.00    +0.143 HD
ATOM     16  H   UNL     1       0.388  -1.765   4.388  0.00  0.00    +0.143 HD
ENDBRANCH   8  14
BRANCH   9  17
ATOM     17  N   UNL     1       0.212  -4.192   4.997  0.00  0.00    -0.322 N 
ATOM     18  H   UNL     1       0.273  -3.327   5.433  0.00  0.00    +0.148 HD
BRANCH  17  19
ATOM     19  C   UNL     1       0.195  -5.417   5.800  0.00  0.00    +0.034 C 
ATOM     20  C   UNL     1       1.387  -6.295   5.417  0.00  0.00    +0.029 C 
ATOM     21  C   UNL     1       1.369  -7.574   6.255  0.00  0.00    -0.008 C 
ATOM     22  C   UNL     1       1.459  -7.213   7.739  0.00  0.00    +0.007 C 
ATOM     23  C   UNL     1       0.266  -6.335   8.123  0.00  0.00    -0.008 C 
ATOM     24  C   UNL     1       0.284  -5.055   7.284  0.00  0.00    +0.029 C 
ATOM     25  C   UNL     1      -1.034  -7.098   7.862  0.00  0.00    +0.007 C 
ATOM     26  C   UNL     1      -1.123  -7.459   6.378  0.00  0.00    -0.008 C 
ATOM     27  C   UNL     1       0.069  -8.338   5.994  0.00  0.00    +0.007 C 
ATOM     28  C   UNL     1      -1.105  -6.180   5.539  0.00  0.00    +0.029 C 
ENDBRANCH  17  19
ENDBRANCH   9  17
TORSDOF 3
