REMARK  Name = ZINC39678313
REMARK  6 active torsions:
REMARK  status: ('A' for Active; 'I' for Inactive)
REMARK    1  A    between atoms: C_1  and  N_2
REMARK    2  A    between atoms: C_6  and  C_7
REMARK    3  A    between atoms: C_11  and  C_20
REMARK    4  A    between atoms: N_22  and  C_23
REMARK    5  A    between atoms: C_23  and  C_24
REMARK    6  A    between atoms: C_29  and  N_30
REMARK                            x       y       z     vdW  Elec       q    Type
REMARK                         _______ _______ _______ _____ _____    ______ ____
ROOT
ATOM      1  C   UNL     1      -0.247  -0.404   2.188  0.00  0.00    +0.263 C 
ATOM      2  O   UNL     1      -0.540  -0.816   1.081  0.00  0.00    -0.268 OA
ATOM      3  N   UNL     1      -0.160   0.923   2.411  0.00  0.00    -0.295 N 
ATOM      4  C   UNL     1      -0.485   2.025   1.476  0.00  0.00    +0.121 C 
ATOM      5  C   UNL     1      -1.171   3.094   2.356  0.00  0.00    +0.100 C 
ATOM      6  C   UNL     1      -0.661   2.816   3.780  0.00  0.00    -0.004 C 
ATOM      7  C   UNL     1       0.278   1.608   3.651  0.00  0.00    +0.115 C 
ATOM      8  C   UNL     1      -1.827   2.474   4.702  0.00  0.00    -0.010 C 
ATOM      9  C   UNL     1      -1.302   2.258   6.124  0.00  0.00    -0.082 C 
ATOM     10  N   UNL     1      -0.626   3.476   6.588  0.00  0.00    +0.379 N 
ATOM     11  C   UNL     1       0.549   3.747   5.751  0.00  0.00    -0.082 C 
ATOM     12  C   UNL     1       0.102   4.025   4.313  0.00  0.00    -0.010 C 
ATOM     13  H   UNL     1      -1.264   4.256   6.531  0.00  0.00    -0.086 HD
ATOM     14  H   UNL     1      -0.334   3.353   7.545  0.00  0.00    -0.086 HD
ENDROOT
BRANCH   1  20
ATOM     15  C   UNL     1       2.166  -0.339   4.128  0.00  0.00    +0.149 C 
ATOM     16  N   UNL     1       1.082  -1.323   4.142  0.00  0.00    -0.346 N 
ATOM     17  C   UNL     1       0.964  -2.357   5.011  0.00  0.00    +0.086 A 
ATOM     18  C   UNL     1      -0.163  -3.050   4.717  0.00  0.00    +0.020 A 
ATOM     19  C   UNL     1      -0.775  -2.429   3.623  0.00  0.00    +0.032 A 
ATOM     20  C   UNL     1       0.010  -1.350   3.278  0.00  0.00    +0.104 A 
ENDBRANCH   1  20
BRANCH   5  21
ATOM     21  C   UNL     1      -2.669   2.942   2.294  0.00  0.00    +0.218 C 
ATOM     22  O   UNL     1      -3.160   1.862   2.039  0.00  0.00    -0.275 OA
ATOM     23  N   UNL     1      -3.465   4.006   2.521  0.00  0.00    -0.311 N 
ATOM     24  H   UNL     1      -3.074   4.885   2.653  0.00  0.00    +0.149 HD
BRANCH  23  25
ATOM     25  C   UNL     1      -4.919   3.837   2.570  0.00  0.00    +0.141 C 
BRANCH  25  26
ATOM     26  C   UNL     1      -5.577   5.185   2.715  0.00  0.00    -0.009 A 
ATOM     27  C   UNL     1      -6.043   5.598   3.948  0.00  0.00    +0.007 A 
ATOM     28  C   UNL     1      -6.648   6.834   4.082  0.00  0.00    +0.000 A 
ATOM     29  C   UNL     1      -6.787   7.662   2.983  0.00  0.00    +0.002 A 
ATOM     30  C   UNL     1      -6.322   7.256   1.747  0.00  0.00    +0.023 A 
ATOM     31  C   UNL     1      -5.710   6.016   1.610  0.00  0.00    +0.034 A 
BRANCH  31  32
ATOM     32  N   UNL     1      -5.234   5.605   0.363  0.00  0.00    -0.330 N 
ATOM     33  C   UNL     1      -6.129   4.949  -0.600  0.00  0.00    +0.105 C 
ATOM     34  C   UNL     1      -6.057   5.703  -1.932  0.00  0.00    +0.019 C 
ATOM     35  C   UNL     1      -4.598   5.788  -2.387  0.00  0.00    +0.003 C 
ATOM     36  C   UNL     1      -3.783   6.563  -1.349  0.00  0.00    +0.019 C 
ATOM     37  C   UNL     1      -3.831   5.825  -0.012  0.00  0.00    +0.105 C 
ENDBRANCH  31  32
ENDBRANCH  25  26
ENDBRANCH  23  25
ENDBRANCH   5  21
TORSDOF 5
