REMARK  Name = ZINC21229497
REMARK  6 active torsions:
REMARK  status: ('A' for Active; 'I' for Inactive)
REMARK    1  A    between atoms: C_1  and  C_2
REMARK    2  A    between atoms: C_2  and  C_3
REMARK    3  A    between atoms: C_2  and  O_4
REMARK    4  A    between atoms: O_4  and  C_5
REMARK    5  A    between atoms: C_8  and  C_11
REMARK    6  A    between atoms: C_16  and  C_26
REMARK                            x       y       z     vdW  Elec       q    Type
REMARK                         _______ _______ _______ _____ _____    ______ ____
ROOT
ATOM      1  C   UNL     1      -1.024  -5.577  -2.987  0.00  0.00    +0.032 C 
ATOM      2  C   UNL     1      -0.321  -5.784  -1.647  0.00  0.00    +0.059 C 
ATOM      3  C   UNL     1       0.091  -4.442  -1.063  0.00  0.00    +0.017 C 
ATOM      4  C   UNL     1      -0.643  -3.341  -1.300  0.00  0.00    +0.037 C 
ATOM      5  C   UNL     1      -0.351  -1.954  -0.780  0.00  0.00    +0.139 C 
ATOM      6  N   UNL     1       0.671  -1.899   0.243  0.00  0.00    -0.331 N 
ATOM      7  C   UNL     1       1.989  -2.252  -0.039  0.00  0.00    +0.049 A 
ATOM      8  C   UNL     1       3.007  -1.313  -0.026  0.00  0.00    +0.025 A 
ATOM      9  C   UNL     1       4.291  -1.696  -0.376  0.00  0.00    +0.002 A 
ATOM     10  C   UNL     1       4.554  -3.000  -0.752  0.00  0.00    +0.002 A 
ATOM     11  C   UNL     1       3.539  -3.942  -0.763  0.00  0.00    +0.025 A 
ATOM     12  C   UNL     1       2.262  -3.567  -0.387  0.00  0.00    +0.052 A 
ATOM     13  N   UNL     1       1.214  -4.476  -0.301  0.00  0.00    -0.316 N 
ATOM     14  C   UNL     1      -1.806  -3.418  -2.102  0.00  0.00    +0.163 C 
ATOM     15  O   UNL     1      -2.462  -2.411  -2.283  0.00  0.00    -0.292 OA
ATOM     16  C   UNL     1      -2.256  -4.700  -2.738  0.00  0.00    +0.088 C 
ATOM     17  H   UNL     1       0.412  -1.574   1.262  0.00  0.00    +0.147 HD
ATOM     18  H   UNL     1       1.343  -5.267   0.453  0.00  0.00    +0.152 HD
ENDROOT
BRANCH   5  19
ATOM     19  C   UNL     1       0.086  -1.093  -1.938  0.00  0.00    +0.014 A 
ATOM     20  C   UNL     1      -0.343   0.220  -2.024  0.00  0.00    +0.048 A 
ATOM     21  C   UNL     1       0.062   1.011  -3.083  0.00  0.00    +0.020 A 
ATOM     22  C   UNL     1       0.886   0.488  -4.062  0.00  0.00    +0.003 A 
ATOM     23  C   UNL     1       1.311  -0.825  -3.979  0.00  0.00    +0.020 A 
ATOM     24  C   UNL     1       0.910  -1.616  -2.917  0.00  0.00    +0.048 A 
ATOM     25 CL   UNL     1       1.444  -3.265  -2.813  0.00  0.00    -0.083 Cl
ATOM     26 CL   UNL     1      -1.384   0.875  -0.799  0.00  0.00    -0.083 Cl
ENDBRANCH   5  19
BRANCH   1  30
ATOM     27  C   UNL     1      -2.234  -9.352  -4.584  0.00  0.00    +0.121 A 
ATOM     28  C   UNL     1      -1.386  -8.530  -5.311  0.00  0.00    +0.046 A 
ATOM     29  C   UNL     1      -0.996  -7.310  -4.793  0.00  0.00    +0.007 A 
ATOM     30  C   UNL     1      -1.450  -6.909  -3.550  0.00  0.00    -0.043 A 
ATOM     31  C   UNL     1      -2.292  -7.729  -2.821  0.00  0.00    +0.007 A 
ATOM     32  C   UNL     1      -2.689  -8.947  -3.337  0.00  0.00    +0.046 A 
BRANCH  27  33
ATOM     33  O   UNL     1      -2.619 -10.553  -5.092  0.00  0.00    -0.489 OA
BRANCH  33  35
ATOM     34  C   UNL     1      -0.802 -11.452  -6.407  0.00  0.00    +0.051 C 
ATOM     35  C   UNL     1      -2.210 -10.853  -6.427  0.00  0.00    +0.167 C 
ATOM     36  C   UNL     1      -3.183 -11.860  -7.045  0.00  0.00    +0.051 C 
ENDBRANCH  33  35
ENDBRANCH  27  33
ENDBRANCH   1  30
TORSDOF 4
