REMARK  Name = ZINC36413002
REMARK  6 active torsions:
REMARK  status: ('A' for Active; 'I' for Inactive)
REMARK    1  A    between atoms: C_1  and  C_2
REMARK    2  A    between atoms: C_2  and  C_3
REMARK    3  A    between atoms: C_2  and  N_10
REMARK    4  A    between atoms: N_13  and  C_14
REMARK    5  A    between atoms: C_14  and  C_15
REMARK    6  A    between atoms: C_17  and  C_20
REMARK                            x       y       z     vdW  Elec       q    Type
REMARK                         _______ _______ _______ _____ _____    ______ ____
ROOT
ATOM      1  N   UNL     1       0.608  -0.262  -1.307  0.00  0.00    -0.297 N 
ATOM      2  C   UNL     1       1.947  -0.363  -1.422  0.00  0.00    +0.300 C 
ATOM      3  O   UNL     1       2.652  -0.241  -0.439  0.00  0.00    -0.253 OA
ATOM      4  N   UNL     1       2.504  -0.600  -2.626  0.00  0.00    -0.291 N 
ATOM      5  H   UNL     1       0.045  -0.359  -2.091  0.00  0.00    +0.151 HD
ATOM      6  H   UNL     1       1.941  -0.698  -3.410  0.00  0.00    +0.151 HD
ENDROOT
BRANCH   1   8
ATOM      7  C   UNL     1      -0.008   1.502   0.272  0.00  0.00    +0.028 C 
ATOM      8  C   UNL     1       0.002  -0.004   0.002  0.00  0.00    +0.075 C 
BRANCH   8   9
ATOM      9  C   UNL     1      -1.433  -0.534   0.013  0.00  0.00    +0.012 C 
ATOM     10  C   UNL     1      -1.438  -2.079  -0.001  0.00  0.00    +0.009 C 
ATOM     11  C   UNL     1      -2.151  -2.484   1.325  0.00  0.00    -0.010 C 
ATOM     12  C   UNL     1      -1.136  -2.102   2.446  0.00  0.00    +0.004 C 
ATOM     13  C   UNL     1      -1.132  -0.556   2.460  0.00  0.00    +0.004 C 
ATOM     14  C   UNL     1      -2.144  -0.149   1.346  0.00  0.00    -0.006 C 
ATOM     15  C   UNL     1      -3.189  -1.315   1.464  0.00  0.00    +0.007 C 
ENDBRANCH   8   9
ENDBRANCH   1   8
BRANCH   4  16
ATOM     16  C   UNL     1       3.959  -0.710  -2.750  0.00  0.00    +0.204 C 
BRANCH  16  17
ATOM     17  C   UNL     1       4.322  -0.975  -4.189  0.00  0.00    +0.245 A 
ATOM     18  N   UNL     1       4.574  -0.068  -5.090  0.00  0.00    -0.190 NA
ATOM     19  C   UNL     1       4.862  -0.654  -6.265  0.00  0.00    +0.204 A 
ATOM     20  N   UNL     1       4.793  -1.954  -6.113  0.00  0.00    -0.056 NA
ATOM     21  O   UNL     1       4.445  -2.182  -4.756  0.00  0.00    -0.336 OA
BRANCH  19  22
ATOM     22  C   UNL     1       5.201   0.053  -7.525  0.00  0.00    +0.041 A 
ATOM     23  C   UNL     1       5.246   1.446  -7.555  0.00  0.00    +0.013 A 
ATOM     24  C   UNL     1       5.562   2.098  -8.729  0.00  0.00    +0.001 A 
ATOM     25  C   UNL     1       5.834   1.373  -9.876  0.00  0.00    +0.001 A 
ATOM     26  C   UNL     1       5.791  -0.008  -9.853  0.00  0.00    +0.021 A 
ATOM     27  C   UNL     1       5.481  -0.673  -8.682  0.00  0.00    +0.052 A 
ATOM     28 CL   UNL     1       5.434  -2.408  -8.652  0.00  0.00    -0.083 Cl
ENDBRANCH  19  22
ENDBRANCH  16  17
ENDBRANCH   4  16
TORSDOF 5
