REMARK  Name = ZINC02749186
REMARK  4 active torsions:
REMARK  status: ('A' for Active; 'I' for Inactive)
REMARK    1  A    between atoms: C_8  and  C_23
REMARK    2  A    between atoms: C_13  and  S_18
REMARK    3  A    between atoms: S_18  and  C_19
REMARK    4  A    between atoms: C_19  and  C_20
REMARK                            x       y       z     vdW  Elec       q    Type
REMARK                         _______ _______ _______ _____ _____    ______ ____
ROOT
ATOM      1  C   UNL     1      -1.250   3.210   0.140  0.00  0.00    +0.000 A 
ATOM      2  C   UNL     1      -1.246   1.828   0.063  0.00  0.00    +0.001 A 
ATOM      3  C   UNL     1      -0.050   1.143  -0.007  0.00  0.00    +0.010 A 
ATOM      4  C   UNL     1       1.151   1.846  -0.010  0.00  0.00    +0.004 A 
ATOM      5  C   UNL     1       1.143   3.241   0.045  0.00  0.00    -0.038 A 
ATOM      6  C   UNL     1      -0.059   3.914   0.129  0.00  0.00    +0.004 A 
ATOM      7  C   UNL     1       2.439   4.004   0.000  0.00  0.00    +0.044 C 
ATOM      8  C   UNL     1       3.541   3.243   0.732  0.00  0.00    +0.034 C 
ATOM      9  C   UNL     1       3.608   1.819   0.257  0.00  0.00    +0.047 A 
ATOM     10  C   UNL     1       2.449   1.139  -0.083  0.00  0.00    +0.083 A 
ATOM     11  N   UNL     1       2.516  -0.138  -0.476  0.00  0.00    -0.223 NA
ATOM     12  C   UNL     1       3.675  -0.758  -0.568  0.00  0.00    +0.170 A 
ATOM     13  N   UNL     1       4.845  -0.128  -0.268  0.00  0.00    -0.302 N 
ATOM     14  H   UNL     1       5.712  -0.617  -0.360  0.00  0.00    +0.171 HD
ATOM     15  C   UNL     1       4.837   1.155   0.152  0.00  0.00    +0.256 A 
ATOM     16  O   UNL     1       5.879   1.725   0.434  0.00  0.00    -0.267 OA
ENDROOT
BRANCH   8  17
ATOM     17  C   UNL     1       4.885   3.925   0.469  0.00  0.00    -0.003 C 
ATOM     18  C   UNL     1       4.809   5.389   0.908  0.00  0.00    +0.004 C 
ATOM     19  C   UNL     1       6.153   6.071   0.645  0.00  0.00    +0.000 C 
ATOM     20  C   UNL     1       6.476   6.002  -0.849  0.00  0.00    +0.000 C 
ATOM     21  C   UNL     1       6.552   4.538  -1.288  0.00  0.00    +0.000 C 
ATOM     22  C   UNL     1       5.208   3.857  -1.025  0.00  0.00    +0.004 C 
ENDBRANCH   8  17
BRANCH  12  23
ATOM     23  S   UNL     1       3.713  -2.440  -1.092  0.00  0.00    -0.078 S 
BRANCH  23  24
ATOM     24  C   UNL     1       1.944  -2.732  -1.339  0.00  0.00    +0.172 C 
BRANCH  24  25
ATOM     25  C   UNL     1       1.728  -4.150  -1.802  0.00  0.00    +0.221 C 
ATOM     26  O   UNL     1       2.678  -4.890  -1.951  0.00  0.00    -0.275 OA
ATOM     27  N   UNL     1       0.481  -4.595  -2.051  0.00  0.00    -0.329 N 
ATOM     28  H   UNL     1      -0.278  -4.003  -1.932  0.00  0.00    +0.145 HD
ATOM     29  H   UNL     1       0.342  -5.508  -2.350  0.00  0.00    +0.145 HD
ENDBRANCH  24  25
ENDBRANCH  23  24
ENDBRANCH  12  23
TORSDOF 4
