REMARK  Name = ZINC39710929
REMARK  12 active torsions:
REMARK  status: ('A' for Active; 'I' for Inactive)
REMARK    1  A    between atoms: C_1  and  C_2
REMARK    2  A    between atoms: C_8  and  C_14
REMARK    3  A    between atoms: C_14  and  C_16
REMARK    4  A    between atoms: C_14  and  N_26
REMARK    5  A    between atoms: N_21  and  C_22
REMARK    6  A    between atoms: C_22  and  C_23
REMARK    7  A    between atoms: C_22  and  C_24
REMARK    8  A    between atoms: C_22  and  C_25
REMARK    9  A    between atoms: N_26  and  C_27
REMARK   10  A    between atoms: N_26  and  C_33
REMARK   11  A    between atoms: C_27  and  C_28
REMARK   12  A    between atoms: C_33  and  C_34
REMARK                            x       y       z     vdW  Elec       q    Type
REMARK                         _______ _______ _______ _____ _____    ______ ____
ROOT
ATOM      1  C   UNL     1       0.652  -2.256   4.394  0.00  0.00    -0.009 C 
ENDROOT
BRANCH   1   9
ATOM      2  C   UNL     1      -1.588   1.360  -0.031  0.00  0.00    +0.045 C 
ATOM      3  C   UNL     1      -1.807  -0.100   0.271  0.00  0.00    -0.029 A 
ATOM      4  C   UNL     1      -2.359  -0.907  -0.673  0.00  0.00    +0.005 A 
ATOM      5  C   UNL     1      -2.589  -2.266  -0.459  0.00  0.00    +0.001 A 
ATOM      6  C   UNL     1      -2.269  -2.861   0.719  0.00  0.00    +0.009 A 
ATOM      7  C   UNL     1      -1.670  -2.049   1.780  0.00  0.00    -0.007 A 
ATOM      8  C   UNL     1      -1.333  -2.603   2.979  0.00  0.00    -0.006 C 
ATOM      9  C   UNL     1      -0.718  -1.688   4.019  0.00  0.00    +0.088 C 
ATOM     10  C   UNL     1      -0.530  -0.235   3.643  0.00  0.00    +0.223 C 
ATOM     11  O   UNL     1      -0.041   0.543   4.439  0.00  0.00    -0.275 OA
ATOM     12  N   UNL     1      -0.898   0.185   2.444  0.00  0.00    -0.284 N 
ATOM     13  C   UNL     1      -1.434  -0.618   1.524  0.00  0.00    +0.043 A 
ATOM     14  H   UNL     1      -0.769   1.120   2.222  0.00  0.00    +0.155 HD
ENDBRANCH   1   9
BRANCH   1  15
ATOM     15  C   UNL     1       1.582  -2.187   3.181  0.00  0.00    +0.205 C 
ATOM     16  N   UNL     1       1.712  -0.800   2.713  0.00  0.00    -0.152 NA
ATOM     17  N   UNL     1       1.292  -0.729   1.556  0.00  0.00    -0.070 NA
ATOM     18  N   UNL     1       0.838  -1.953   1.067  0.00  0.00    -0.179 N 
ATOM     19  N   UNL     1       0.992  -2.913   2.037  0.00  0.00    -0.183 NA
ATOM     20  H   UNL     1       0.470  -2.103   0.182  0.00  0.00    +0.191 HD
BRANCH  19  21
ATOM     21  C   UNL     1       1.883  -3.987   1.579  0.00  0.00    +0.035 C 
ATOM     22  C   UNL     1       2.192  -4.926   2.747  0.00  0.00    +0.029 C 
ATOM     23  C   UNL     1       1.199  -4.775   0.460  0.00  0.00    +0.029 C 
ATOM     24  C   UNL     1       3.186  -3.381   1.053  0.00  0.00    +0.029 C 
ENDBRANCH  19  21
ENDBRANCH   1  15
BRANCH   1  25
ATOM     25  N   UNL     1       1.224  -1.469   5.495  0.00  0.00    +0.391 N 
ATOM     26  H   UNL     1       1.431  -0.536   5.170  0.00  0.00    -0.080 HD
BRANCH  25  27
ATOM     27  C   UNL     1       2.460  -2.109   5.963  0.00  0.00    -0.002 C 
BRANCH  27  28
ATOM     28  C   UNL     1       3.630  -1.579   5.175  0.00  0.00    +0.089 A 
ATOM     29  C   UNL     1       4.286  -0.430   5.417  0.00  0.00    +0.042 A 
ATOM     30  C   UNL     1       5.305  -0.327   4.442  0.00  0.00    +0.041 A 
ATOM     31  C   UNL     1       5.212  -1.420   3.663  0.00  0.00    +0.195 A 
ATOM     32  O   UNL     1       4.199  -2.178   4.116  0.00  0.00    -0.470 OA
ENDBRANCH  27  28
ENDBRANCH  25  27
BRANCH  25  33
ATOM     33  C   UNL     1       0.259  -1.400   6.600  0.00  0.00    -0.046 C 
BRANCH  33  34
ATOM     34  C   UNL     1       0.802  -0.479   7.694  0.00  0.00    +0.102 C 
ATOM     35  C   UNL     1      -0.148  -0.495   8.911  0.00  0.00    +0.032 C 
ATOM     36  C   UNL     1      -0.136   0.993   9.358  0.00  0.00    +0.030 C 
ATOM     37  C   UNL     1      -0.001   1.709   7.991  0.00  0.00    +0.160 C 
ATOM     38  O   UNL     1       0.865   0.868   7.209  0.00  0.00    -0.378 OA
ENDBRANCH  33  34
ENDBRANCH  25  33
ENDBRANCH   1  25
TORSDOF 8
