REMARK  Name = ZINC15103799
REMARK  14 active torsions:
REMARK  status: ('A' for Active; 'I' for Inactive)
REMARK    1  A    between atoms: C_1  and  C_2
REMARK    2  A    between atoms: C_2  and  O_3
REMARK    3  A    between atoms: O_3  and  C_4
REMARK    4  A    between atoms: C_4  and  C_6
REMARK    5  A    between atoms: C_7  and  C_33
REMARK    6  A    between atoms: C_8  and  C_29
REMARK    7  A    between atoms: C_10  and  N_11
REMARK    8  A    between atoms: C_12  and  C_14
REMARK    9  A    between atoms: C_14  and  N_68
REMARK   10  A    between atoms: C_15  and  N_68
REMARK   11  A    between atoms: C_16  and  C_17
REMARK   12  A    between atoms: C_16  and  N_68
REMARK   13  A    between atoms: C_22  and  N_23
REMARK   14  A    between atoms: N_31  and  C_32
REMARK                            x       y       z     vdW  Elec       q    Type
REMARK                         _______ _______ _______ _____ _____    ______ ____
ROOT
ATOM      1  N   UNL     1       1.036   1.948  -0.065  0.00  0.00    -0.281 N 
ATOM      2  C   UNL     1      -0.130   1.294   0.107  0.00  0.00    +0.201 C 
ATOM      3  O   UNL     1      -0.128   0.126   0.431  0.00  0.00    -0.278 OA
ATOM      4  H   UNL     1       1.034   2.883  -0.325  0.00  0.00    +0.155 HD
ENDROOT
BRANCH   1   9
ATOM      5  C   UNL     1       3.534   1.785   0.001  0.00  0.00    +0.091 A 
ATOM      6  C   UNL     1       4.585   0.916   0.251  0.00  0.00    -0.015 A 
ATOM      7  C   UNL     1       4.276  -0.369   0.606  0.00  0.00    +0.079 A 
ATOM      8  S   UNL     1       2.494  -0.361   0.596  0.00  0.00    -0.068 S 
ATOM      9  C   UNL     1       2.233   1.287   0.128  0.00  0.00    +0.087 A 
ATOM     10  C   UNL     1       6.017   1.371   0.137  0.00  0.00    +0.046 C 
BRANCH   7  11
ATOM     11  C   UNL     1       5.184  -1.474   0.921  0.00  0.00    +0.251 C 
ATOM     12  O   UNL     1       6.389  -1.302   0.883  0.00  0.00    -0.270 OA
ATOM     13  N   UNL     1       4.686  -2.682   1.252  0.00  0.00    -0.314 N 
ATOM     14  C   UNL     1       5.595  -3.787   1.568  0.00  0.00    +0.128 C 
ATOM     15  H   UNL     1       3.727  -2.819   1.283  0.00  0.00    +0.149 HD
ENDBRANCH   7  11
BRANCH   5  16
ATOM     16  C   UNL     1       3.778   3.180  -0.385  0.00  0.00    +0.342 C 
ATOM     17  O   UNL     1       3.871   4.040   0.469  0.00  0.00    -0.245 OA
BRANCH  16  18
ATOM     18  O   UNL     1       3.900   3.507  -1.688  0.00  0.00    -0.461 OA
BRANCH  18  20
ATOM     19  C   UNL     1       4.249   5.082  -3.512  0.00  0.00    +0.048 C 
ATOM     20  C   UNL     1       4.140   4.906  -1.996  0.00  0.00    +0.229 C 
ENDBRANCH  18  20
ENDBRANCH  16  18
ENDBRANCH   5  16
ENDBRANCH   1   9
BRANCH   2  21
ATOM     21  C   UNL     1      -1.437   2.013  -0.110  0.00  0.00    +0.019 C 
BRANCH  21  23
ATOM     22  C   UNL     1      -2.604   0.685   1.544  0.00  0.00    -0.095 C 
ATOM     23  N   UNL     1      -2.547   1.064   0.116  0.00  0.00    +0.386 N 
ATOM     24  H   UNL     1      -2.385   0.221  -0.447  0.00  0.00    -0.081 HD
BRANCH  23  25
ATOM     25  C   UNL     1      -3.827   1.677  -0.296  0.00  0.00    -0.041 C 
BRANCH  25  26
ATOM     26  C   UNL     1      -4.870   0.594  -0.402  0.00  0.00    -0.043 A 
ATOM     27  C   UNL     1      -5.833   0.463   0.579  0.00  0.00    +0.003 A 
ATOM     28  C   UNL     1      -6.793  -0.528   0.480  0.00  0.00    +0.000 A 
ATOM     29  C   UNL     1      -6.786  -1.397  -0.596  0.00  0.00    +0.002 A 
ATOM     30  C   UNL     1      -5.823  -1.274  -1.578  0.00  0.00    +0.023 A 
ATOM     31  C   UNL     1      -4.860  -0.277  -1.484  0.00  0.00    +0.031 A 
BRANCH  31  32
ATOM     32  N   UNL     1      -3.884  -0.151  -2.475  0.00  0.00    -0.330 N 
ATOM     33  C   UNL     1      -4.493   0.142  -3.779  0.00  0.00    +0.105 C 
ATOM     34  C   UNL     1      -3.393   0.417  -4.807  0.00  0.00    +0.019 C 
ATOM     35  C   UNL     1      -2.482  -0.809  -4.912  0.00  0.00    +0.003 C 
ATOM     36  C   UNL     1      -1.898  -1.121  -3.531  0.00  0.00    +0.019 C 
ATOM     37  C   UNL     1      -3.042  -1.352  -2.540  0.00  0.00    +0.105 C 
ENDBRANCH  31  32
ENDBRANCH  25  26
ENDBRANCH  23  25
ENDBRANCH  21  23
ENDBRANCH   2  21
TORSDOF 10
