REMARK  Name = ZINC40216122
REMARK  3 active torsions:
REMARK  status: ('A' for Active; 'I' for Inactive)
REMARK    1  A    between atoms: C_6  and  S_7
REMARK    2  A    between atoms: S_7  and  N_10
REMARK    3  A    between atoms: C_14  and  C_16
REMARK                            x       y       z     vdW  Elec       q    Type
REMARK                         _______ _______ _______ _____ _____    ______ ____
ROOT
ATOM      1  C   UNL     1      -0.017   1.378   0.010  0.00  0.00    +0.030 A 
ATOM      2  C   UNL     1       1.165   2.089   0.002  0.00  0.00    +0.026 A 
ATOM      3  C   UNL     1       2.389   1.418  -0.014  0.00  0.00    +0.040 A 
ATOM      4  C   UNL     1       2.397   0.032  -0.021  0.00  0.00    -0.023 A 
ATOM      5  C   UNL     1       1.211  -0.675  -0.014  0.00  0.00    +0.034 A 
ATOM      6  C   UNL     1       0.002  -0.004   0.002  0.00  0.00    +0.105 A 
ATOM      7  C   UNL     1       3.833  -0.441  -0.037  0.00  0.00    +0.056 C 
ATOM      8  C   UNL     1       4.666   0.852  -0.038  0.00  0.00    +0.119 C 
ATOM      9  N   UNL     1       3.686   1.940  -0.023  0.00  0.00    -0.266 N 
ATOM     10  C   UNL     1       3.989   3.253  -0.019  0.00  0.00    +0.267 C 
ATOM     11  O   UNL     1       3.099   4.084  -0.006  0.00  0.00    -0.268 OA
ENDROOT
BRANCH  10  12
ATOM     12  C   UNL     1       5.392   3.682  -0.029  0.00  0.00    +0.103 A 
ATOM     13  C   UNL     1       5.846   4.984  -0.021  0.00  0.00    +0.047 A 
ATOM     14  C   UNL     1       7.244   4.931  -0.036  0.00  0.00    +0.036 A 
ATOM     15  C   UNL     1       7.611   3.627  -0.053  0.00  0.00    +0.098 A 
ATOM     16  N   UNL     1       6.494   2.857  -0.044  0.00  0.00    -0.356 N 
ATOM     17  H   UNL     1       6.475   1.887  -0.049  0.00  0.00    +0.165 HD
ATOM     18 BR   UNL     1       8.414   6.416  -0.033  0.00  0.00    -0.049 Br
ENDBRANCH  10  12
BRANCH   6  19
ATOM     19  S   UNL     1      -1.510  -0.908   0.012  0.00  0.00    +0.056 S 
ATOM     20  O   UNL     1      -1.215  -2.188   0.553  0.00  0.00    -0.153 OA
ATOM     21  O   UNL     1      -2.492  -0.050   0.577  0.00  0.00    -0.153 OA
BRANCH  19  22
ATOM     22  N   UNL     1      -1.946  -1.151  -1.567  0.00  0.00    -0.204 NA
ATOM     23  H   UNL     1      -1.387  -0.809  -2.283  0.00  0.00    +0.144 HD
ATOM     24  H   UNL     1      -2.760  -1.635  -1.777  0.00  0.00    +0.144 HD
ENDBRANCH  19  22
ENDBRANCH   6  19
TORSDOF 3
