REMARK  Name = ZINC01749625
REMARK  7 active torsions:
REMARK  status: ('A' for Active; 'I' for Inactive)
REMARK    1  A    between atoms: C_4  and  C_7
REMARK    2  A    between atoms: C_10  and  S_19
REMARK    3  A    between atoms: N_11  and  C_12
REMARK    4  A    between atoms: S_19  and  C_20
REMARK    5  A    between atoms: C_20  and  C_21
REMARK    6  A    between atoms: N_23  and  N_24
REMARK    7  A    between atoms: C_25  and  C_26
REMARK                            x       y       z     vdW  Elec       q    Type
REMARK                         _______ _______ _______ _____ _____    ______ ____
ROOT
ATOM      1  C   UNL     1       3.695  -0.684  -0.037  0.00  0.00    +0.169 A 
ATOM      2  N   UNL     1       4.871  -0.170  -0.314  0.00  0.00    -0.128 NA
ATOM      3  N   UNL     1       5.778  -1.077  -0.236  0.00  0.00    -0.122 NA
ATOM      4  C   UNL     1       5.238  -2.229   0.096  0.00  0.00    +0.197 A 
ATOM      5  N   UNL     1       3.894  -2.019   0.240  0.00  0.00    -0.270 N 
ENDROOT
BRANCH   5   6
ATOM      6  C   UNL     1       2.922  -2.966   0.594  0.00  0.00    +0.051 A 
ATOM      7  C   UNL     1       2.224  -2.833   1.787  0.00  0.00    +0.027 A 
ATOM      8  C   UNL     1       1.267  -3.767   2.133  0.00  0.00    +0.017 A 
ATOM      9  C   UNL     1       1.003  -4.833   1.291  0.00  0.00    +0.018 A 
ATOM     10  C   UNL     1       1.697  -4.967   0.102  0.00  0.00    +0.017 A 
ATOM     11  C   UNL     1       2.651  -4.033  -0.252  0.00  0.00    +0.027 A 
ATOM     12 BR   UNL     1      -0.308  -6.109   1.768  0.00  0.00    -0.050 Br
ENDBRANCH   5   6
BRANCH   1  16
ATOM     13  C   UNL     1      -0.017   1.379   0.010  0.00  0.00    +0.000 A 
ATOM     14  C   UNL     1       1.168   2.094   0.002  0.00  0.00    +0.001 A 
ATOM     15  C   UNL     1       2.377   1.429  -0.013  0.00  0.00    +0.011 A 
ATOM     16  C   UNL     1       2.404   0.034  -0.021  0.00  0.00    +0.020 A 
ATOM     17  C   UNL     1       1.204  -0.681  -0.013  0.00  0.00    +0.011 A 
ATOM     18  C   UNL     1       0.002  -0.004   0.002  0.00  0.00    +0.001 A 
ENDBRANCH   1  16
BRANCH   4  19
ATOM     19  S   UNL     1       6.088  -3.756   0.321  0.00  0.00    -0.076 S 
BRANCH  19  20
ATOM     20  C   UNL     1       7.824  -3.344  -0.010  0.00  0.00    +0.174 C 
BRANCH  20  21
ATOM     21  C   UNL     1       8.672  -4.579   0.150  0.00  0.00    +0.242 C 
ATOM     22  O   UNL     1       8.157  -5.634   0.456  0.00  0.00    -0.273 OA
ATOM     23  N   UNL     1      10.004  -4.513  -0.048  0.00  0.00    -0.206 N 
ATOM     24  H   UNL     1      10.416  -3.669  -0.293  0.00  0.00    +0.177 HD
BRANCH  23  25
ATOM     25  N   UNL     1      10.793  -5.661   0.100  0.00  0.00    -0.188 NA
ATOM     26  C   UNL     1      12.076  -5.596  -0.090  0.00  0.00    +0.140 C 
BRANCH  26  27
ATOM     27  C   UNL     1      12.904  -6.803   0.066  0.00  0.00    +0.020 A 
ATOM     28  C   UNL     1      14.252  -6.890  -0.094  0.00  0.00    +0.093 A 
ATOM     29  N   UNL     1      14.661  -8.170   0.134  0.00  0.00    -0.360 N 
ATOM     30  H   UNL     1      15.579  -8.477   0.080  0.00  0.00    +0.165 HD
ATOM     31  C   UNL     1      13.581  -8.966   0.452  0.00  0.00    +0.047 A 
ATOM     32  C   UNL     1      12.436  -8.152   0.431  0.00  0.00    +0.008 A 
ATOM     33  C   UNL     1      11.188  -8.695   0.724  0.00  0.00    +0.010 A 
ATOM     34  C   UNL     1      11.082 -10.033   1.037  0.00  0.00    +0.001 A 
ATOM     35  C   UNL     1      12.212 -10.837   1.062  0.00  0.00    +0.002 A 
ATOM     36  C   UNL     1      13.453 -10.315   0.765  0.00  0.00    +0.026 A 
ENDBRANCH  26  27
ENDBRANCH  23  25
ENDBRANCH  20  21
ENDBRANCH  19  20
ENDBRANCH   4  19
TORSDOF 7
