REMARK  Name = ZINC35702683
REMARK  13 active torsions:
REMARK  status: ('A' for Active; 'I' for Inactive)
REMARK    1  A    between atoms: C_1  and  C_2
REMARK    2  A    between atoms: C_2  and  O_3
REMARK    3  A    between atoms: O_3  and  N_4
REMARK    4  A    between atoms: C_5  and  C_7
REMARK    5  A    between atoms: C_7  and  C_9
REMARK    6  A    between atoms: C_7  and  S_10
REMARK    7  A    between atoms: S_10  and  C_11
REMARK    8  A    between atoms: C_13  and  C_26
REMARK    9  A    between atoms: C_14  and  C_19
REMARK   10  A    between atoms: N_17  and  C_18
REMARK   11  A    between atoms: C_19  and  C_20
REMARK   12  A    between atoms: C_26  and  O_27
REMARK   13  A    between atoms: O_27  and  C_28
REMARK                            x       y       z     vdW  Elec       q    Type
REMARK                         _______ _______ _______ _____ _____    ______ ____
ROOT
ATOM      1  C   UNL     1       2.842  -6.198   3.474  0.00  0.00    +0.172 A 
ATOM      2  N   UNL     1       2.068  -6.798   2.590  0.00  0.00    -0.225 NA
ATOM      3  C   UNL     1       2.126  -8.114   2.400  0.00  0.00    +0.078 A 
ATOM      4  C   UNL     1       2.998  -8.873   3.125  0.00  0.00    +0.045 A 
ATOM      5  C   UNL     1       3.827  -8.242   4.069  0.00  0.00    +0.258 A 
ATOM      6  O   UNL     1       4.618  -8.891   4.734  0.00  0.00    -0.267 OA
ATOM      7  N   UNL     1       3.735  -6.904   4.222  0.00  0.00    -0.291 N 
ATOM      8  C   UNL     1       4.588  -6.214   5.193  0.00  0.00    +0.154 C 
ENDROOT
BRANCH   1   9
ATOM      9  S   UNL     1       2.724  -4.453   3.685  0.00  0.00    -0.075 S 
BRANCH   9  10
ATOM     10  C   UNL     1       1.437  -3.954   2.508  0.00  0.00    +0.139 C 
ATOM     11  C   UNL     1       0.099  -4.568   2.926  0.00  0.00    +0.029 C 
BRANCH  10  13
ATOM     12  N   UNL     1       0.744  -1.828   1.452  0.00  0.00    -0.194 N 
ATOM     13  C   UNL     1       1.319  -2.452   2.499  0.00  0.00    +0.249 C 
ATOM     14  O   UNL     1       1.742  -1.805   3.433  0.00  0.00    -0.273 OA
ATOM     15  H   UNL     1       0.406  -2.346   0.704  0.00  0.00    +0.182 HD
BRANCH  12  16
ATOM     16  O   UNL     1       0.633  -0.416   1.443  0.00  0.00    -0.280 OA
BRANCH  16  18
ATOM     17  C   UNL     1      -0.061   1.635   0.371  0.00  0.00    +0.036 C 
ATOM     18  C   UNL     1       0.004   0.110   0.273  0.00  0.00    +0.187 C 
ENDBRANCH  16  18
ENDBRANCH  12  16
ENDBRANCH  10  13
ENDBRANCH   9  10
ENDBRANCH   1   9
BRANCH   4  19
ATOM     19  C   UNL     1       3.071 -10.364   2.917  0.00  0.00    +0.077 C 
BRANCH  19  20
ATOM     20  C   UNL     1       4.162 -10.681   1.928  0.00  0.00    -0.043 A 
ATOM     21  C   UNL     1       3.876 -10.734   0.577  0.00  0.00    +0.004 A 
ATOM     22  C   UNL     1       4.877 -11.025  -0.331  0.00  0.00    +0.000 A 
ATOM     23  C   UNL     1       6.165 -11.262   0.112  0.00  0.00    +0.000 A 
ATOM     24  C   UNL     1       6.451 -11.207   1.464  0.00  0.00    +0.000 A 
ATOM     25  C   UNL     1       5.451 -10.913   2.371  0.00  0.00    +0.004 A 
ENDBRANCH  19  20
ENDBRANCH   4  19
BRANCH   3  26
ATOM     26  C   UNL     1       1.227  -8.767   1.381  0.00  0.00    +0.215 C 
BRANCH  26  27
ATOM     27  O   UNL     1      -0.134  -8.646   1.801  0.00  0.00    -0.377 OA
ATOM     28  C   UNL     1      -1.074  -9.236   0.901  0.00  0.00    +0.194 C 
ENDBRANCH  26  27
ENDBRANCH   3  26
TORSDOF 9
