REMARK  Name = ZINC35711385
REMARK  11 active torsions:
REMARK  status: ('A' for Active; 'I' for Inactive)
REMARK    1  A    between atoms: C_1  and  C_2
REMARK    2  A    between atoms: C_2  and  C_3
REMARK    3  A    between atoms: C_3  and  N_4
REMARK    4  A    between atoms: C_5  and  C_34
REMARK    5  A    between atoms: C_6  and  C_29
REMARK    6  A    between atoms: C_7  and  C_12
REMARK    7  A    between atoms: C_15  and  N_18
REMARK    8  A    between atoms: N_21  and  C_22
REMARK    9  A    between atoms: C_29  and  O_31
REMARK   10  A    between atoms: O_31  and  C_32
REMARK   11  A    between atoms: C_32  and  C_33
REMARK                            x       y       z     vdW  Elec       q    Type
REMARK                         _______ _______ _______ _____ _____    ______ ____
ROOT
ATOM      1  C   UNL     1       0.315  -5.466  -0.262  0.00  0.00    -0.022 A 
ATOM      2  C   UNL     1      -0.469  -4.939   0.748  0.00  0.00    +0.007 A 
ATOM      3  C   UNL     1      -0.844  -5.729   1.817  0.00  0.00    +0.024 A 
ATOM      4  C   UNL     1      -0.432  -7.054   1.877  0.00  0.00    +0.035 A 
ATOM      5  C   UNL     1       0.355  -7.580   0.861  0.00  0.00    +0.024 A 
ATOM      6  C   UNL     1       0.721  -6.786  -0.208  0.00  0.00    +0.007 A 
ENDROOT
BRANCH   1  10
ATOM      7  N   UNL     1       0.609  -1.839  -1.524  0.00  0.00    -0.259 N 
ATOM      8  C   UNL     1       1.764  -2.408  -1.067  0.00  0.00    +0.024 C 
ATOM      9  C   UNL     1       1.896  -3.750  -0.990  0.00  0.00    +0.078 C 
ATOM     10  C   UNL     1       0.721  -4.601  -1.427  0.00  0.00    +0.143 C 
ATOM     11  N   UNL     1      -0.477  -3.890  -1.904  0.00  0.00    -0.288 N 
ATOM     12  C   UNL     1      -0.460  -2.542  -1.918  0.00  0.00    +0.307 C 
ATOM     13  O   UNL     1      -1.445  -1.946  -2.306  0.00  0.00    -0.252 OA
ATOM     14  C   UNL     1       2.908  -1.524  -0.641  0.00  0.00    +0.061 C 
ATOM     15  H   UNL     1      -1.261  -4.380  -2.198  0.00  0.00    +0.151 HD
BRANCH   9  16
ATOM     16  C   UNL     1       3.091  -4.341  -0.517  0.00  0.00    +0.339 C 
ATOM     17  O   UNL     1       4.022  -3.638  -0.171  0.00  0.00    -0.245 OA
BRANCH  16  18
ATOM     18  O   UNL     1       3.199  -5.684  -0.449  0.00  0.00    -0.462 OA
BRANCH  18  19
ATOM     19  C   UNL     1       4.434  -6.212   0.038  0.00  0.00    +0.229 C 
ATOM     20  C   UNL     1       4.369  -7.741   0.042  0.00  0.00    +0.048 C 
ENDBRANCH  18  19
ENDBRANCH  16  18
ENDBRANCH   9  16
BRANCH   7  21
ATOM     21  C   UNL     1       0.535  -0.377  -1.581  0.00  0.00    +0.114 C 
BRANCH  21  23
ATOM     22  C   UNL     1       1.084   1.642  -2.946  0.00  0.00    +0.005 C 
ATOM     23  C   UNL     1       1.162   0.115  -2.887  0.00  0.00    +0.016 C 
ENDBRANCH  21  23
ENDBRANCH   7  21
ENDBRANCH   1  10
BRANCH   4  24
ATOM     24  N   UNL     1      -0.809  -7.856   2.959  0.00  0.00    -0.269 N 
ATOM     25  C   UNL     1      -2.020  -7.695   3.528  0.00  0.00    +0.308 C 
ATOM     26  O   UNL     1      -2.754  -6.802   3.153  0.00  0.00    -0.252 OA
ATOM     27  N   UNL     1      -2.418  -8.525   4.513  0.00  0.00    -0.268 N 
ATOM     28  H   UNL     1      -0.199  -8.529   3.300  0.00  0.00    +0.156 HD
ATOM     29  H   UNL     1      -1.802  -9.184   4.870  0.00  0.00    +0.156 HD
BRANCH  27  30
ATOM     30  C   UNL     1      -3.719  -8.434   5.022  0.00  0.00    +0.049 A 
ATOM     31  C   UNL     1      -4.771  -8.088   4.185  0.00  0.00    +0.024 A 
ATOM     32  C   UNL     1      -6.053  -8.000   4.689  0.00  0.00    +0.002 A 
ATOM     33  C   UNL     1      -6.291  -8.256   6.027  0.00  0.00    +0.001 A 
ATOM     34  C   UNL     1      -5.246  -8.601   6.865  0.00  0.00    +0.017 A 
ATOM     35  C   UNL     1      -3.961  -8.697   6.365  0.00  0.00    +0.039 A 
ATOM     36 BR   UNL     1      -2.534  -9.177   7.508  0.00  0.00    -0.048 Br
ENDBRANCH  27  30
ENDBRANCH   4  24
TORSDOF 8
