REMARK  Name = ZINC62485826
REMARK  7 active torsions:
REMARK  status: ('A' for Active; 'I' for Inactive)
REMARK    1  A    between atoms: C_1  and  C_2
REMARK    2  A    between atoms: N_6  and  C_8
REMARK    3  A    between atoms: C_8  and  C_9
REMARK    4  A    between atoms: C_8  and  C_10
REMARK    5  A    between atoms: C_10  and  N_11
REMARK    6  A    between atoms: C_17  and  N_20
REMARK    7  A    between atoms: C_21  and  C_23
REMARK                            x       y       z     vdW  Elec       q    Type
REMARK                         _______ _______ _______ _____ _____    ______ ____
ROOT
ATOM      1  N   UNL     1       3.070  -0.566   2.171  0.00  0.00    -0.301 N 
ATOM      2  C   UNL     1       4.250   0.042   1.936  0.00  0.00    +0.302 C 
ATOM      3  O   UNL     1       5.269  -0.617   1.864  0.00  0.00    -0.253 OA
ATOM      4  N   UNL     1       4.299   1.380   1.780  0.00  0.00    -0.286 N 
ATOM      5  C   UNL     1       3.098   2.201   1.979  0.00  0.00    +0.111 C 
ATOM      6  C   UNL     1       3.418   3.307   2.991  0.00  0.00    +0.041 C 
ATOM      7  C   UNL     1       4.643   4.090   2.514  0.00  0.00    +0.076 C 
ATOM      8  C   UNL     1       5.848   3.151   2.426  0.00  0.00    +0.041 C 
ATOM      9  C   UNL     1       5.557   2.045   1.414  0.00  0.00    +0.111 C 
ATOM     10  H   UNL     1       2.268  -0.035   2.300  0.00  0.00    +0.150 HD
ENDROOT
BRANCH   7  11
ATOM     11  N   UNL     1       4.932   5.168   3.462  0.00  0.00    -0.312 N 
ATOM     12  C   UNL     1       5.596   6.267   3.051  0.00  0.00    +0.216 C 
ATOM     13  O   UNL     1       5.955   6.362   1.897  0.00  0.00    -0.276 OA
ATOM     14  H   UNL     1       4.646   5.092   4.386  0.00  0.00    +0.149 HD
BRANCH  12  15
ATOM     15  C   UNL     1       5.894   7.376   4.027  0.00  0.00    +0.075 C 
ATOM     16  C   UNL     1       4.582   7.926   4.589  0.00  0.00    +0.013 C 
ATOM     17  C   UNL     1       4.884   9.053   5.579  0.00  0.00    +0.001 C 
ATOM     18  C   UNL     1       5.641  10.173   4.863  0.00  0.00    +0.000 C 
ATOM     19  C   UNL     1       6.953   9.622   4.301  0.00  0.00    +0.001 C 
ATOM     20  C   UNL     1       6.651   8.496   3.310  0.00  0.00    +0.013 C 
ENDBRANCH  12  15
ENDBRANCH   7  11
BRANCH   1  21
ATOM     21  C   UNL     1       2.998  -2.028   2.233  0.00  0.00    +0.090 C 
BRANCH  21  22
ATOM     22  C   UNL     1       1.539  -2.461   2.382  0.00  0.00    -0.054 C 
ATOM     23  C   UNL     1       1.452  -3.988   2.332  0.00  0.00    -0.012 C 
BRANCH  22  29
ATOM     24  C   UNL     1      -2.984  -1.954   0.579  0.00  0.00    +0.005 C 
ATOM     25  C   UNL     1      -1.513  -1.582   0.383  0.00  0.00    -0.031 C 
ATOM     26  C   UNL     1      -1.039  -2.073  -0.988  0.00  0.00    -0.001 C 
ATOM     27  C   UNL     1       0.453  -1.766  -1.142  0.00  0.00    -0.018 C 
ATOM     28  C   UNL     1       1.224  -2.420   0.006  0.00  0.00    -0.078 C 
ATOM     29  N   UNL     1       0.744  -1.889   1.288  0.00  0.00    +0.383 N 
ATOM     30  C   UNL     1      -0.669  -2.243   1.475  0.00  0.00    -0.075 C 
ATOM     31  H   UNL     1       0.841  -0.885   1.293  0.00  0.00    -0.081 HD
ENDBRANCH  22  29
ENDBRANCH  21  22
ENDBRANCH   1  21
TORSDOF 5
