REMARK  Name = ZINC08781864
REMARK  1 active torsions:
REMARK  status: ('A' for Active; 'I' for Inactive)
REMARK    1  A    between atoms: C_3  and  C_9
REMARK                            x       y       z     vdW  Elec       q    Type
REMARK                         _______ _______ _______ _____ _____    ______ ____
ROOT
ATOM      1  C   UNL     1      -0.018   1.502   0.010  0.00  0.00    +0.091 C 
ATOM      2  C   UNL     1       1.396   2.034  -0.000  0.00  0.00    -0.011 A 
ATOM      3  C   UNL     1       1.567   3.389   0.286  0.00  0.00    +0.056 A 
ATOM      4  C   UNL     1       2.856   3.896   0.276  0.00  0.00    +0.167 A 
ATOM      5  C   UNL     1       3.957   3.075  -0.013  0.00  0.00    +0.168 A 
ATOM      6  C   UNL     1       3.787   1.729  -0.295  0.00  0.00    +0.073 A 
ATOM      7  C   UNL     1       2.483   1.224  -0.282  0.00  0.00    +0.039 A 
ATOM      8  N   UNL     1       2.320  -0.145  -0.566  0.00  0.00    -0.314 N 
ATOM      9  C   UNL     1       1.121  -0.721  -0.278  0.00  0.00    +0.057 C 
ATOM     10  C   UNL     1       0.002  -0.004   0.002  0.00  0.00    +0.069 C 
ATOM     11  C   UNL     1      -1.056  -0.886   0.263  0.00  0.00    +0.338 C 
ATOM     12  O   UNL     1      -2.187  -0.540   0.550  0.00  0.00    -0.245 OA
ATOM     13  O   UNL     1      -0.655  -2.170   0.155  0.00  0.00    -0.455 OA
ATOM     14  C   UNL     1       0.738  -2.170  -0.193  0.00  0.00    +0.283 C 
ATOM     15  O   UNL     1       5.084   3.820   0.044  0.00  0.00    -0.453 OA
ATOM     16  C   UNL     1       4.643   5.192  -0.015  0.00  0.00    +0.466 C 
ATOM     17  O   UNL     1       3.301   5.152   0.514  0.00  0.00    -0.453 OA
ATOM     18  H   UNL     1       3.042  -0.663  -0.956  0.00  0.00    +0.152 HD
ENDROOT
BRANCH   1  21
ATOM     19  C   UNL     1      -0.958   2.134  -3.591  0.00  0.00    +0.020 A 
ATOM     20  C   UNL     1      -0.287   1.678  -2.472  0.00  0.00    +0.007 A 
ATOM     21  C   UNL     1      -0.750   2.000  -1.210  0.00  0.00    -0.017 A 
ATOM     22  C   UNL     1      -1.888   2.774  -1.066  0.00  0.00    +0.046 A 
ATOM     23  C   UNL     1      -2.557   3.234  -2.186  0.00  0.00    +0.040 A 
ATOM     24  C   UNL     1      -2.093   2.912  -3.449  0.00  0.00    +0.042 A 
ATOM     25 CL   UNL     1      -2.936   3.483  -4.855  0.00  0.00    -0.083 Cl
ATOM     26 CL   UNL     1      -2.473   3.172   0.519  0.00  0.00    -0.083 Cl
ENDBRANCH   1  21
TORSDOF 1
