REMARK  Name = ZINC64966064
REMARK  9 active torsions:
REMARK  status: ('A' for Active; 'I' for Inactive)
REMARK    1  A    between atoms: C_1  and  C_2
REMARK    2  A    between atoms: C_5  and  N_9
REMARK    3  A    between atoms: C_7  and  C_8
REMARK    4  A    between atoms: C_12  and  C_24
REMARK    5  A    between atoms: C_14  and  C_16
REMARK    6  A    between atoms: C_19  and  S_22
REMARK    7  A    between atoms: S_22  and  C_23
REMARK    8  A    between atoms: N_27  and  C_30
REMARK    9  A    between atoms: C_30  and  C_31
REMARK                            x       y       z     vdW  Elec       q    Type
REMARK                         _______ _______ _______ _____ _____    ______ ____
ROOT
ATOM      1  N   UNL     1      -4.179  -4.208   0.871  0.00  0.00    -0.245 N 
ATOM      2  C   UNL     1      -3.666  -4.122  -0.411  0.00  0.00    +0.170 A 
ATOM      3  C   UNL     1      -3.190  -5.405  -0.740  0.00  0.00    +0.120 A 
ATOM      4  C   UNL     1      -2.614  -5.601  -1.996  0.00  0.00    +0.155 A 
ATOM      5  N   UNL     1      -2.538  -4.565  -2.832  0.00  0.00    -0.220 NA
ATOM      6  C   UNL     1      -2.997  -3.373  -2.483  0.00  0.00    +0.163 A 
ATOM      7  N   UNL     1      -3.553  -3.148  -1.297  0.00  0.00    -0.208 NA
ATOM      8  N   UNL     1      -3.434  -6.216   0.354  0.00  0.00    -0.284 N 
ATOM      9  C   UNL     1      -4.023  -5.472   1.309  0.00  0.00    +0.336 A 
ATOM     10  O   UNL     1      -4.366  -5.880   2.403  0.00  0.00    -0.246 OA
ENDROOT
BRANCH   1  15
ATOM     11  C   UNL     1      -6.524   0.052   3.797  0.00  0.00    +0.044 C 
ATOM     12  C   UNL     1      -5.901  -1.079   3.020  0.00  0.00    -0.047 A 
ATOM     13  C   UNL     1      -5.430  -0.859   1.739  0.00  0.00    +0.005 A 
ATOM     14  C   UNL     1      -4.859  -1.893   1.024  0.00  0.00    +0.026 A 
ATOM     15  C   UNL     1      -4.758  -3.156   1.594  0.00  0.00    +0.053 A 
ATOM     16  C   UNL     1      -5.232  -3.373   2.880  0.00  0.00    +0.030 A 
ATOM     17  C   UNL     1      -5.797  -2.333   3.592  0.00  0.00    -0.046 A 
ATOM     18  C   UNL     1      -6.307  -2.567   4.991  0.00  0.00    +0.044 C 
ENDBRANCH   1  15
BRANCH   6  19
ATOM     19  C   UNL     1      -2.889  -2.254  -3.448  0.00  0.00    +0.019 A 
ATOM     20  C   UNL     1      -3.361  -0.987  -3.103  0.00  0.00    +0.012 A 
ATOM     21  C   UNL     1      -3.260   0.053  -4.001  0.00  0.00    +0.015 A 
ATOM     22  C   UNL     1      -2.688  -0.160  -5.251  0.00  0.00    +0.008 A 
ATOM     23  C   UNL     1      -2.217  -1.423  -5.597  0.00  0.00    +0.015 A 
ATOM     24  C   UNL     1      -2.311  -2.463  -4.700  0.00  0.00    +0.012 A 
BRANCH  22  25
ATOM     25  S   UNL     1      -2.560   1.172  -6.398  0.00  0.00    -0.129 S 
ATOM     26  C   UNL     1      -1.767   0.426  -7.849  0.00  0.00    +0.090 C 
ENDBRANCH  22  25
ENDBRANCH   6  19
BRANCH   4  27
ATOM     27  C   UNL     1      -2.098  -6.932  -2.391  0.00  0.00    +0.262 C 
ATOM     28  O   UNL     1      -1.083  -7.365  -1.882  0.00  0.00    -0.269 OA
ATOM     29  N   UNL     1      -2.753  -7.662  -3.315  0.00  0.00    -0.324 N 
ATOM     30  H   UNL     1      -3.563  -7.315  -3.721  0.00  0.00    +0.145 HD
ATOM     31  H   UNL     1      -2.415  -8.533  -3.574  0.00  0.00    +0.145 HD
ENDBRANCH   4  27
BRANCH   8  32
ATOM     32  C   UNL     1      -3.102  -7.639   0.457  0.00  0.00    +0.162 C 
BRANCH  32  33
ATOM     33  C   UNL     1      -3.797  -8.398  -0.644  0.00  0.00    -0.028 A 
ATOM     34  C   UNL     1      -5.086  -8.058  -1.011  0.00  0.00    +0.005 A 
ATOM     35  C   UNL     1      -5.723  -8.755  -2.021  0.00  0.00    +0.000 A 
ATOM     36  C   UNL     1      -5.072  -9.790  -2.664  0.00  0.00    +0.000 A 
ATOM     37  C   UNL     1      -3.782 -10.129  -2.298  0.00  0.00    +0.000 A 
ATOM     38  C   UNL     1      -3.144  -9.430  -1.291  0.00  0.00    +0.005 A 
ENDBRANCH  32  33
ENDBRANCH   8  32
TORSDOF 6
