REMARK  Name = ZINC64743404
REMARK  7 active torsions:
REMARK  status: ('A' for Active; 'I' for Inactive)
REMARK    1  A    between atoms: C_4  and  C_7
REMARK    2  A    between atoms: C_7  and  N_8
REMARK    3  A    between atoms: N_12  and  C_15
REMARK    4  A    between atoms: C_18  and  C_21
REMARK    5  A    between atoms: N_23  and  C_24
REMARK    6  A    between atoms: C_24  and  C_25
REMARK    7  A    between atoms: C_25  and  C_26
REMARK                            x       y       z     vdW  Elec       q    Type
REMARK                         _______ _______ _______ _____ _____    ______ ____
ROOT
ATOM      1  C   UNL     1       3.708  -3.565   3.793  0.00  0.00    +0.038 A 
ATOM      2  C   UNL     1       4.150  -3.921   5.063  0.00  0.00    +0.024 A 
ATOM      3  C   UNL     1       3.725  -5.098   5.636  0.00  0.00    +0.015 A 
ATOM      4  C   UNL     1       2.849  -5.936   4.941  0.00  0.00    +0.037 A 
ATOM      5  C   UNL     1       2.407  -5.575   3.665  0.00  0.00    +0.015 A 
ATOM      6  C   UNL     1       2.831  -4.394   3.100  0.00  0.00    +0.024 A 
ENDROOT
BRANCH   1  11
ATOM      7  N   UNL     1       3.798  -0.064   2.909  0.00  0.00    -0.281 N 
ATOM      8  C   UNL     1       4.990   0.071   2.070  0.00  0.00    +0.111 C 
ATOM      9  C   UNL     1       6.015  -0.992   2.479  0.00  0.00    +0.038 C 
ATOM     10  C   UNL     1       5.351  -2.370   2.393  0.00  0.00    +0.117 C 
ATOM     11  N   UNL     1       4.139  -2.372   3.215  0.00  0.00    -0.255 N 
ATOM     12  C   UNL     1       3.439  -1.248   3.428  0.00  0.00    +0.309 C 
ATOM     13  O   UNL     1       2.438  -1.305   4.114  0.00  0.00    -0.252 OA
BRANCH   7  14
ATOM     14  C   UNL     1       2.983   1.121   3.194  0.00  0.00    +0.144 C 
BRANCH  14  18
ATOM     15  C   UNL     1       4.425   3.026   6.734  0.00  0.00    +0.000 A 
ATOM     16  C   UNL     1       4.934   3.386   5.500  0.00  0.00    +0.000 A 
ATOM     17  C   UNL     1       4.467   2.769   4.354  0.00  0.00    +0.005 A 
ATOM     18  C   UNL     1       3.493   1.792   4.443  0.00  0.00    -0.030 A 
ATOM     19  C   UNL     1       2.985   1.432   5.677  0.00  0.00    +0.005 A 
ATOM     20  C   UNL     1       3.451   2.050   6.823  0.00  0.00    +0.000 A 
ENDBRANCH  14  18
ENDBRANCH   7  14
ENDBRANCH   1  11
BRANCH   4  21
ATOM     21  C   UNL     1       2.392  -7.199   5.553  0.00  0.00    +0.244 C 
ATOM     22  O   UNL     1       2.777  -7.512   6.662  0.00  0.00    -0.270 OA
ATOM     23  N   UNL     1       1.547  -8.006   4.881  0.00  0.00    -0.311 N 
ATOM     24  H   UNL     1       1.239  -7.757   3.995  0.00  0.00    +0.149 HD
BRANCH  23  25
ATOM     25  C   UNL     1       1.093  -9.260   5.488  0.00  0.00    +0.108 C 
BRANCH  25  26
ATOM     26  C   UNL     1       0.149  -9.981   4.524  0.00  0.00    +0.065 C 
BRANCH  26  27
ATOM     27  C   UNL     1      -0.325 -11.290   5.157  0.00  0.00    +0.175 C 
ATOM     28  N   UNL     1       0.817 -12.186   5.377  0.00  0.00    -0.363 N 
ATOM     29  C   UNL     1       0.605 -13.267   4.684  0.00  0.00    +0.060 A 
ATOM     30  C   UNL     1       1.376 -14.504   4.501  0.00  0.00    +0.027 A 
ATOM     31  C   UNL     1       0.894 -15.477   3.702  0.00  0.00    +0.002 A 
ATOM     32  C   UNL     1      -0.332 -15.361   3.023  0.00  0.00    +0.002 A 
ATOM     33  C   UNL     1      -1.117 -14.270   3.120  0.00  0.00    +0.027 A 
ATOM     34  C   UNL     1      -0.693 -13.145   3.965  0.00  0.00    +0.060 A 
ATOM     35  N   UNL     1      -1.233 -11.993   4.242  0.00  0.00    -0.363 N 
ATOM     36  H   UNL     1       1.589 -12.005   5.936  0.00  0.00    +0.162 HD
ATOM     37  H   UNL     1      -2.080 -11.661   3.906  0.00  0.00    +0.162 HD
ENDBRANCH  26  27
ENDBRANCH  25  26
ENDBRANCH  23  25
ENDBRANCH   4  21
TORSDOF 7
