REMARK  Name = ZINC43688417
REMARK  3 active torsions:
REMARK  status: ('A' for Active; 'I' for Inactive)
REMARK    1  A    between atoms: C_3  and  N_18
REMARK    2  A    between atoms: N_7  and  C_11
REMARK    3  A    between atoms: C_11  and  C_12
REMARK                            x       y       z     vdW  Elec       q    Type
REMARK                         _______ _______ _______ _____ _____    ______ ____
ROOT
ATOM      1  C   UNL     1      -0.017   1.377   0.010  0.00  0.00    +0.004 A 
ATOM      2  C   UNL     1       1.171   2.083   0.002  0.00  0.00    +0.023 A 
ATOM      3  C   UNL     1       2.383   1.407  -0.015  0.00  0.00    +0.030 A 
ATOM      4  C   UNL     1       2.407   0.016  -0.024  0.00  0.00    -0.006 A 
ATOM      5  C   UNL     1       1.214  -0.687  -0.013  0.00  0.00    +0.035 A 
ATOM      6  C   UNL     1       0.002  -0.004   0.002  0.00  0.00    +0.023 A 
ATOM      7  N   UNL     1       1.207  -2.087  -0.013  0.00  0.00    -0.325 N 
ATOM      8  C   UNL     1       2.450  -2.804  -0.328  0.00  0.00    +0.106 C 
ATOM      9  C   UNL     1       3.589  -2.128   0.446  0.00  0.00    +0.024 C 
ATOM     10  C   UNL     1       3.737  -0.690  -0.049  0.00  0.00    +0.040 C 
ENDROOT
BRANCH   3  11
ATOM     11  N   UNL     1       3.581   2.125  -0.024  0.00  0.00    -0.358 N 
ATOM     12  H   UNL     1       3.565   3.095  -0.018  0.00  0.00    +0.142 HD
ATOM     13  H   UNL     1       4.429   1.653  -0.037  0.00  0.00    +0.142 HD
ENDBRANCH   3  11
BRANCH   7  14
ATOM     14  C   UNL     1      -0.021  -2.824   0.296  0.00  0.00    +0.147 C 
BRANCH  14  15
ATOM     15  C   UNL     1      -0.790  -3.076  -0.975  0.00  0.00    +0.008 A 
ATOM     16  C   UNL     1      -0.716  -4.130  -1.823  0.00  0.00    +0.028 A 
ATOM     17  C   UNL     1      -1.527  -4.149  -2.942  0.00  0.00    +0.025 A 
ATOM     18  C   UNL     1      -2.373  -3.112  -3.158  0.00  0.00    +0.060 A 
ATOM     19  S   UNL     1      -2.041  -2.065  -1.750  0.00  0.00    -0.099 S 
ATOM     20 BR   UNL     1      -1.458  -5.599  -4.154  0.00  0.00    -0.050 Br
ENDBRANCH  14  15
ENDBRANCH   7  14
TORSDOF 3
