REMARK  Name = ZINC18046621
REMARK  5 active torsions:
REMARK  status: ('A' for Active; 'I' for Inactive)
REMARK    1  A    between atoms: C_1  and  N_2
REMARK    2  A    between atoms: C_10  and  S_11
REMARK    3  A    between atoms: S_11  and  C_12
REMARK    4  A    between atoms: C_12  and  C_13
REMARK    5  A    between atoms: N_15  and  N_16
REMARK                            x       y       z     vdW  Elec       q    Type
REMARK                         _______ _______ _______ _____ _____    ______ ____
ROOT
ATOM      1  C   UNL     1       0.074  -1.471   5.208  0.00  0.00    +0.241 C 
ATOM      2  O   UNL     1       0.061  -0.312   5.568  0.00  0.00    -0.273 OA
ATOM      3  N   UNL     1       0.096  -2.461   6.124  0.00  0.00    -0.228 N 
ATOM      4  H   UNL     1       0.106  -3.387   5.836  0.00  0.00    +0.175 HD
ENDROOT
BRANCH   3   5
ATOM      5  N   UNL     1       0.105  -2.151   7.490  0.00  0.00    -0.295 N 
ATOM      6  C   UNL     1       0.127  -3.102   8.369  0.00  0.00    +0.089 C 
ATOM      7  N   UNL     1       0.148  -4.445   8.001  0.00  0.00    -0.303 N 
ATOM      8  C   UNL     1      -0.587  -5.346   8.784  0.00  0.00    +0.035 A 
ATOM      9  C   UNL     1      -0.724  -6.659   8.347  0.00  0.00    +0.023 A 
ATOM     10  C   UNL     1      -1.434  -7.569   9.103  0.00  0.00    +0.002 A 
ATOM     11  C   UNL     1      -2.008  -7.173  10.298  0.00  0.00    +0.000 A 
ATOM     12  C   UNL     1      -1.876  -5.869  10.732  0.00  0.00    +0.005 A 
ATOM     13  C   UNL     1      -1.169  -4.946   9.976  0.00  0.00    -0.026 A 
ATOM     14  C   UNL     1      -1.071  -3.530  10.479  0.00  0.00    +0.044 C 
ATOM     15  C   UNL     1       0.138  -2.817   9.858  0.00  0.00    +0.075 C 
ATOM     16  H   UNL     1       0.096  -1.225   7.778  0.00  0.00    +0.185 HD
ATOM     17  H   UNL     1       0.653  -4.747   7.230  0.00  0.00    +0.153 HD
ENDBRANCH   3   5
BRANCH   1  18
ATOM     18  C   UNL     1       0.064  -1.804   3.738  0.00  0.00    +0.174 C 
BRANCH  18  19
ATOM     19  S   UNL     1       0.033  -0.269   2.771  0.00  0.00    -0.078 S 
BRANCH  19  29
ATOM     20  C   UNL     1      -0.018   1.461   0.010  0.00  0.00    +0.151 C 
ATOM     21  N   UNL     1       0.002  -0.004   0.002  0.00  0.00    -0.322 N 
ATOM     22  C   UNL     1       0.008  -0.820  -1.118  0.00  0.00    +0.069 A 
ATOM     23  C   UNL     1      -0.001  -0.578  -2.483  0.00  0.00    +0.028 A 
ATOM     24  C   UNL     1       0.009  -1.636  -3.368  0.00  0.00    +0.002 A 
ATOM     25  C   UNL     1       0.029  -2.942  -2.901  0.00  0.00    +0.002 A 
ATOM     26  C   UNL     1       0.038  -3.201  -1.549  0.00  0.00    +0.030 A 
ATOM     27  C   UNL     1       0.028  -2.140  -0.640  0.00  0.00    +0.090 A 
ATOM     28  N   UNL     1       0.033  -2.075   0.718  0.00  0.00    -0.222 NA
ATOM     29  C   UNL     1       0.024  -0.820   1.097  0.00  0.00    +0.170 A 
ENDBRANCH  19  29
ENDBRANCH  18  19
ENDBRANCH   1  18
TORSDOF 4
