REMARK  Name = ZINC08876753
REMARK  5 active torsions:
REMARK  status: ('A' for Active; 'I' for Inactive)
REMARK    1  A    between atoms: C_1  and  C_2
REMARK    2  A    between atoms: C_9  and  C_17
REMARK    3  A    between atoms: N_19  and  C_20
REMARK    4  A    between atoms: C_25  and  O_26
REMARK    5  A    between atoms: O_26  and  C_27
REMARK                            x       y       z     vdW  Elec       q    Type
REMARK                         _______ _______ _______ _____ _____    ______ ____
ROOT
ATOM      1  C   UNL     1       0.859  -4.174  -0.077  0.00  0.00    +0.044 C 
ATOM      2  C   UNL     1       0.571  -2.696  -0.055  0.00  0.00    -0.050 A 
ATOM      3  C   UNL     1      -0.737  -2.244  -0.053  0.00  0.00    +0.005 A 
ATOM      4  C   UNL     1      -1.007  -0.892  -0.032  0.00  0.00    +0.024 A 
ATOM      5  C   UNL     1       0.036   0.031  -0.014  0.00  0.00    +0.036 A 
ATOM      6  C   UNL     1       1.347  -0.435  -0.017  0.00  0.00    -0.027 A 
ATOM      7  C   UNL     1       1.613  -1.786  -0.037  0.00  0.00    +0.008 A 
ATOM      8  C   UNL     1       2.222   0.790   0.002  0.00  0.00    +0.052 C 
ATOM      9  C   UNL     1       3.114   0.804   1.253  0.00  0.00    +0.076 C 
ATOM     10  C   UNL     1       4.437   1.424   0.727  0.00  0.00    -0.003 C 
ATOM     11  C   UNL     1       4.503   0.853  -0.710  0.00  0.00    -0.066 C 
ATOM     12  C   UNL     1       2.891   2.125  -1.897  0.00  0.00    -0.077 C 
ATOM     13  C   UNL     1       4.236   2.352  -2.628  0.00  0.00    -0.020 C 
ATOM     14  C   UNL     1       5.275   1.832  -1.609  0.00  0.00    -0.017 C 
ATOM     15  C   UNL     1       1.260   1.950   0.020  0.00  0.00    +0.212 C 
ATOM     16  O   UNL     1       1.548   3.127   0.039  0.00  0.00    -0.277 OA
ATOM     17  N   UNL     1       0.020   1.427   0.009  0.00  0.00    -0.286 N 
ATOM     18  H   UNL     1      -0.792   1.958   0.012  0.00  0.00    +0.155 HD
ATOM     19  N   UNL     1       3.119   0.862  -1.169  0.00  0.00    +0.394 N 
ATOM     20  H   UNL     1       2.945   0.063  -1.789  0.00  0.00    -0.079 HD
ENDROOT
BRANCH   9  21
ATOM     21  C   UNL     1       3.345  -0.596   1.760  0.00  0.00    +0.220 C 
ATOM     22  O   UNL     1       4.238  -1.271   1.292  0.00  0.00    -0.275 OA
ATOM     23  N   UNL     1       2.560  -1.098   2.733  0.00  0.00    -0.282 N 
ATOM     24  H   UNL     1       1.796  -0.592   3.050  0.00  0.00    +0.155 HD
BRANCH  23  25
ATOM     25  C   UNL     1       2.848  -2.353   3.288  0.00  0.00    +0.077 A 
ATOM     26  C   UNL     1       4.165  -2.768   3.422  0.00  0.00    +0.047 A 
ATOM     27  C   UNL     1       4.447  -4.006   3.970  0.00  0.00    +0.043 A 
ATOM     28  C   UNL     1       3.417  -4.832   4.385  0.00  0.00    +0.024 A 
ATOM     29  C   UNL     1       2.103  -4.424   4.254  0.00  0.00    +0.049 A 
ATOM     30  C   UNL     1       1.813  -3.183   3.711  0.00  0.00    +0.141 A 
ATOM     31 CL   UNL     1       6.095  -4.524   4.138  0.00  0.00    -0.083 Cl
BRANCH  30  32
ATOM     32  O   UNL     1       0.521  -2.778   3.587  0.00  0.00    -0.493 OA
ATOM     33  C   UNL     1      -0.488  -3.682   4.043  0.00  0.00    +0.277 C 
ENDBRANCH  30  32
ENDBRANCH  23  25
ENDBRANCH   9  21
TORSDOF 3
