REMARK  Name = ZINC22684538
REMARK  13 active torsions:
REMARK  status: ('A' for Active; 'I' for Inactive)
REMARK    1  A    between atoms: C_1  and  C_2
REMARK    2  A    between atoms: C_2  and  C_3
REMARK    3  A    between atoms: C_6  and  C_9
REMARK    4  A    between atoms: C_9  and  C_11
REMARK    5  A    between atoms: C_9  and  N_31
REMARK    6  A    between atoms: C_11  and  N_12
REMARK    7  A    between atoms: C_13  and  C_15
REMARK    8  A    between atoms: C_19  and  S_21
REMARK    9  A    between atoms: S_21  and  N_24
REMARK   10  A    between atoms: N_24  and  C_25
REMARK   11  A    between atoms: C_25  and  C_26
REMARK   12  A    between atoms: N_31  and  C_32
REMARK   13  A    between atoms: N_31  and  C_33
REMARK                            x       y       z     vdW  Elec       q    Type
REMARK                         _______ _______ _______ _____ _____    ______ ____
ROOT
ATOM      1  N   UNL     1      -4.382  -1.342  -5.426  0.00  0.00    -0.313 N 
ATOM      2  C   UNL     1      -3.423  -1.511  -4.494  0.00  0.00    +0.244 C 
ATOM      3  O   UNL     1      -2.787  -2.546  -4.458  0.00  0.00    -0.270 OA
ATOM      4  H   UNL     1      -4.958  -0.405  -5.458  0.00  0.00    +0.149 HD
ENDROOT
BRANCH   2   5
ATOM      5  C   UNL     1      -3.146  -0.438  -3.515  0.00  0.00    +0.039 A 
ATOM      6  C   UNL     1      -3.875   0.752  -3.554  0.00  0.00    +0.013 A 
ATOM      7  C   UNL     1      -3.611   1.749  -2.638  0.00  0.00    +0.003 A 
ATOM      8  C   UNL     1      -2.629   1.569  -1.679  0.00  0.00    +0.028 A 
ATOM      9  C   UNL     1      -1.899   0.395  -1.639  0.00  0.00    +0.106 A 
ATOM     10  C   UNL     1      -2.153  -0.610  -2.549  0.00  0.00    +0.041 A 
BRANCH   9  11
ATOM     11  S   UNL     1      -0.647   0.179  -0.418  0.00  0.00    +0.059 S 
ATOM     12  O   UNL     1      -0.486  -1.222  -0.244  0.00  0.00    -0.153 OA
ATOM     13  O   UNL     1      -0.976   1.048   0.658  0.00  0.00    -0.153 OA
BRANCH  11  14
ATOM     14  N   UNL     1       0.769   0.742  -1.064  0.00  0.00    -0.185 NA
ATOM     15  H   UNL     1       1.531   0.022  -1.399  0.00  0.00    +0.148 HD
BRANCH  14  16
ATOM     16  C   UNL     1       0.913   2.164  -1.387  0.00  0.00    +0.148 C 
BRANCH  16  17
ATOM     17  C   UNL     1       2.370   2.485  -1.604  0.00  0.00    +0.005 A 
ATOM     18  C   UNL     1       3.093   2.439  -2.750  0.00  0.00    +0.012 A 
ATOM     19  C   UNL     1       4.431   2.785  -2.712  0.00  0.00    +0.008 A 
ATOM     20  C   UNL     1       4.983   3.149  -1.529  0.00  0.00    +0.045 A 
ATOM     21  S   UNL     1       3.592   3.017  -0.417  0.00  0.00    -0.100 S 
ENDBRANCH  16  17
ENDBRANCH  14  16
ENDBRANCH  11  14
ENDBRANCH   9  11
ENDBRANCH   2   5
BRANCH   1  22
ATOM     22  C   UNL     1      -4.658  -2.405  -6.395  0.00  0.00    +0.094 C 
BRANCH  22  23
ATOM     23  C   UNL     1      -5.890  -2.034  -7.222  0.00  0.00    -0.021 C 
BRANCH  23  27
ATOM     24  C   UNL     1      -6.574  -5.038 -10.182  0.00  0.00    -0.048 A 
ATOM     25  C   UNL     1      -6.024  -3.822 -10.545  0.00  0.00    +0.004 A 
ATOM     26  C   UNL     1      -5.803  -2.850  -9.587  0.00  0.00    +0.002 A 
ATOM     27  C   UNL     1      -6.132  -3.094  -8.266  0.00  0.00    -0.059 A 
ATOM     28  C   UNL     1      -6.676  -4.311  -7.903  0.00  0.00    +0.002 A 
ATOM     29  C   UNL     1      -6.902  -5.281  -8.861  0.00  0.00    +0.004 A 
BRANCH  24  31
ATOM     30  C   UNL     1      -5.574  -6.985 -11.347  0.00  0.00    +0.009 C 
ATOM     31  C   UNL     1      -6.814  -6.097 -11.226  0.00  0.00    +0.032 C 
ENDBRANCH  24  31
ENDBRANCH  23  27
BRANCH  23  32
ATOM     32  N   UNL     1      -7.061  -1.940  -6.340  0.00  0.00    +0.382 N 
ATOM     33  C   UNL     1      -6.903  -2.801  -5.161  0.00  0.00    -0.096 C 
ATOM     34  C   UNL     1      -7.312  -0.547  -5.945  0.00  0.00    -0.096 C 
ATOM     35  H   UNL     1      -7.938  -2.294  -6.903  0.00  0.00    -0.082 HD
ENDBRANCH  23  32
ENDBRANCH  22  23
ENDBRANCH   1  22
TORSDOF 10
