REMARK  Name = ZINC39103099
REMARK  4 active torsions:
REMARK  status: ('A' for Active; 'I' for Inactive)
REMARK    1  A    between atoms: C_1  and  C_2
REMARK    2  A    between atoms: C_2  and  C_3
REMARK    3  A    between atoms: C_2  and  C_4
REMARK    4  A    between atoms: C_9  and  C_10
REMARK                            x       y       z     vdW  Elec       q    Type
REMARK                         _______ _______ _______ _____ _____    ______ ____
ROOT
ATOM      1  C   UNL     1      -1.412  -0.526   0.013  0.00  0.00    +0.087 A 
ATOM      2  N   UNL     1      -2.303  -0.300   0.937  0.00  0.00    -0.174 NA
ATOM      3  N   UNL     1      -3.494  -0.951   0.594  0.00  0.00    -0.242 N 
ATOM      4  C   UNL     1      -3.309  -1.590  -0.578  0.00  0.00    +0.284 A 
ATOM      5  O   UNL     1      -4.226  -2.334  -1.241  0.00  0.00    -0.265 OA
ATOM      6  C   UNL     1      -2.003  -1.340  -0.981  0.00  0.00    +0.140 A 
ATOM      7  H   UNL     1      -4.313  -0.943   1.113  0.00  0.00    +0.192 HD
ENDROOT
BRANCH   1   9
ATOM      8  C   UNL     1      -0.019   1.526   0.010  0.00  0.00    +0.014 C 
ATOM      9  C   UNL     1       0.002  -0.004   0.002  0.00  0.00    +0.035 C 
ATOM     10  C   UNL     1       0.742  -0.511   1.242  0.00  0.00    +0.014 C 
ENDBRANCH   1   9
BRANCH   6  11
ATOM     11  C   UNL     1      -1.374  -1.819  -2.175  0.00  0.00    +0.107 C 
ATOM     12  N   UNL     1      -0.875  -2.199  -3.122  0.00  0.00    -0.191 NA
ENDBRANCH   6  11
TORSDOF 2
