REMARK  Name = ZINC09641999
REMARK  11 active torsions:
REMARK  status: ('A' for Active; 'I' for Inactive)
REMARK    1  A    between atoms: C_1  and  O_2
REMARK    2  A    between atoms: O_2  and  C_3
REMARK    3  A    between atoms: C_6  and  C_9
REMARK    4  A    between atoms: C_11  and  C_14
REMARK    5  A    between atoms: C_14  and  C_15
REMARK    6  A    between atoms: N_17  and  C_18
REMARK    7  A    between atoms: C_18  and  C_19
REMARK    8  A    between atoms: C_19  and  C_21
REMARK    9  A    between atoms: C_19  and  N_61
REMARK   10  A    between atoms: C_24  and  O_27
REMARK   11  A    between atoms: O_27  and  C_28
REMARK                            x       y       z     vdW  Elec       q    Type
REMARK                         _______ _______ _______ _____ _____    ______ ____
ROOT
ATOM      1  C   UNL     1      -1.094  -0.724   0.144  0.00  0.00    +0.219 C 
ATOM      2  O   UNL     1      -2.135  -0.154   0.391  0.00  0.00    -0.275 OA
ATOM      3  N   UNL     1       0.041  -0.015  -0.019  0.00  0.00    -0.316 N 
ATOM      4  H   UNL     1       0.874  -0.471  -0.217  0.00  0.00    +0.149 HD
ENDROOT
BRANCH   1   5
ATOM      5  C   UNL     1      -1.068  -2.226   0.019  0.00  0.00    +0.151 C 
BRANCH   5   8
ATOM      6  C   UNL     1      -4.327  -2.946   1.567  0.00  0.00    +0.109 A 
ATOM      7  N   UNL     1      -3.107  -2.478   1.344  0.00  0.00    -0.243 NA
ATOM      8  C   UNL     1      -2.454  -2.772   0.244  0.00  0.00    +0.058 A 
ATOM      9  C   UNL     1      -3.033  -3.566  -0.695  0.00  0.00    +0.071 A 
ATOM     10  S   UNL     1      -4.607  -3.904   0.083  0.00  0.00    -0.075 S 
BRANCH   6  14
ATOM     11  C   UNL     1      -6.883  -2.334   4.905  0.00  0.00    +0.120 A 
ATOM     12  C   UNL     1      -7.305  -3.126   3.845  0.00  0.00    +0.046 A 
ATOM     13  C   UNL     1      -6.479  -3.326   2.761  0.00  0.00    +0.014 A 
ATOM     14  C   UNL     1      -5.216  -2.733   2.728  0.00  0.00    +0.007 A 
ATOM     15  C   UNL     1      -4.793  -1.943   3.798  0.00  0.00    +0.014 A 
ATOM     16  C   UNL     1      -5.627  -1.742   4.877  0.00  0.00    +0.046 A 
BRANCH  11  18
ATOM     17  C   UNL     1      -7.202  -1.314   7.028  0.00  0.00    +0.277 C 
ATOM     18  O   UNL     1      -7.700  -2.139   5.973  0.00  0.00    -0.495 OA
ENDBRANCH  11  18
ENDBRANCH   6  14
ENDBRANCH   5   8
ENDBRANCH   1   5
BRANCH   3  19
ATOM     19  C   UNL     1       0.016   1.445   0.102  0.00  0.00    +0.093 C 
BRANCH  19  20
ATOM     20  C   UNL     1       1.441   1.991  -0.009  0.00  0.00    -0.020 C 
BRANCH  20  21
ATOM     21  C   UNL     1       1.974   1.723  -1.393  0.00  0.00    -0.059 A 
ATOM     22  C   UNL     1       1.608   2.544  -2.444  0.00  0.00    +0.005 A 
ATOM     23  C   UNL     1       2.100   2.304  -3.713  0.00  0.00    +0.046 A 
ATOM     24  C   UNL     1       2.952   1.232  -3.934  0.00  0.00    +0.120 A 
ATOM     25  C   UNL     1       3.313   0.407  -2.879  0.00  0.00    +0.046 A 
ATOM     26  C   UNL     1       2.824   0.654  -1.611  0.00  0.00    +0.005 A 
BRANCH  24  27
ATOM     27  O   UNL     1       3.432   0.990  -5.182  0.00  0.00    -0.495 OA
ATOM     28  C   UNL     1       3.018   1.881  -6.220  0.00  0.00    +0.277 C 
ENDBRANCH  24  27
ENDBRANCH  20  21
BRANCH  20  33
ATOM     29  C   UNL     1       0.885   3.742   1.588  0.00  0.00    -0.078 C 
ATOM     30  C   UNL     1       1.426   5.165   1.877  0.00  0.00    -0.020 C 
ATOM     31  C   UNL     1       2.845   5.126   1.265  0.00  0.00    -0.020 C 
ATOM     32  C   UNL     1       2.805   3.986   0.230  0.00  0.00    -0.078 C 
ATOM     33  N   UNL     1       1.440   3.461   0.254  0.00  0.00    +0.385 N 
ATOM     34  H   UNL     1       0.875   3.931  -0.463  0.00  0.00    -0.081 HD
ENDBRANCH  20  33
ENDBRANCH  19  20
ENDBRANCH   3  19
TORSDOF 9
