REMARK  Name = ZINC21251085
REMARK  13 active torsions:
REMARK  status: ('A' for Active; 'I' for Inactive)
REMARK    1  A    between atoms: C_1  and  C_2
REMARK    2  A    between atoms: C_2  and  O_3
REMARK    3  A    between atoms: O_3  and  C_4
REMARK    4  A    between atoms: C_6  and  C_14
REMARK    5  A    between atoms: C_9  and  O_10
REMARK    6  A    between atoms: O_10  and  C_11
REMARK    7  A    between atoms: C_11  and  C_12
REMARK    8  A    between atoms: C_11  and  C_13
REMARK    9  A    between atoms: C_19  and  C_24
REMARK   10  A    between atoms: C_27  and  O_32
REMARK   11  A    between atoms: C_28  and  O_30
REMARK   12  A    between atoms: O_30  and  C_31
REMARK   13  A    between atoms: O_32  and  C_33
REMARK                            x       y       z     vdW  Elec       q    Type
REMARK                         _______ _______ _______ _____ _____    ______ ____
ROOT
ATOM      1  C   UNL     1      -5.719  -1.900   0.109  0.00  0.00    +0.136 C 
ATOM      2  C   UNL     1      -4.391  -1.183   0.169  0.00  0.00    +0.036 C 
ATOM      3  C   UNL     1      -3.696  -0.722  -0.885  0.00  0.00    +0.017 C 
ATOM      4  C   UNL     1      -2.364  -0.020  -0.681  0.00  0.00    +0.059 C 
ATOM      5  C   UNL     1      -2.374   0.741   0.644  0.00  0.00    +0.032 C 
ATOM      6  C   UNL     1      -2.616  -0.277   1.765  0.00  0.00    +0.088 C 
ATOM      7  C   UNL     1      -3.897  -1.003   1.482  0.00  0.00    +0.163 C 
ATOM      8  O   UNL     1      -4.533  -1.454   2.415  0.00  0.00    -0.292 OA
ATOM      9  N   UNL     1      -4.085  -0.840  -2.180  0.00  0.00    -0.316 N 
ATOM     10  C   UNL     1      -5.361  -0.562  -2.655  0.00  0.00    +0.052 A 
ATOM     11  C   UNL     1      -5.612   0.470  -3.542  0.00  0.00    +0.025 A 
ATOM     12  C   UNL     1      -6.900   0.663  -4.013  0.00  0.00    +0.002 A 
ATOM     13  C   UNL     1      -7.925  -0.171  -3.602  0.00  0.00    +0.002 A 
ATOM     14  C   UNL     1      -7.678  -1.192  -2.701  0.00  0.00    +0.025 A 
ATOM     15  C   UNL     1      -6.395  -1.373  -2.212  0.00  0.00    +0.049 A 
ATOM     16  N   UNL     1      -6.120  -2.313  -1.220  0.00  0.00    -0.331 N 
ATOM     17  H   UNL     1      -3.366  -1.179  -2.941  0.00  0.00    +0.152 HD
ATOM     18  H   UNL     1      -6.213  -3.383  -1.458  0.00  0.00    +0.147 HD
ENDROOT
BRANCH   1  21
ATOM     19  C   UNL     1      -8.439  -0.501   2.327  0.00  0.00    +0.162 A 
ATOM     20  C   UNL     1      -7.463  -1.340   1.814  0.00  0.00    +0.055 A 
ATOM     21  C   UNL     1      -6.780  -0.986   0.665  0.00  0.00    -0.019 A 
ATOM     22  C   UNL     1      -7.066   0.207   0.028  0.00  0.00    +0.009 A 
ATOM     23  C   UNL     1      -8.042   1.047   0.531  0.00  0.00    +0.050 A 
ATOM     24  C   UNL     1      -8.730   0.698   1.682  0.00  0.00    +0.162 A 
BRANCH  19  25
ATOM     25  O   UNL     1      -9.111  -0.848   3.457  0.00  0.00    -0.489 OA
BRANCH  25  27
ATOM     26  C   UNL     1      -9.615  -2.310   5.314  0.00  0.00    +0.048 C 
ATOM     27  C   UNL     1      -8.760  -2.092   4.064  0.00  0.00    +0.226 C 
ENDBRANCH  25  27
ENDBRANCH  19  25
BRANCH  24  28
ATOM     28  O   UNL     1      -9.687   1.525   2.181  0.00  0.00    -0.486 OA
BRANCH  28  29
ATOM     29  C   UNL     1     -10.020   2.676   1.403  0.00  0.00    +0.167 C 
ATOM     30  C   UNL     1     -11.447   3.119   1.732  0.00  0.00    +0.051 C 
ATOM     31  C   UNL     1      -9.046   3.810   1.727  0.00  0.00    +0.051 C 
ENDBRANCH  28  29
ENDBRANCH  24  28
ENDBRANCH   1  21
BRANCH   5  32
ATOM     32  C   UNL     1      -1.046   1.423   0.851  0.00  0.00    -0.040 A 
ATOM     33  C   UNL     1       0.117   0.676   0.875  0.00  0.00    +0.008 A 
ATOM     34  C   UNL     1       1.337   1.298   1.059  0.00  0.00    +0.049 A 
ATOM     35  C   UNL     1       1.397   2.672   1.226  0.00  0.00    +0.161 A 
ATOM     36  C   UNL     1       0.226   3.424   1.207  0.00  0.00    +0.162 A 
ATOM     37  C   UNL     1      -0.995   2.794   1.022  0.00  0.00    +0.053 A 
BRANCH  36  38
ATOM     38  O   UNL     1       0.279   4.773   1.371  0.00  0.00    -0.491 OA
ATOM     39  C   UNL     1      -0.963   5.479   1.341  0.00  0.00    +0.277 C 
ENDBRANCH  36  38
BRANCH  35  40
ATOM     40  O   UNL     1       2.597   3.286   1.407  0.00  0.00    -0.491 OA
ATOM     41  C   UNL     1       3.757   2.451   1.415  0.00  0.00    +0.277 C 
ENDBRANCH  35  40
ENDBRANCH   5  32
TORSDOF 8
