REMARK  Name = ZINC39684115
REMARK  6 active torsions:
REMARK  status: ('A' for Active; 'I' for Inactive)
REMARK    1  A    between atoms: C_1  and  C_2
REMARK    2  A    between atoms: C_7  and  C_11
REMARK    3  A    between atoms: C_11  and  C_12
REMARK    4  A    between atoms: C_12  and  N_13
REMARK    5  A    between atoms: C_14  and  C_16
REMARK    6  A    between atoms: C_27  and  C_29
REMARK                            x       y       z     vdW  Elec       q    Type
REMARK                         _______ _______ _______ _____ _____    ______ ____
ROOT
ATOM      1  C   UNL     1      -8.826   1.365  -5.630  0.00  0.00    +0.100 C 
ATOM      2  C   UNL     1     -10.087   2.028  -5.033  0.00  0.00    +0.121 C 
ATOM      3  N   UNL     1     -11.196   1.580  -5.908  0.00  0.00    -0.296 N 
ATOM      4  C   UNL     1     -10.880   0.163  -6.208  0.00  0.00    +0.115 C 
ATOM      5  C   UNL     1      -9.350   0.141  -6.400  0.00  0.00    -0.004 C 
ATOM      6  C   UNL     1      -8.764  -1.141  -5.816  0.00  0.00    -0.010 C 
ATOM      7  C   UNL     1      -9.253  -2.339  -6.635  0.00  0.00    -0.082 C 
ATOM      8  N   UNL     1      -8.839  -2.180  -8.034  0.00  0.00    +0.379 N 
ATOM      9  C   UNL     1      -9.482  -0.996  -8.615  0.00  0.00    -0.082 C 
ATOM     10  C   UNL     1      -9.002   0.260  -7.881  0.00  0.00    -0.010 C 
ATOM     11  C   UNL     1     -12.253   2.299  -6.335  0.00  0.00    +0.247 C 
ATOM     12  O   UNL     1     -12.309   3.492  -6.109  0.00  0.00    -0.270 OA
ATOM     13  H   UNL     1      -7.837  -2.072  -8.076  0.00  0.00    -0.086 HD
ATOM     14  H   UNL     1      -9.109  -2.999  -8.558  0.00  0.00    -0.086 HD
ENDROOT
BRANCH  11  15
ATOM     15  C   UNL     1     -13.345   1.636  -7.079  0.00  0.00    +0.037 A 
ATOM     16  C   UNL     1     -13.524   0.255  -6.980  0.00  0.00    +0.014 A 
ATOM     17  C   UNL     1     -14.544  -0.357  -7.676  0.00  0.00    +0.016 A 
ATOM     18  C   UNL     1     -15.391   0.395  -8.473  0.00  0.00    +0.018 A 
ATOM     19  C   UNL     1     -15.219   1.765  -8.576  0.00  0.00    +0.016 A 
ATOM     20  C   UNL     1     -14.205   2.390  -7.880  0.00  0.00    +0.014 A 
ATOM     21 BR   UNL     1     -16.787  -0.453  -9.426  0.00  0.00    -0.050 Br
ENDBRANCH  11  15
BRANCH   1  23
ATOM     22  N   UNL     1      -6.561   0.905  -4.751  0.00  0.00    -0.315 N 
ATOM     23  C   UNL     1      -7.890   0.933  -4.531  0.00  0.00    +0.218 C 
ATOM     24  O   UNL     1      -8.333   0.610  -3.450  0.00  0.00    -0.275 OA
ATOM     25  H   UNL     1      -6.206   1.163  -5.616  0.00  0.00    +0.149 HD
BRANCH  22  26
ATOM     26  C   UNL     1      -5.651   0.485  -3.682  0.00  0.00    +0.109 C 
BRANCH  26  27
ATOM     27  C   UNL     1      -4.208   0.543  -4.189  0.00  0.00    +0.056 C 
BRANCH  27  34
ATOM     28  C   UNL     1      -0.518  -2.259   0.038  0.00  0.00    +0.046 C 
ATOM     29  C   UNL     1      -1.471  -2.337  -1.127  0.00  0.00    -0.027 A 
ATOM     30  C   UNL     1      -1.815  -3.561  -1.658  0.00  0.00    +0.005 A 
ATOM     31  C   UNL     1      -2.691  -3.646  -2.731  0.00  0.00    +0.001 A 
ATOM     32  C   UNL     1      -3.228  -2.516  -3.280  0.00  0.00    +0.010 A 
ATOM     33  C   UNL     1      -2.894  -1.266  -2.758  0.00  0.00    +0.003 A 
ATOM     34  C   UNL     1      -3.272   0.111  -3.090  0.00  0.00    -0.021 A 
ATOM     35  C   UNL     1      -2.625   0.913  -2.230  0.00  0.00    +0.087 A 
ATOM     36  N   UNL     1      -1.865   0.164  -1.374  0.00  0.00    -0.360 N 
ATOM     37  C   UNL     1      -2.011  -1.174  -1.667  0.00  0.00    +0.050 A 
ATOM     38  H   UNL     1      -1.308   0.521  -0.664  0.00  0.00    +0.165 HD
ENDBRANCH  27  34
ENDBRANCH  26  27
ENDBRANCH  22  26
ENDBRANCH   1  23
TORSDOF 5
