REMARK  Name = ZINC28053991
REMARK  4 active torsions:
REMARK  status: ('A' for Active; 'I' for Inactive)
REMARK    1  A    between atoms: C_1  and  C_2
REMARK    2  A    between atoms: C_5  and  C_8
REMARK    3  A    between atoms: C_19  and  C_21
REMARK    4  A    between atoms: C_26  and  C_27
REMARK                            x       y       z     vdW  Elec       q    Type
REMARK                         _______ _______ _______ _____ _____    ______ ____
ROOT
ATOM      1  C   UNL     1       4.324   3.533  -0.128  0.00  0.00    +0.174 C 
ATOM      2  C   UNL     1       2.960   2.938   0.123  0.00  0.00    +0.025 C 
ATOM      3  C   UNL     1       2.688   1.652  -0.107  0.00  0.00    +0.050 C 
ATOM      4  C   UNL     1       1.312   1.165   0.151  0.00  0.00    +0.038 A 
ATOM      5  C   UNL     1       1.030  -0.192   0.256  0.00  0.00    +0.013 A 
ATOM      6  C   UNL     1      -0.268  -0.601   0.497  0.00  0.00    +0.001 A 
ATOM      7  C   UNL     1      -1.280   0.333   0.634  0.00  0.00    +0.004 A 
ATOM      8  C   UNL     1      -1.008   1.685   0.531  0.00  0.00    +0.046 A 
ATOM      9  C   UNL     1       0.286   2.109   0.290  0.00  0.00    +0.131 A 
ATOM     10  O   UNL     1       0.594   3.426   0.184  0.00  0.00    -0.479 OA
ATOM     11  C   UNL     1       1.872   3.835   0.669  0.00  0.00    +0.234 C 
ATOM     12  N   UNL     1       3.655   0.756  -0.576  0.00  0.00    -0.282 N 
ATOM     13  C   UNL     1       4.976   1.172  -0.544  0.00  0.00    +0.240 A 
ATOM     14  N   UNL     1       5.303   2.473  -0.328  0.00  0.00    -0.201 N 
ATOM     15  N   UNL     1       6.696   2.515  -0.353  0.00  0.00    -0.042 NA
ATOM     16  N   UNL     1       7.097   1.306  -0.575  0.00  0.00    -0.021 NA
ATOM     17  N   UNL     1       6.088   0.511  -0.689  0.00  0.00    -0.092 NA
ATOM     18  H   UNL     1       3.353  -0.234  -0.949  0.00  0.00    +0.155 HD
ENDROOT
BRANCH   1  23
ATOM     19  C   UNL     1       4.121   6.868  -4.843  0.00  0.00    +0.044 C 
ATOM     20  C   UNL     1       4.174   5.998  -3.613  0.00  0.00    -0.050 A 
ATOM     21  C   UNL     1       4.519   6.547  -2.393  0.00  0.00    +0.004 A 
ATOM     22  C   UNL     1       4.567   5.749  -1.265  0.00  0.00    +0.006 A 
ATOM     23  C   UNL     1       4.271   4.402  -1.358  0.00  0.00    -0.019 A 
ATOM     24  C   UNL     1       3.932   3.852  -2.580  0.00  0.00    +0.006 A 
ATOM     25  C   UNL     1       3.878   4.651  -3.707  0.00  0.00    +0.004 A 
ENDBRANCH   1  23
BRANCH  11  26
ATOM     26  C   UNL     1       1.878   3.764   2.174  0.00  0.00    -0.000 A 
ATOM     27  C   UNL     1       2.431   2.670   2.812  0.00  0.00    +0.008 A 
ATOM     28  C   UNL     1       2.440   2.607   4.193  0.00  0.00    +0.000 A 
ATOM     29  C   UNL     1       1.888   3.634   4.936  0.00  0.00    +0.000 A 
ATOM     30  C   UNL     1       1.331   4.726   4.297  0.00  0.00    +0.004 A 
ATOM     31  C   UNL     1       1.326   4.791   2.916  0.00  0.00    -0.043 A 
ATOM     32  C   UNL     1       0.718   5.982   2.220  0.00  0.00    +0.044 C 
ENDBRANCH  11  26
TORSDOF 2
