REMARK  Name = ZINC39945215
REMARK  12 active torsions:
REMARK  status: ('A' for Active; 'I' for Inactive)
REMARK    1  A    between atoms: C_1  and  C_2
REMARK    2  A    between atoms: C_4  and  C_12
REMARK    3  A    between atoms: C_12  and  C_14
REMARK    4  A    between atoms: C_14  and  C_16
REMARK    5  A    between atoms: C_14  and  O_17
REMARK    6  A    between atoms: O_17  and  C_18
REMARK    7  A    between atoms: C_18  and  C_20
REMARK    8  A    between atoms: C_22  and  S_27
REMARK    9  A    between atoms: S_27  and  N_30
REMARK   10  A    between atoms: N_30  and  C_31
REMARK   11  A    between atoms: N_30  and  C_32
REMARK   12  A    between atoms: C_32  and  C_33
REMARK                            x       y       z     vdW  Elec       q    Type
REMARK                         _______ _______ _______ _____ _____    ______ ____
ROOT
ATOM      1  C   UNL     1       1.469   0.894  -6.482  0.00  0.00    +0.079 A 
ATOM      2  C   UNL     1       0.340   1.660  -6.781  0.00  0.00    +0.045 A 
ATOM      3  C   UNL     1       0.242   2.289  -8.004  0.00  0.00    +0.106 A 
ATOM      4  C   UNL     1       1.258   2.163  -8.936  0.00  0.00    +0.030 A 
ATOM      5  C   UNL     1       2.379   1.407  -8.648  0.00  0.00    +0.023 A 
ATOM      6  C   UNL     1       2.495   0.776  -7.424  0.00  0.00    +0.055 A 
ATOM      7 CL   UNL     1       3.906  -0.167  -7.061  0.00  0.00    -0.083 Cl
ENDROOT
BRANCH   3   8
ATOM      8  S   UNL     1      -1.183   3.255  -8.383  0.00  0.00    +0.061 S 
ATOM      9  O   UNL     1      -1.337   3.214  -9.795  0.00  0.00    -0.153 OA
ATOM     10  O   UNL     1      -2.207   2.835  -7.492  0.00  0.00    -0.153 OA
BRANCH   8  11
ATOM     11  N   UNL     1      -0.828   4.824  -7.991  0.00  0.00    -0.175 NA
ATOM     12  C   UNL     1      -1.110   5.324  -6.643  0.00  0.00    +0.132 C 
BRANCH  11  13
ATOM     13  C   UNL     1      -0.233   5.713  -8.992  0.00  0.00    +0.144 C 
BRANCH  13  14
ATOM     14  C   UNL     1      -1.321   6.503  -9.673  0.00  0.00    -0.032 A 
ATOM     15  C   UNL     1      -1.852   6.059 -10.869  0.00  0.00    +0.005 A 
ATOM     16  C   UNL     1      -2.850   6.784 -11.493  0.00  0.00    +0.000 A 
ATOM     17  C   UNL     1      -3.316   7.952 -10.921  0.00  0.00    +0.000 A 
ATOM     18  C   UNL     1      -2.785   8.396  -9.725  0.00  0.00    +0.000 A 
ATOM     19  C   UNL     1      -1.791   7.669  -9.098  0.00  0.00    +0.005 A 
ENDBRANCH  13  14
ENDBRANCH  11  13
ENDBRANCH   8  11
ENDBRANCH   3   8
BRANCH   1  20
ATOM     20  C   UNL     1       1.582   0.217  -5.175  0.00  0.00    +0.341 C 
ATOM     21  O   UNL     1       2.567  -0.444  -4.916  0.00  0.00    -0.245 OA
BRANCH  20  22
ATOM     22  O   UNL     1       0.591   0.333  -4.269  0.00  0.00    -0.450 OA
BRANCH  22  23
ATOM     23  C   UNL     1       0.766  -0.348  -3.025  0.00  0.00    +0.244 C 
ATOM     24  C   UNL     1       0.189  -1.760  -3.131  0.00  0.00    +0.061 C 
BRANCH  23  25
ATOM     25  C   UNL     1       0.051   0.407  -1.934  0.00  0.00    +0.202 C 
ATOM     26  O   UNL     1      -0.830   1.193  -2.217  0.00  0.00    -0.288 OA
BRANCH  25  29
ATOM     27  C   UNL     1       0.155   2.417   0.530  0.00  0.00    +0.035 C 
ATOM     28  C   UNL     1      -0.144   0.920   0.627  0.00  0.00    +0.111 C 
ATOM     29  C   UNL     1       0.405   0.199  -0.584  0.00  0.00    +0.030 C 
ATOM     30  C   UNL     1       1.327  -0.707  -0.090  0.00  0.00    +0.007 A 
ATOM     31  C   UNL     1       2.166  -1.661  -0.712  0.00  0.00    +0.010 A 
ATOM     32  C   UNL     1       2.988  -2.434   0.033  0.00  0.00    +0.001 A 
ATOM     33  C   UNL     1       3.054  -2.334   1.432  0.00  0.00    +0.002 A 
ATOM     34  C   UNL     1       2.295  -1.455   2.122  0.00  0.00    +0.026 A 
ATOM     35  C   UNL     1       1.371  -0.575   1.387  0.00  0.00    +0.043 A 
ATOM     36  N   UNL     1       0.539   0.344   1.790  0.00  0.00    -0.377 N 
ATOM     37  H   UNL     1       0.394   0.606   2.712  0.00  0.00    +0.160 HD
ENDBRANCH  25  29
ENDBRANCH  23  25
ENDBRANCH  22  23
ENDBRANCH  20  22
ENDBRANCH   1  20
TORSDOF 9
