REMARK  Name = ZINC12136768
REMARK  12 active torsions:
REMARK  status: ('A' for Active; 'I' for Inactive)
REMARK    1  A    between atoms: C_1  and  C_2
REMARK    2  A    between atoms: C_2  and  O_3
REMARK    3  A    between atoms: O_3  and  C_4
REMARK    4  A    between atoms: C_4  and  C_6
REMARK    5  A    between atoms: C_10  and  C_11
REMARK    6  A    between atoms: C_11  and  S_12
REMARK    7  A    between atoms: S_12  and  C_13
REMARK    8  A    between atoms: C_16  and  C_28
REMARK    9  A    between atoms: N_17  and  C_18
REMARK   10  A    between atoms: C_21  and  O_24
REMARK   11  A    between atoms: O_24  and  C_25
REMARK   12  A    between atoms: C_28  and  N_60
REMARK                            x       y       z     vdW  Elec       q    Type
REMARK                         _______ _______ _______ _____ _____    ______ ____
ROOT
ATOM      1  C   UNL     1      -2.831   6.423   1.476  0.00  0.00    +0.196 A 
ATOM      2  N   UNL     1      -3.166   6.929   0.312  0.00  0.00    -0.122 NA
ATOM      3  N   UNL     1      -3.873   7.989   0.482  0.00  0.00    -0.135 NA
ATOM      4  C   UNL     1      -4.024   8.227   1.754  0.00  0.00    +0.122 A 
ATOM      5  N   UNL     1      -3.365   7.238   2.435  0.00  0.00    -0.276 N 
ENDROOT
BRANCH   5   6
ATOM      6  C   UNL     1      -3.261   7.092   3.828  0.00  0.00    +0.050 A 
ATOM      7  C   UNL     1      -4.396   6.844   4.587  0.00  0.00    +0.030 A 
ATOM      8  C   UNL     1      -4.291   6.695   5.956  0.00  0.00    +0.048 A 
ATOM      9  C   UNL     1      -3.054   6.804   6.573  0.00  0.00    +0.127 A 
ATOM     10  C   UNL     1      -1.920   7.057   5.815  0.00  0.00    +0.048 A 
ATOM     11  C   UNL     1      -2.022   7.201   4.446  0.00  0.00    +0.030 A 
BRANCH   9  12
ATOM     12  O   UNL     1      -2.952   6.662   7.921  0.00  0.00    -0.434 OA
BRANCH  12  13
ATOM     13  C   UNL     1      -4.160   6.402   8.639  0.00  0.00    +0.541 C 
ATOM     14  F   UNL     1      -5.058   7.457   8.439  0.00  0.00    -0.166 F 
ATOM     15  F   UNL     1      -4.730   5.211   8.178  0.00  0.00    -0.166 F 
ENDBRANCH  12  13
ENDBRANCH   9  12
ENDBRANCH   5   6
BRANCH   1  16
ATOM     16  S   UNL     1      -1.868   4.973   1.750  0.00  0.00    -0.078 S 
BRANCH  16  17
ATOM     17  C   UNL     1      -1.550   4.479   0.039  0.00  0.00    +0.152 C 
BRANCH  17  22
ATOM     18  C   UNL     1      -1.198   1.945   0.018  0.00  0.00    +0.101 A 
ATOM     19  C   UNL     1      -0.013   1.076   0.008  0.00  0.00    +0.056 A 
ATOM     20  C   UNL     1       1.047   1.898   0.002  0.00  0.00    +0.196 A 
ATOM     21  O   UNL     1       0.618   3.170   0.013  0.00  0.00    -0.466 OA
ATOM     22  C   UNL     1      -0.717   3.223   0.025  0.00  0.00    +0.129 A 
BRANCH  18  23
ATOM     23  C   UNL     1      -2.610   1.526   0.021  0.00  0.00    +0.343 C 
ATOM     24  O   UNL     1      -3.492   2.362   0.029  0.00  0.00    -0.245 OA
BRANCH  23  25
ATOM     25  O   UNL     1      -2.923   0.215   0.015  0.00  0.00    -0.461 OA
BRANCH  25  27
ATOM     26  C   UNL     1      -4.493  -1.647   0.012  0.00  0.00    +0.048 C 
ATOM     27  C   UNL     1      -4.335  -0.125   0.019  0.00  0.00    +0.229 C 
ENDBRANCH  25  27
ENDBRANCH  23  25
ENDBRANCH  18  23
ENDBRANCH  17  22
ENDBRANCH  16  17
ENDBRANCH   1  16
BRANCH   4  28
ATOM     28  C   UNL     1      -4.783   9.378   2.364  0.00  0.00    -0.001 C 
BRANCH  28  34
ATOM     29  C   UNL     1      -2.842  10.205   3.552  0.00  0.00    -0.078 C 
ATOM     30  C   UNL     1      -1.833  11.353   3.619  0.00  0.00    -0.019 C 
ATOM     31  C   UNL     1      -2.561  12.645   3.998  0.00  0.00    -0.004 C 
ATOM     32  C   UNL     1      -3.662  12.921   2.971  0.00  0.00    -0.019 C 
ATOM     33  C   UNL     1      -4.619  11.728   2.922  0.00  0.00    -0.078 C 
ATOM     34  N   UNL     1      -3.861  10.521   2.528  0.00  0.00    +0.384 N 
ATOM     35  H   UNL     1      -3.390  10.701   1.634  0.00  0.00    -0.081 HD
ENDBRANCH  28  34
ENDBRANCH   4  28
TORSDOF 11
