REMARK  Name = ZINC63541399
REMARK  7 active torsions:
REMARK  status: ('A' for Active; 'I' for Inactive)
REMARK    1  A    between atoms: C_1  and  O_2
REMARK    2  A    between atoms: O_2  and  C_3
REMARK    3  A    between atoms: C_6  and  C_9
REMARK    4  A    between atoms: C_18  and  C_22
REMARK    5  A    between atoms: N_24  and  C_25
REMARK    6  A    between atoms: C_25  and  C_26
REMARK    7  A    between atoms: C_26  and  C_27
REMARK                            x       y       z     vdW  Elec       q    Type
REMARK                         _______ _______ _______ _____ _____    ______ ____
ROOT
ATOM      1  C   UNL     1       2.490  -2.490  -4.359  0.00  0.00    +0.063 C 
ATOM      2  N   UNL     1       3.055  -1.875  -5.351  0.00  0.00    -0.253 NA
ATOM      3  C   UNL     1       3.527  -2.853  -6.327  0.00  0.00    +0.257 C 
ATOM      4  N   UNL     1       3.694  -4.118  -5.560  0.00  0.00    -0.293 N 
ATOM      5  C   UNL     1       2.613  -3.987  -4.562  0.00  0.00    +0.163 C 
ATOM      6  C   UNL     1       4.780  -4.895  -5.941  0.00  0.00    +0.046 A 
ATOM      7  C   UNL     1       4.944  -6.272  -5.697  0.00  0.00    +0.025 A 
ATOM      8  C   UNL     1       6.063  -6.942  -6.117  0.00  0.00    +0.015 A 
ATOM      9  C   UNL     1       7.084  -6.280  -6.804  0.00  0.00    +0.038 A 
ATOM     10  C   UNL     1       6.943  -4.909  -7.061  0.00  0.00    +0.029 A 
ATOM     11  C   UNL     1       5.820  -4.253  -6.638  0.00  0.00    +0.033 A 
ATOM     12  S   UNL     1       5.275  -2.542  -6.796  0.00  0.00    -0.077 S 
ENDROOT
BRANCH   1  16
ATOM     13  C   UNL     1       0.605  -0.607  -1.055  0.00  0.00    +0.120 A 
ATOM     14  C   UNL     1       1.172   0.166  -2.061  0.00  0.00    +0.046 A 
ATOM     15  C   UNL     1       1.785  -0.442  -3.135  0.00  0.00    +0.013 A 
ATOM     16  C   UNL     1       1.836  -1.836  -3.211  0.00  0.00    -0.002 A 
ATOM     17  C   UNL     1       1.264  -2.609  -2.197  0.00  0.00    +0.013 A 
ATOM     18  C   UNL     1       0.659  -1.993  -1.123  0.00  0.00    +0.046 A 
BRANCH  13  20
ATOM     19  C   UNL     1      -0.017   1.425   0.010  0.00  0.00    +0.277 C 
ATOM     20  O   UNL     1       0.002  -0.004   0.002  0.00  0.00    -0.495 OA
ENDBRANCH  13  20
ENDBRANCH   1  16
BRANCH   9  21
ATOM     21  C   UNL     1       8.287  -7.009  -7.250  0.00  0.00    +0.244 C 
ATOM     22  O   UNL     1       9.168  -6.421  -7.847  0.00  0.00    -0.270 OA
ATOM     23  N   UNL     1       8.409  -8.327  -6.995  0.00  0.00    -0.311 N 
ATOM     24  H   UNL     1       7.706  -8.796  -6.519  0.00  0.00    +0.149 HD
BRANCH  23  25
ATOM     25  C   UNL     1       9.603  -9.051  -7.438  0.00  0.00    +0.109 C 
BRANCH  25  26
ATOM     26  C   UNL     1       9.490 -10.520  -7.026  0.00  0.00    +0.052 C 
BRANCH  26  27
ATOM     27  C   UNL     1      10.719 -11.265  -7.482  0.00  0.00    -0.040 C 
ATOM     28  C   UNL     1      11.828 -11.525  -6.754  0.00  0.00    -0.001 A 
ATOM     29  C   UNL     1      12.210 -11.205  -5.373  0.00  0.00    +0.010 A 
ATOM     30  C   UNL     1      13.416 -11.609  -4.915  0.00  0.00    +0.001 A 
ATOM     31  C   UNL     1      14.310 -12.324  -5.724  0.00  0.00    +0.002 A 
ATOM     32  C   UNL     1      14.031 -12.655  -7.003  0.00  0.00    +0.026 A 
ATOM     33  C   UNL     1      12.790 -12.282  -7.588  0.00  0.00    +0.043 A 
ATOM     34  N   UNL     1      12.294 -12.481  -8.785  0.00  0.00    -0.380 N 
ATOM     35  C   UNL     1      10.957 -11.878  -8.844  0.00  0.00    +0.144 C 
ATOM     36  H   UNL     1      12.735 -12.951  -9.509  0.00  0.00    +0.160 HD
ENDBRANCH  26  27
ENDBRANCH  25  26
ENDBRANCH  23  25
ENDBRANCH   9  21
TORSDOF 6
