REMARK  Name = ZINC13118005
REMARK  6 active torsions:
REMARK  status: ('A' for Active; 'I' for Inactive)
REMARK    1  A    between atoms: C_1  and  C_2
REMARK    2  A    between atoms: N_11  and  S_12
REMARK    3  A    between atoms: S_12  and  C_15
REMARK    4  A    between atoms: C_19  and  C_21
REMARK    5  A    between atoms: C_25  and  C_34
REMARK    6  A    between atoms: N_36  and  C_37
REMARK                            x       y       z     vdW  Elec       q    Type
REMARK                         _______ _______ _______ _____ _____    ______ ____
ROOT
ATOM      1  C   UNL     1      -2.361   5.699   0.365  0.00  0.00    +0.109 A 
ATOM      2  C   UNL     1      -1.158   6.384   0.364  0.00  0.00    +0.029 A 
ATOM      3  C   UNL     1       0.037   5.696   0.250  0.00  0.00    +0.003 A 
ATOM      4  C   UNL     1       0.037   4.320   0.143  0.00  0.00    +0.013 A 
ATOM      5  C   UNL     1      -1.173   3.624   0.139  0.00  0.00    +0.039 A 
ATOM      6  C   UNL     1      -2.375   4.324   0.254  0.00  0.00    +0.042 A 
ENDROOT
BRANCH   5   7
ATOM      7  C   UNL     1      -1.181   2.150   0.019  0.00  0.00    +0.251 C 
ATOM      8  O   UNL     1      -2.062   1.502   0.549  0.00  0.00    -0.270 OA
ATOM      9  N   UNL     1      -0.210   1.526  -0.677  0.00  0.00    -0.260 N 
ATOM     10  C   UNL     1       0.787   2.288  -1.446  0.00  0.00    +0.168 C 
ATOM     11  C   UNL     1       0.994   1.564  -2.784  0.00  0.00    +0.276 C 
ATOM     12  O   UNL     1       1.423   0.226  -2.522  0.00  0.00    -0.476 OA
ATOM     13  C   UNL     1       0.710  -0.502  -1.623  0.00  0.00    +0.143 A 
ATOM     14  C   UNL     1      -0.112   0.124  -0.689  0.00  0.00    +0.079 A 
ATOM     15  C   UNL     1      -0.830  -0.630   0.225  0.00  0.00    +0.027 A 
ATOM     16  C   UNL     1      -0.732  -2.010   0.207  0.00  0.00    +0.002 A 
ATOM     17  C   UNL     1       0.081  -2.634  -0.721  0.00  0.00    +0.004 A 
ATOM     18  C   UNL     1       0.800  -1.886  -1.634  0.00  0.00    +0.047 A 
BRANCH  11  19
ATOM     19  C   UNL     1       2.043   2.284  -3.591  0.00  0.00    +0.255 C 
ATOM     20  O   UNL     1       3.095   1.736  -3.845  0.00  0.00    -0.272 OA
ATOM     21  N   UNL     1       1.813   3.537  -4.031  0.00  0.00    -0.315 N 
ATOM     22  C   UNL     1       2.833   4.237  -4.816  0.00  0.00    +0.128 C 
ATOM     23  H   UNL     1       0.972   3.975  -3.828  0.00  0.00    +0.148 HD
ENDBRANCH  11  19
ENDBRANCH   5   7
BRANCH   1  24
ATOM     24  S   UNL     1      -3.877   6.585   0.511  0.00  0.00    +0.075 S 
ATOM     25  O   UNL     1      -3.621   7.906   0.053  0.00  0.00    -0.150 OA
ATOM     26  O   UNL     1      -4.884   5.762  -0.061  0.00  0.00    -0.150 OA
BRANCH  24  36
ATOM     27  C   UNL     1      -4.334   4.359   2.863  0.00  0.00    +0.030 C 
ATOM     28  C   UNL     1      -5.011   5.731   2.889  0.00  0.00    +0.099 C 
ATOM     29  C   UNL     1      -5.044   6.279   4.326  0.00  0.00    +0.061 C 
ATOM     30  C   UNL     1      -4.252   7.565   4.260  0.00  0.00    -0.023 A 
ATOM     31  C   UNL     1      -3.945   8.491   5.238  0.00  0.00    +0.005 A 
ATOM     32  C   UNL     1      -3.191   9.607   4.926  0.00  0.00    +0.000 A 
ATOM     33  C   UNL     1      -2.744   9.795   3.631  0.00  0.00    +0.002 A 
ATOM     34  C   UNL     1      -3.047   8.874   2.651  0.00  0.00    +0.025 A 
ATOM     35  C   UNL     1      -3.808   7.744   2.959  0.00  0.00    +0.055 A 
ATOM     36  N   UNL     1      -4.222   6.702   2.127  0.00  0.00    -0.200 N 
ENDBRANCH  24  36
ENDBRANCH   1  24
TORSDOF 4
