REMARK  Name = ZINC10755573
REMARK  17 active torsions:
REMARK  status: ('A' for Active; 'I' for Inactive)
REMARK    1  A    between atoms: C_1  and  N_2
REMARK    2  A    between atoms: N_2  and  C_3
REMARK    3  A    between atoms: N_2  and  C_4
REMARK    4  A    between atoms: C_7  and  C_10
REMARK    5  A    between atoms: C_10  and  C_12
REMARK    6  A    between atoms: C_10  and  N_66
REMARK    7  A    between atoms: C_12  and  N_13
REMARK    8  A    between atoms: C_14  and  C_16
REMARK    9  A    between atoms: N_18  and  C_19
REMARK   10  A    between atoms: C_19  and  C_20
REMARK   11  A    between atoms: C_20  and  C_21
REMARK   12  A    between atoms: C_24  and  O_29
REMARK   13  A    between atoms: C_25  and  O_27
REMARK   14  A    between atoms: O_27  and  C_28
REMARK   15  A    between atoms: O_29  and  C_30
REMARK   16  A    between atoms: C_31  and  N_66
REMARK   17  A    between atoms: C_32  and  N_66
REMARK                            x       y       z     vdW  Elec       q    Type
REMARK                         _______ _______ _______ _____ _____    ______ ____
ROOT
ATOM      1  N   UNL     1      -1.561   3.086  -0.912  0.00  0.00    -0.309 N 
ATOM      2  C   UNL     1      -2.693   3.478  -1.531  0.00  0.00    +0.299 C 
ATOM      3  O   UNL     1      -3.306   2.696  -2.227  0.00  0.00    -0.265 OA
ATOM      4  H   UNL     1      -1.071   3.711  -0.356  0.00  0.00    +0.149 HD
ENDROOT
BRANCH   2   5
ATOM      5  C   UNL     1      -3.191   4.877  -1.360  0.00  0.00    +0.299 C 
ATOM      6  O   UNL     1      -2.578   5.659  -0.664  0.00  0.00    -0.265 OA
ATOM      7  N   UNL     1      -4.323   5.269  -1.978  0.00  0.00    -0.307 N 
ATOM      8  H   UNL     1      -4.813   4.644  -2.535  0.00  0.00    +0.149 HD
BRANCH   7   9
ATOM      9  C   UNL     1      -4.811   6.640  -1.811  0.00  0.00    +0.109 C 
BRANCH   9  10
ATOM     10  C   UNL     1      -6.102   6.823  -2.612  0.00  0.00    +0.054 C 
BRANCH  10  11
ATOM     11  C   UNL     1      -6.605   8.233  -2.440  0.00  0.00    -0.042 A 
ATOM     12  C   UNL     1      -7.480   8.533  -1.412  0.00  0.00    +0.007 A 
ATOM     13  C   UNL     1      -7.939   9.826  -1.247  0.00  0.00    +0.049 A 
ATOM     14  C   UNL     1      -7.532  10.823  -2.119  0.00  0.00    +0.161 A 
ATOM     15  C   UNL     1      -6.656  10.520  -3.156  0.00  0.00    +0.162 A 
ATOM     16  C   UNL     1      -6.194   9.223  -3.313  0.00  0.00    +0.053 A 
BRANCH  15  17
ATOM     17  O   UNL     1      -6.253  11.495  -4.014  0.00  0.00    -0.491 OA
ATOM     18  C   UNL     1      -5.353  11.112  -5.056  0.00  0.00    +0.277 C 
ENDBRANCH  15  17
BRANCH  14  19
ATOM     19  O   UNL     1      -7.987  12.094  -1.960  0.00  0.00    -0.491 OA
ATOM     20  C   UNL     1      -8.884  12.332  -0.873  0.00  0.00    +0.277 C 
ENDBRANCH  14  19
ENDBRANCH  10  11
ENDBRANCH   9  10
ENDBRANCH   7   9
ENDBRANCH   2   5
BRANCH   1  21
ATOM     21  C   UNL     1      -1.073   1.715  -1.079  0.00  0.00    +0.094 C 
BRANCH  21  22
ATOM     22  C   UNL     1       0.148   1.496  -0.183  0.00  0.00    -0.021 C 
BRANCH  22  26
ATOM     23  C   UNL     1       1.393  -2.584  -0.446  0.00  0.00    +0.029 A 
ATOM     24  C   UNL     1       2.183  -1.579  -0.989  0.00  0.00    +0.023 A 
ATOM     25  C   UNL     1       1.778  -0.262  -0.902  0.00  0.00    +0.004 A 
ATOM     26  C   UNL     1       0.587   0.057  -0.276  0.00  0.00    -0.059 A 
ATOM     27  C   UNL     1      -0.199  -0.940   0.271  0.00  0.00    +0.004 A 
ATOM     28  C   UNL     1       0.198  -2.260   0.183  0.00  0.00    +0.023 A 
BRANCH  23  30
ATOM     29  C   UNL     1       3.009  -4.268  -1.282  0.00  0.00    +0.129 C 
ATOM     30  N   UNL     1       1.800  -3.917  -0.531  0.00  0.00    -0.336 N 
ATOM     31  C   UNL     1       1.019  -4.966   0.130  0.00  0.00    +0.129 C 
ENDBRANCH  23  30
ENDBRANCH  22  26
BRANCH  22  34
ATOM     32  C   UNL     1      -1.633   1.587   1.454  0.00  0.00    -0.096 C 
ATOM     33  C   UNL     1       0.621   1.040   2.147  0.00  0.00    -0.096 C 
ATOM     34  N   UNL     1      -0.197   1.840   1.212  0.00  0.00    +0.382 N 
ATOM     35  H   UNL     1      -0.003   2.836   1.367  0.00  0.00    -0.082 HD
ENDBRANCH  22  34
ENDBRANCH  21  22
ENDBRANCH   1  21
TORSDOF 11
