REMARK  Name = ZINC00996437
REMARK  8 active torsions:
REMARK  status: ('A' for Active; 'I' for Inactive)
REMARK    1  A    between atoms: C_1  and  O_2
REMARK    2  A    between atoms: O_2  and  C_3
REMARK    3  A    between atoms: C_6  and  C_17
REMARK    4  A    between atoms: C_8  and  C_9
REMARK    5  A    between atoms: C_9  and  S_10
REMARK    6  A    between atoms: S_10  and  C_11
REMARK    7  A    between atoms: C_31  and  N_35
REMARK    8  A    between atoms: C_32  and  C_33
REMARK                            x       y       z     vdW  Elec       q    Type
REMARK                         _______ _______ _______ _____ _____    ______ ____
ROOT
ATOM      1  C   UNL     1      -1.120   7.122   1.857  0.00  0.00    +0.105 C 
ATOM      2  C   UNL     1       0.256   7.727   1.909  0.00  0.00    +0.092 A 
ATOM      3  C   UNL     1       0.762   8.394   0.833  0.00  0.00    +0.152 A 
ATOM      4  C   UNL     1       2.114   8.966   0.942  0.00  0.00    +0.060 A 
ATOM      5  C   UNL     1       2.690   9.662  -0.122  0.00  0.00    +0.015 A 
ATOM      6  C   UNL     1       3.958  10.184   0.013  0.00  0.00    +0.001 A 
ATOM      7  C   UNL     1       4.660  10.021   1.198  0.00  0.00    +0.004 A 
ATOM      8  C   UNL     1       4.102   9.335   2.256  0.00  0.00    +0.047 A 
ATOM      9  C   UNL     1       2.825   8.801   2.141  0.00  0.00    +0.143 A 
ATOM     10  O   UNL     1       2.263   8.127   3.167  0.00  0.00    -0.422 OA
ATOM     11  C   UNL     1       1.030   7.605   3.076  0.00  0.00    +0.345 A 
ATOM     12  O   UNL     1       0.568   7.007   4.033  0.00  0.00    -0.245 OA
ATOM     13  O   UNL     1       0.057   8.535  -0.305  0.00  0.00    -0.440 OA
ATOM     14  C   UNL     1      -1.278   8.367  -0.293  0.00  0.00    +0.199 C 
ATOM     15  C   UNL     1      -1.900   7.702   0.710  0.00  0.00    +0.098 C 
ENDROOT
BRANCH   1  19
ATOM     16  C   UNL     1      -0.787   2.892   1.346  0.00  0.00    +0.124 A 
ATOM     17  C   UNL     1      -0.253   3.751   0.396  0.00  0.00    +0.046 A 
ATOM     18  C   UNL     1      -0.368   5.117   0.561  0.00  0.00    +0.008 A 
ATOM     19  C   UNL     1      -1.003   5.630   1.677  0.00  0.00    -0.034 A 
ATOM     20  C   UNL     1      -1.531   4.776   2.627  0.00  0.00    +0.012 A 
ATOM     21  C   UNL     1      -1.425   3.409   2.465  0.00  0.00    +0.005 A 
BRANCH  16  23
ATOM     22  C   UNL     1      -0.013   1.086   0.008  0.00  0.00    +0.277 C 
ATOM     23  O   UNL     1      -0.682   1.547   1.184  0.00  0.00    -0.495 OA
ENDBRANCH  16  23
BRANCH  21  24
ATOM     24  C   UNL     1      -2.000   2.479   3.502  0.00  0.00    +0.114 C 
BRANCH  24  25
ATOM     25  S   UNL     1      -0.742   2.122   4.759  0.00  0.00    -0.101 S 
BRANCH  25  26
ATOM     26  C   UNL     1      -1.558   1.038   5.883  0.00  0.00    +0.097 A 
ATOM     27  C   UNL     1      -0.873   0.554   6.994  0.00  0.00    +0.035 A 
ATOM     28  C   UNL     1      -1.526  -0.296   7.868  0.00  0.00    +0.004 A 
ATOM     29  C   UNL     1      -2.846  -0.635   7.601  0.00  0.00    +0.020 A 
ATOM     30  C   UNL     1      -3.464  -0.118   6.481  0.00  0.00    +0.112 A 
ATOM     31  N   UNL     1      -2.818   0.695   5.666  0.00  0.00    -0.249 NA
ENDBRANCH  25  26
ENDBRANCH  24  25
ENDBRANCH  21  24
ENDBRANCH   1  19
BRANCH  14  32
ATOM     32  N   UNL     1      -2.027   8.880  -1.322  0.00  0.00    -0.328 N 
ATOM     33  H   UNL     1      -1.593   9.357  -2.047  0.00  0.00    +0.145 HD
ATOM     34  H   UNL     1      -2.990   8.765  -1.325  0.00  0.00    +0.145 HD
ENDBRANCH  14  32
BRANCH  15  35
ATOM     35  C   UNL     1      -3.324   7.550   0.677  0.00  0.00    +0.101 C 
ATOM     36  N   UNL     1      -4.453   7.429   0.652  0.00  0.00    -0.191 NA
ENDBRANCH  15  35
TORSDOF 7
