REMARK  Name = ZINC48805472
REMARK  3 active torsions:
REMARK  status: ('A' for Active; 'I' for Inactive)
REMARK    1  A    between atoms: C_2  and  C_9
REMARK    2  A    between atoms: C_5  and  C_6
REMARK    3  A    between atoms: C_9  and  N_10
REMARK                            x       y       z     vdW  Elec       q    Type
REMARK                         _______ _______ _______ _____ _____    ______ ____
ROOT
ATOM      1  N   UNL     1       1.855   3.748   1.389  0.00  0.00    +0.387 N 
ATOM      2  C   UNL     1       2.940   2.998   2.033  0.00  0.00    -0.078 C 
ATOM      3  C   UNL     1       3.054   3.417   3.500  0.00  0.00    -0.018 C 
ATOM      4  C   UNL     1       3.353   4.917   3.575  0.00  0.00    +0.000 C 
ATOM      5  C   UNL     1       2.254   5.685   2.836  0.00  0.00    -0.025 C 
ATOM      6  C   UNL     1       2.169   5.182   1.393  0.00  0.00    -0.065 C 
ATOM      7  C   UNL     1       1.070   5.947   0.652  0.00  0.00    -0.015 C 
ATOM      8  C   UNL     1      -0.271   5.715   1.350  0.00  0.00    -0.002 C 
ATOM      9  C   UNL     1      -0.188   6.214   2.794  0.00  0.00    +0.000 C 
ATOM     10  C   UNL     1       0.914   5.456   3.538  0.00  0.00    +0.002 C 
ATOM     11  H   UNL     1       0.996   3.591   1.893  0.00  0.00    -0.081 HD
ENDROOT
BRANCH   1  12
ATOM     12  C   UNL     1       1.698   3.286   0.003  0.00  0.00    +0.000 C 
BRANCH  12  14
ATOM     13  C   UNL     1      -0.017   1.412   0.010  0.00  0.00    +0.080 A 
ATOM     14  C   UNL     1       1.256   1.846   0.000  0.00  0.00    +0.122 A 
ATOM     15  O   UNL     1       2.065   0.775  -0.013  0.00  0.00    -0.361 OA
ATOM     16  N   UNL     1       1.256  -0.387  -0.012  0.00  0.00    -0.071 NA
ATOM     17  C   UNL     1       0.002  -0.004   0.002  0.00  0.00    +0.194 A 
BRANCH  17  18
ATOM     18  C   UNL     1      -1.183  -0.893   0.009  0.00  0.00    +0.408 C 
ATOM     19  O   UNL     1      -2.307  -0.414   0.023  0.00  0.00    -0.239 OA
ATOM     20  O   UNL     1      -1.036  -2.107   0.001  0.00  0.00    -0.239 OA
ENDBRANCH  17  18
ENDBRANCH  12  14
ENDBRANCH   1  12
TORSDOF 3
