REMARK  Name = ZINC34795221
REMARK  8 active torsions:
REMARK  status: ('A' for Active; 'I' for Inactive)
REMARK    1  A    between atoms: C_1  and  O_2
REMARK    2  A    between atoms: O_2  and  C_3
REMARK    3  A    between atoms: C_5  and  C_10
REMARK    4  A    between atoms: C_8  and  O_9
REMARK    5  A    between atoms: N_18  and  C_21
REMARK    6  A    between atoms: C_27  and  C_29
REMARK    7  A    between atoms: C_27  and  C_40
REMARK    8  A    between atoms: C_29  and  C_30
REMARK                            x       y       z     vdW  Elec       q    Type
REMARK                         _______ _______ _______ _____ _____    ______ ____
ROOT
ATOM      1  C   UNL     1       2.403   0.379  -4.230  0.00  0.00    -0.027 C 
ATOM      2  C   UNL     1       3.920   0.430  -4.079  0.00  0.00    +0.077 C 
ATOM      3  C   UNL     1       4.246   0.906  -5.546  0.00  0.00    +0.086 C 
ATOM      4  C   UNL     1       5.599   1.389  -5.410  0.00  0.00    +0.225 C 
ATOM      5  O   UNL     1       6.486   1.342  -6.235  0.00  0.00    -0.275 OA
ATOM      6  N   UNL     1       5.663   1.913  -4.142  0.00  0.00    -0.239 N 
ATOM      7  C   UNL     1       4.586   1.558  -3.356  0.00  0.00    +0.225 C 
ATOM      8  O   UNL     1       4.242   2.054  -2.305  0.00  0.00    -0.275 OA
ATOM      9  C   UNL     1       3.454  -0.002  -6.384  0.00  0.00    +0.052 C 
ATOM     10  N   UNL     1       2.212  -0.273  -5.567  0.00  0.00    +0.396 N 
ATOM     11  H   UNL     1       2.101  -1.269  -5.449  0.00  0.00    -0.083 HD
ATOM     12  H   UNL     1       1.399   0.112  -6.023  0.00  0.00    -0.083 HD
ENDROOT
BRANCH   1  15
ATOM     13  C   UNL     1       0.606  -0.608  -1.056  0.00  0.00    +0.161 A 
ATOM     14  C   UNL     1       1.173   0.159  -2.062  0.00  0.00    +0.051 A 
ATOM     15  C   UNL     1       1.787  -0.456  -3.137  0.00  0.00    -0.057 A 
ATOM     16  C   UNL     1       1.837  -1.836  -3.212  0.00  0.00    +0.006 A 
ATOM     17  C   UNL     1       1.273  -2.606  -2.212  0.00  0.00    +0.049 A 
ATOM     18  C   UNL     1       0.662  -1.996  -1.129  0.00  0.00    +0.158 A 
BRANCH  13  20
ATOM     19  C   UNL     1      -0.017   1.425   0.010  0.00  0.00    +0.277 C 
ATOM     20  O   UNL     1       0.002  -0.004   0.002  0.00  0.00    -0.491 OA
ENDBRANCH  13  20
BRANCH  18  21
ATOM     21  O   UNL     1       0.112  -2.753  -0.142  0.00  0.00    -0.503 OA
ATOM     22  H   UNL     1      -0.816  -2.979  -0.291  0.00  0.00    +0.292 HD
ENDBRANCH  18  21
ENDBRANCH   1  15
BRANCH   6  23
ATOM     23  C   UNL     1       6.766   2.750  -3.665  0.00  0.00    +0.084 C 
ATOM     24  C   UNL     1       7.435   2.078  -2.465  0.00  0.00    +0.023 C 
ATOM     25  C   UNL     1       8.587   2.953  -1.967  0.00  0.00    +0.002 C 
ATOM     26  C   UNL     1       8.045   4.321  -1.548  0.00  0.00    +0.000 C 
ATOM     27  C   UNL     1       7.376   4.994  -2.749  0.00  0.00    +0.002 C 
ATOM     28  C   UNL     1       6.224   4.118  -3.247  0.00  0.00    +0.023 C 
ENDBRANCH   6  23
BRANCH   9  29
ATOM     29  C   UNL     1       4.221  -1.270  -6.657  0.00  0.00    +0.347 C 
ATOM     30  O   UNL     1       3.768  -2.345  -6.303  0.00  0.00    -0.248 OA
ATOM     31  O   UNL     1       5.296  -1.221  -7.231  0.00  0.00    -0.248 OA
ENDBRANCH   9  29
BRANCH   9  32
ATOM     32  C   UNL     1       3.070   0.683  -7.697  0.00  0.00    +0.037 C 
BRANCH  32  33
ATOM     33  C   UNL     1       2.157  -0.220  -8.486  0.00  0.00    -0.023 A 
ATOM     34  C   UNL     1       2.522  -1.080  -9.450  0.00  0.00    +0.087 A 
ATOM     35  N   UNL     1       1.421  -1.728  -9.940  0.00  0.00    -0.360 N 
ATOM     36  H   UNL     1       1.434  -2.397 -10.642  0.00  0.00    +0.165 HD
ATOM     37  C   UNL     1       0.291  -1.288  -9.287  0.00  0.00    +0.047 A 
ATOM     38  C   UNL     1       0.703  -0.329  -8.344  0.00  0.00    +0.003 A 
ATOM     39  C   UNL     1      -0.241   0.291  -7.523  0.00  0.00    +0.010 A 
ATOM     40  C   UNL     1      -1.562  -0.039  -7.638  0.00  0.00    +0.001 A 
ATOM     41  C   UNL     1      -1.973  -0.988  -8.564  0.00  0.00    +0.002 A 
ATOM     42  C   UNL     1      -1.059  -1.606  -9.390  0.00  0.00    +0.026 A 
ENDBRANCH  32  33
ENDBRANCH   9  32
TORSDOF 7
