REMARK  Name = ZINC39302185
REMARK  5 active torsions:
REMARK  status: ('A' for Active; 'I' for Inactive)
REMARK    1  A    between atoms: C_4  and  C_7
REMARK    2  A    between atoms: C_7  and  C_9
REMARK    3  A    between atoms: C_7  and  N_15
REMARK    4  A    between atoms: C_16  and  C_18
REMARK    5  A    between atoms: C_24  and  C_26
REMARK                            x       y       z     vdW  Elec       q    Type
REMARK                         _______ _______ _______ _____ _____    ______ ____
ROOT
ATOM      1  C   UNL     1       3.762  -2.943   3.085  0.00  0.00    +0.091 C 
ATOM      2  C   UNL     1       4.772  -4.008   2.653  0.00  0.00    +0.040 C 
ATOM      3  C   UNL     1       4.873  -5.079   3.700  0.00  0.00    -0.030 C 
ATOM      4  C   UNL     1       4.458  -4.943   4.918  0.00  0.00    -0.030 C 
ATOM      5  C   UNL     1       3.809  -3.700   5.452  0.00  0.00    +0.040 C 
ATOM      6  C   UNL     1       4.083  -2.517   4.523  0.00  0.00    +0.091 C 
ENDROOT
BRANCH   6   7
ATOM      7  C   UNL     1       3.214  -1.349   4.912  0.00  0.00    +0.220 C 
ATOM      8  O   UNL     1       2.149  -1.175   4.358  0.00  0.00    -0.275 OA
ATOM      9  N   UNL     1       3.619  -0.499   5.876  0.00  0.00    -0.298 N 
ATOM     10  C   UNL     1       4.951  -0.635   6.482  0.00  0.00    +0.126 C 
ATOM     11  C   UNL     1       5.693   0.700   6.338  0.00  0.00    +0.125 C 
ATOM     12  N   UNL     1       4.810   1.780   6.802  0.00  0.00    -0.314 N 
ATOM     13  C   UNL     1       3.478   1.915   6.197  0.00  0.00    +0.125 C 
ATOM     14  C   UNL     1       2.739   0.584   6.337  0.00  0.00    +0.126 C 
ATOM     15  C   UNL     1       5.228   2.657   7.797  0.00  0.00    +0.099 A 
ATOM     16  C   UNL     1       6.538   2.598   8.262  0.00  0.00    +0.042 A 
ATOM     17  C   UNL     1       6.941   3.476   9.252  0.00  0.00    +0.005 A 
ATOM     18  C   UNL     1       6.016   4.388   9.744  0.00  0.00    +0.018 A 
ATOM     19  C   UNL     1       4.733   4.391   9.236  0.00  0.00    +0.084 A 
ATOM     20  N   UNL     1       4.378   3.544   8.288  0.00  0.00    -0.350 N 
ATOM     21  H   UNL     1       3.471   3.570   7.946  0.00  0.00    +0.166 HD
ENDBRANCH   6   7
BRANCH   1  23
ATOM     22  N   UNL     1       3.626  -1.892   0.850  0.00  0.00    -0.304 N 
ATOM     23  C   UNL     1       3.861  -1.750   2.169  0.00  0.00    +0.218 C 
ATOM     24  O   UNL     1       4.151  -0.662   2.620  0.00  0.00    -0.275 OA
ATOM     25  H   UNL     1       3.393  -2.762   0.489  0.00  0.00    +0.150 HD
BRANCH  22  26
ATOM     26  C   UNL     1       3.722  -0.732  -0.040  0.00  0.00    +0.135 C 
BRANCH  26  30
ATOM     27  C   UNL     1       0.012   1.386  -0.027  0.00  0.00    +0.000 A 
ATOM     28  C   UNL     1       1.206   2.083  -0.033  0.00  0.00    +0.000 A 
ATOM     29  C   UNL     1       2.407   1.397  -0.037  0.00  0.00    +0.006 A 
ATOM     30  C   UNL     1       2.413   0.015  -0.035  0.00  0.00    -0.023 A 
ATOM     31  C   UNL     1       1.220  -0.682  -0.028  0.00  0.00    +0.006 A 
ATOM     32  C   UNL     1       0.019   0.004  -0.026  0.00  0.00    +0.000 A 
ENDBRANCH  26  30
BRANCH  26  33
ATOM     33  C   UNL     1       4.029  -1.198  -1.440  0.00  0.00    -0.005 A 
ATOM     34  C   UNL     1       4.927  -0.498  -2.232  0.00  0.00    +0.009 A 
ATOM     35  C   UNL     1       5.178  -0.963  -3.514  0.00  0.00    +0.020 A 
ATOM     36  C   UNL     1       4.531  -2.101  -3.957  0.00  0.00    +0.111 A 
ATOM     37  N   UNL     1       3.683  -2.741  -3.176  0.00  0.00    -0.263 NA
ATOM     38  C   UNL     1       3.424  -2.331  -1.949  0.00  0.00    +0.116 A 
ENDBRANCH  26  33
ENDBRANCH  22  26
ENDBRANCH   1  23
TORSDOF 5
