REMARK  Name = ZINC38649979
REMARK  10 active torsions:
REMARK  status: ('A' for Active; 'I' for Inactive)
REMARK    1  A    between atoms: C_1  and  O_2
REMARK    2  A    between atoms: O_2  and  C_3
REMARK    3  A    between atoms: C_8  and  C_9
REMARK    4  A    between atoms: C_14  and  O_23
REMARK    5  A    between atoms: C_18  and  N_22
REMARK    6  A    between atoms: C_19  and  C_20
REMARK    7  A    between atoms: O_23  and  C_24
REMARK    8  A    between atoms: C_24  and  C_26
REMARK    9  A    between atoms: C_26  and  O_27
REMARK   10  A    between atoms: O_27  and  C_28
REMARK                            x       y       z     vdW  Elec       q    Type
REMARK                         _______ _______ _______ _____ _____    ______ ____
ROOT
ATOM      1  C   UNL     1       0.015  -2.881  -0.042  0.00  0.00    +0.101 C 
ATOM      2  C   UNL     1       1.094  -3.719   0.593  0.00  0.00    +0.008 A 
ATOM      3  C   UNL     1       2.041  -3.111   1.398  0.00  0.00    +0.012 A 
ATOM      4  C   UNL     1       3.037  -3.863   1.989  0.00  0.00    +0.047 A 
ATOM      5  C   UNL     1       3.091  -5.233   1.776  0.00  0.00    +0.135 A 
ATOM      6  C   UNL     1       2.144  -5.844   0.970  0.00  0.00    +0.093 A 
ATOM      7  C   UNL     1       1.143  -5.087   0.376  0.00  0.00    +0.138 A 
ATOM      8  O   UNL     1       0.224  -5.700  -0.409  0.00  0.00    -0.441 OA
ATOM      9  C   UNL     1      -0.946  -5.093  -0.672  0.00  0.00    +0.199 C 
ATOM     10  C   UNL     1      -1.107  -3.760  -0.519  0.00  0.00    +0.098 C 
ENDROOT
BRANCH   1  16
ATOM     11  C   UNL     1       0.571  -0.742  -1.226  0.00  0.00    +0.124 A 
ATOM     12  C   UNL     1       1.108  -0.053  -2.304  0.00  0.00    +0.046 A 
ATOM     13  C   UNL     1       1.657  -0.748  -3.364  0.00  0.00    +0.004 A 
ATOM     14  C   UNL     1       1.672  -2.131  -3.351  0.00  0.00    +0.001 A 
ATOM     15  C   UNL     1       1.137  -2.821  -2.279  0.00  0.00    +0.008 A 
ATOM     16  C   UNL     1       0.592  -2.129  -1.214  0.00  0.00    +0.007 A 
BRANCH  11  18
ATOM     17  C   UNL     1       0.044   1.366  -0.264  0.00  0.00    +0.277 C 
ATOM     18  O   UNL     1       0.031  -0.060  -0.183  0.00  0.00    -0.495 OA
ENDBRANCH  11  18
ENDBRANCH   1  16
BRANCH   9  19
ATOM     19  N   UNL     1      -2.005  -5.848  -1.110  0.00  0.00    -0.328 N 
ATOM     20  H   UNL     1      -1.903  -6.805  -1.225  0.00  0.00    +0.145 HD
ATOM     21  H   UNL     1      -2.855  -5.423  -1.304  0.00  0.00    +0.145 HD
ENDBRANCH   9  19
BRANCH  10  22
ATOM     22  C   UNL     1      -2.379  -3.174  -0.817  0.00  0.00    +0.101 C 
ATOM     23  N   UNL     1      -3.388  -2.708  -1.054  0.00  0.00    -0.191 NA
ENDBRANCH  10  22
BRANCH   5  24
ATOM     24  O   UNL     1       4.071  -5.974   2.357  0.00  0.00    -0.423 OA
BRANCH  24  25
ATOM     25  C   UNL     1       5.016  -6.502   1.563  0.00  0.00    +0.350 C 
ATOM     26  O   UNL     1       5.039  -6.228   0.386  0.00  0.00    -0.247 OA
BRANCH  25  27
ATOM     27  C   UNL     1       6.049  -7.437   2.139  0.00  0.00    +0.349 C 
BRANCH  27  28
ATOM     28  O   UNL     1       6.938  -7.861   1.103  0.00  0.00    -0.479 OA
BRANCH  28  29
ATOM     29  C   UNL     1       7.935  -8.714   1.458  0.00  0.00    +0.140 A 
ATOM     30  C   UNL     1       8.052  -9.138   2.773  0.00  0.00    +0.048 A 
ATOM     31  C   UNL     1       9.067 -10.004   3.131  0.00  0.00    +0.023 A 
ATOM     32  C   UNL     1       9.966 -10.450   2.179  0.00  0.00    +0.043 A 
ATOM     33  C   UNL     1       9.852 -10.029   0.866  0.00  0.00    +0.043 A 
ATOM     34  C   UNL     1       8.835  -9.166   0.502  0.00  0.00    +0.084 A 
ATOM     35 CL   UNL     1       8.687  -8.644  -1.147  0.00  0.00    -0.080 Cl
ATOM     36 CL   UNL     1      11.240 -11.539   2.632  0.00  0.00    -0.083 Cl
ENDBRANCH  28  29
ENDBRANCH  27  28
ENDBRANCH  25  27
ENDBRANCH  24  25
ENDBRANCH   5  24
TORSDOF 9
