REMARK  Name = ZINC08749601
REMARK  13 active torsions:
REMARK  status: ('A' for Active; 'I' for Inactive)
REMARK    1  A    between atoms: C_1  and  C_2
REMARK    2  A    between atoms: C_3  and  C_12
REMARK    3  A    between atoms: C_14  and  C_19
REMARK    4  A    between atoms: C_16  and  C_17
REMARK    5  A    between atoms: C_16  and  C_18
REMARK    6  A    between atoms: C_19  and  C_20
REMARK    7  A    between atoms: N_22  and  C_23
REMARK    8  A    between atoms: N_22  and  C_29
REMARK    9  A    between atoms: C_23  and  C_24
REMARK   10  A    between atoms: C_29  and  C_35
REMARK   11  A    between atoms: N_37  and  C_38
REMARK   12  A    between atoms: C_41  and  O_44
REMARK   13  A    between atoms: O_44  and  C_45
REMARK                            x       y       z     vdW  Elec       q    Type
REMARK                         _______ _______ _______ _____ _____    ______ ____
ROOT
ATOM      1  C   UNL     1      -6.506   3.826  -1.364  0.00  0.00    +0.217 C 
ATOM      2  O   UNL     1      -6.380   4.801  -2.075  0.00  0.00    -0.276 OA
ATOM      3  N   UNL     1      -7.375   2.853  -1.703  0.00  0.00    -0.280 N 
ENDROOT
BRANCH   3   4
ATOM      4  C   UNL     1      -7.997   2.855  -3.029  0.00  0.00    +0.115 C 
ATOM      5  C   UNL     1      -6.906   2.862  -4.095  0.00  0.00    +0.046 C 
ATOM      6  C   UNL     1      -5.876   3.951  -3.782  0.00  0.00    +0.071 C 
ATOM      7  S   UNL     1      -6.704   5.568  -3.833  0.00  0.00    -0.161 S 
ATOM      8  C   UNL     1      -8.126   5.336  -2.724  0.00  0.00    +0.071 C 
ATOM      9  C   UNL     1      -8.891   4.084  -3.162  0.00  0.00    +0.046 C 
BRANCH   4  10
ATOM     10  C   UNL     1      -8.835   1.613  -3.186  0.00  0.00    +0.241 C 
ATOM     11  O   UNL     1      -9.945   1.687  -3.668  0.00  0.00    -0.273 OA
ATOM     12  N   UNL     1      -8.350   0.419  -2.790  0.00  0.00    -0.284 N 
ATOM     13  H   UNL     1      -7.518   0.373  -2.294  0.00  0.00    +0.155 HD
BRANCH  12  14
ATOM     14  C   UNL     1      -9.049  -0.757  -3.096  0.00  0.00    +0.034 A 
ATOM     15  C   UNL     1     -10.138  -0.714  -3.955  0.00  0.00    +0.027 A 
ATOM     16  C   UNL     1     -10.823  -1.874  -4.261  0.00  0.00    +0.047 A 
ATOM     17  C   UNL     1     -10.429  -3.080  -3.700  0.00  0.00    +0.120 A 
ATOM     18  C   UNL     1      -9.344  -3.123  -2.836  0.00  0.00    +0.047 A 
ATOM     19  C   UNL     1      -8.655  -1.964  -2.535  0.00  0.00    +0.027 A 
BRANCH  17  20
ATOM     20  O   UNL     1     -11.107  -4.221  -3.996  0.00  0.00    -0.495 OA
ATOM     21  C   UNL     1     -12.214  -4.104  -4.892  0.00  0.00    +0.277 C 
ENDBRANCH  17  20
ENDBRANCH  12  14
ENDBRANCH   4  10
ENDBRANCH   3   4
BRANCH   1  22
ATOM     22  C   UNL     1      -5.693   3.705  -0.101  0.00  0.00    +0.100 C 
BRANCH  22  24
ATOM     23  C   UNL     1      -3.170   4.391  -0.006  0.00  0.00    +0.031 C 
ATOM     24  C   UNL     1      -4.640   4.814  -0.064  0.00  0.00    +0.012 C 
ATOM     25  C   UNL     1      -3.843   4.990   1.231  0.00  0.00    -0.024 C 
ATOM     26  C   UNL     1      -4.160   4.044   2.390  0.00  0.00    +0.012 C 
ATOM     27  C   UNL     1      -3.449   6.414   1.630  0.00  0.00    +0.012 C 
BRANCH  23  30
ATOM     28  C   UNL     1      -3.845   2.363  -2.257  0.00  0.00    +0.063 C 
ATOM     29  C   UNL     1      -3.154   2.031  -0.960  0.00  0.00    +0.017 A 
ATOM     30  C   UNL     1      -2.871   2.914   0.011  0.00  0.00    -0.016 A 
ATOM     31  C   UNL     1      -2.201   2.174   1.082  0.00  0.00    +0.003 A 
ATOM     32  C   UNL     1      -1.664   2.531   2.321  0.00  0.00    +0.010 A 
ATOM     33  C   UNL     1      -1.089   1.577   3.112  0.00  0.00    +0.001 A 
ATOM     34  C   UNL     1      -1.034   0.254   2.694  0.00  0.00    +0.002 A 
ATOM     35  C   UNL     1      -1.556  -0.120   1.476  0.00  0.00    +0.026 A 
ATOM     36  C   UNL     1      -2.142   0.836   0.652  0.00  0.00    +0.047 A 
ATOM     37  N   UNL     1      -2.732   0.783  -0.591  0.00  0.00    -0.358 N 
ATOM     38  H   UNL     1      -2.834  -0.020  -1.126  0.00  0.00    +0.166 HD
ENDBRANCH  23  30
ENDBRANCH  22  24
ENDBRANCH   1  22
BRANCH   3  39
ATOM     39  C   UNL     1      -7.696   1.792  -0.745  0.00  0.00    +0.183 C 
BRANCH  39  40
ATOM     40  C   UNL     1      -8.513   2.366   0.385  0.00  0.00    +0.122 A 
ATOM     41  C   UNL     1      -9.856   2.420   0.436  0.00  0.00    +0.046 A 
ATOM     42  C   UNL     1     -10.195   3.030   1.665  0.00  0.00    +0.041 A 
ATOM     43  C   UNL     1      -9.039   3.320   2.288  0.00  0.00    +0.195 A 
ATOM     44  O   UNL     1      -8.023   2.916   1.508  0.00  0.00    -0.466 OA
ENDBRANCH  39  40
ENDBRANCH   3  39
TORSDOF 9
