REMARK  Name = ZINC39687489
REMARK  3 active torsions:
REMARK  status: ('A' for Active; 'I' for Inactive)
REMARK    1  A    between atoms: C_7  and  C_10
REMARK    2  A    between atoms: C_14  and  C_23
REMARK    3  A    between atoms: N_25  and  C_26
REMARK                            x       y       z     vdW  Elec       q    Type
REMARK                         _______ _______ _______ _____ _____    ______ ____
ROOT
ATOM      1  C   UNL     1       0.382  -3.101  -0.006  0.00  0.00    +0.248 C 
ATOM      2  O   UNL     1      -0.769  -2.724   0.114  0.00  0.00    -0.270 OA
ATOM      3  N   UNL     1       0.651  -4.417  -0.123  0.00  0.00    -0.296 N 
ATOM      4  C   UNL     1       1.980  -5.072  -0.152  0.00  0.00    +0.121 C 
ATOM      5  C   UNL     1       1.795  -6.365   0.673  0.00  0.00    +0.100 C 
ATOM      6  C   UNL     1       0.288  -6.664   0.602  0.00  0.00    -0.004 C 
ATOM      7  C   UNL     1      -0.315  -5.535  -0.246  0.00  0.00    +0.115 C 
ATOM      8  C   UNL     1      -0.320  -6.648   2.001  0.00  0.00    -0.010 C 
ATOM      9  C   UNL     1      -1.807  -7.003   1.910  0.00  0.00    -0.082 C 
ATOM     10  N   UNL     1      -1.957  -8.332   1.305  0.00  0.00    +0.379 N 
ATOM     11  C   UNL     1      -1.454  -8.315  -0.074  0.00  0.00    -0.082 C 
ATOM     12  C   UNL     1       0.048  -8.014  -0.067  0.00  0.00    -0.010 C 
ATOM     13  H   UNL     1      -1.435  -9.007   1.844  0.00  0.00    -0.086 HD
ATOM     14  H   UNL     1      -2.933  -8.590   1.302  0.00  0.00    -0.086 HD
ENDROOT
BRANCH   1  21
ATOM     15  C   UNL     1       0.321   0.991   1.862  0.00  0.00    +0.001 A 
ATOM     16  C   UNL     1       1.470   1.757   1.728  0.00  0.00    +0.001 A 
ATOM     17  C   UNL     1       2.556   1.247   1.044  0.00  0.00    +0.015 A 
ATOM     18  C   UNL     1       2.486  -0.020   0.503  0.00  0.00    +0.020 A 
ATOM     19  C   UNL     1       1.332  -0.817   0.625  0.00  0.00    +0.001 A 
ATOM     20  C   UNL     1       0.241  -0.270   1.327  0.00  0.00    +0.010 A 
ATOM     21  C   UNL     1       1.476  -2.123  -0.023  0.00  0.00    +0.052 A 
ATOM     22  C   UNL     1       2.654  -2.401  -0.640  0.00  0.00    +0.059 A 
ATOM     23  S   UNL     1       3.604  -1.036  -0.421  0.00  0.00    -0.096 S 
ENDBRANCH   1  21
BRANCH   5  24
ATOM     24  C   UNL     1       2.222  -6.142   2.101  0.00  0.00    +0.218 C 
ATOM     25  O   UNL     1       2.035  -5.066   2.628  0.00  0.00    -0.275 OA
ATOM     26  N   UNL     1       2.810  -7.138   2.792  0.00  0.00    -0.312 N 
ATOM     27  H   UNL     1       2.959  -7.999   2.370  0.00  0.00    +0.149 HD
BRANCH  26  28
ATOM     28  C   UNL     1       3.225  -6.921   4.180  0.00  0.00    +0.076 C 
ATOM     29  C   UNL     1       4.614  -6.279   4.203  0.00  0.00    +0.041 C 
ATOM     30  C   UNL     1       5.029  -6.022   5.655  0.00  0.00    +0.108 C 
ATOM     31  N   UNL     1       4.934  -7.282   6.405  0.00  0.00    -0.317 N 
ATOM     32  C   UNL     1       3.668  -8.027   6.375  0.00  0.00    +0.108 C 
ATOM     33  C   UNL     1       3.268  -8.262   4.915  0.00  0.00    +0.041 C 
ATOM     34  C   UNL     1       6.021  -7.760   7.128  0.00  0.00    +0.099 A 
ATOM     35  C   UNL     1       5.879  -8.899   7.915  0.00  0.00    +0.042 A 
ATOM     36  C   UNL     1       6.968  -9.363   8.628  0.00  0.00    +0.005 A 
ATOM     37  C   UNL     1       8.168  -8.671   8.531  0.00  0.00    +0.018 A 
ATOM     38  C   UNL     1       8.239  -7.549   7.731  0.00  0.00    +0.084 A 
ATOM     39  N   UNL     1       7.184  -7.131   7.057  0.00  0.00    -0.350 N 
ATOM     40  H   UNL     1       7.261  -6.341   6.499  0.00  0.00    +0.166 HD
ENDBRANCH  26  28
ENDBRANCH   5  24
TORSDOF 3
