REMARK  Name = ZINC45633337
REMARK  16 active torsions:
REMARK  status: ('A' for Active; 'I' for Inactive)
REMARK    1  A    between atoms: C_1  and  C_2
REMARK    2  A    between atoms: C_2  and  C_3
REMARK    3  A    between atoms: C_2  and  C_4
REMARK    4  A    between atoms: C_2  and  C_5
REMARK    5  A    between atoms: C_7  and  C_16
REMARK    6  A    between atoms: C_9  and  C_12
REMARK    7  A    between atoms: C_10  and  O_11
REMARK    8  A    between atoms: C_12  and  C_13
REMARK    9  A    between atoms: C_12  and  C_14
REMARK   10  A    between atoms: C_12  and  C_15
REMARK   11  A    between atoms: C_16  and  C_17
REMARK   12  A    between atoms: C_17  and  C_18
REMARK   13  A    between atoms: C_18  and  O_20
REMARK   14  A    between atoms: O_20  and  C_21
REMARK   15  A    between atoms: C_21  and  C_22
REMARK   16  A    between atoms: C_26  and  C_35
REMARK                            x       y       z     vdW  Elec       q    Type
REMARK                         _______ _______ _______ _____ _____    ______ ____
ROOT
ATOM      1  C   UNL     1       4.428   2.277  -4.899  0.00  0.00    +0.308 C 
ATOM      2  O   UNL     1       3.743   2.661  -5.817  0.00  0.00    -0.251 OA
ENDROOT
BRANCH   1   3
ATOM      3  C   UNL     1       3.876   1.281  -3.911  0.00  0.00    +0.125 C 
BRANCH   3   4
ATOM      4  C   UNL     1       2.440   0.922  -4.298  0.00  0.00    +0.046 C 
BRANCH   4   7
ATOM      5  C   UNL     1       0.721  -0.541  -1.272  0.00  0.00    -0.000 A 
ATOM      6  C   UNL     1       1.228   0.369  -2.179  0.00  0.00    +0.011 A 
ATOM      7  C   UNL     1       1.888  -0.073  -3.310  0.00  0.00    -0.046 A 
ATOM      8  C   UNL     1       2.042  -1.429  -3.538  0.00  0.00    +0.011 A 
ATOM      9  C   UNL     1       1.537  -2.344  -2.634  0.00  0.00    -0.000 A 
ATOM     10  C   UNL     1       0.879  -1.902  -1.496  0.00  0.00    +0.124 A 
BRANCH   5  12
ATOM     11  C   UNL     1      -0.034   1.472  -0.037  0.00  0.00    +0.015 C 
ATOM     12  C   UNL     1       0.002  -0.058  -0.040  0.00  0.00    -0.009 C 
ATOM     13  C   UNL     1       0.737  -0.554   1.207  0.00  0.00    +0.015 C 
ATOM     14  C   UNL     1      -1.429  -0.602  -0.037  0.00  0.00    +0.015 C 
ENDBRANCH   5  12
BRANCH   9  15
ATOM     15  C   UNL     1       1.705  -3.820  -2.883  0.00  0.00    -0.009 C 
ATOM     16  C   UNL     1       2.464  -4.034  -4.194  0.00  0.00    +0.015 C 
ATOM     17  C   UNL     1       2.493  -4.445  -1.730  0.00  0.00    +0.015 C 
ATOM     18  C   UNL     1       0.328  -4.482  -2.978  0.00  0.00    +0.015 C 
ENDBRANCH   9  15
BRANCH  10  19
ATOM     19  O   UNL     1       0.386  -2.800  -0.602  0.00  0.00    -0.506 OA
ATOM     20  H   UNL     1      -0.522  -3.077  -0.784  0.00  0.00    +0.292 HD
ENDBRANCH  10  19
ENDBRANCH   4   7
ENDBRANCH   3   4
ENDBRANCH   1   3
BRANCH   1  21
ATOM     21  O   UNL     1       5.681   2.738  -4.758  0.00  0.00    -0.455 OA
BRANCH  21  22
ATOM     22  C   UNL     1       6.139   3.680  -5.730  0.00  0.00    +0.328 C 
BRANCH  22  23
ATOM     23  C   UNL     1       7.556   4.082  -5.412  0.00  0.00    +0.258 C 
ATOM     24  O   UNL     1       8.086   3.682  -4.397  0.00  0.00    -0.272 OA
ATOM     25  N   UNL     1       8.234   4.885  -6.255  0.00  0.00    -0.261 N 
ATOM     26  C   UNL     1       7.576   5.491  -7.425  0.00  0.00    +0.168 C 
ATOM     27  C   UNL     1       8.057   6.946  -7.525  0.00  0.00    +0.276 C 
ATOM     28  O   UNL     1       9.482   6.953  -7.643  0.00  0.00    -0.476 OA
ATOM     29  C   UNL     1      10.194   6.213  -6.753  0.00  0.00    +0.143 A 
ATOM     30  C   UNL     1       9.593   5.177  -6.046  0.00  0.00    +0.078 A 
ATOM     31  C   UNL     1      10.333   4.432  -5.143  0.00  0.00    +0.027 A 
ATOM     32  C   UNL     1      11.669   4.725  -4.938  0.00  0.00    +0.002 A 
ATOM     33  C   UNL     1      12.265   5.760  -5.635  0.00  0.00    +0.004 A 
ATOM     34  C   UNL     1      11.536   6.496  -6.544  0.00  0.00    +0.047 A 
BRANCH  27  35
ATOM     35  C   UNL     1       7.444   7.599  -8.736  0.00  0.00    +0.253 C 
ATOM     36  O   UNL     1       8.150   7.958  -9.654  0.00  0.00    -0.272 OA
ATOM     37  N   UNL     1       6.110   7.783  -8.800  0.00  0.00    -0.326 N 
ATOM     38  H   UNL     1       5.545   7.496  -8.066  0.00  0.00    +0.145 HD
ATOM     39  H   UNL     1       5.715   8.204  -9.580  0.00  0.00    +0.145 HD
ENDBRANCH  27  35
ENDBRANCH  22  23
ENDBRANCH  21  22
ENDBRANCH   1  21
TORSDOF 10
