REMARK  Name = ZINC13899106
REMARK  6 active torsions:
REMARK  status: ('A' for Active; 'I' for Inactive)
REMARK    1  A    between atoms: C_4  and  C_7
REMARK    2  A    between atoms: C_7  and  N_8
REMARK    3  A    between atoms: C_26  and  C_32
REMARK    4  A    between atoms: C_26  and  C_34
REMARK    5  A    between atoms: C_27  and  N_31
REMARK    6  A    between atoms: C_28  and  C_29
REMARK                            x       y       z     vdW  Elec       q    Type
REMARK                         _______ _______ _______ _____ _____    ______ ____
ROOT
ATOM      1  N   UNL     1      -2.178   2.380  -3.641  0.00  0.00    +0.383 N 
ATOM      2  C   UNL     1      -2.687   1.009  -3.758  0.00  0.00    -0.078 C 
ATOM      3  C   UNL     1      -3.454   0.618  -2.490  0.00  0.00    -0.010 C 
ATOM      4  C   UNL     1      -2.514   0.754  -1.294  0.00  0.00    +0.032 C 
ATOM      5  C   UNL     1      -2.024   2.202  -1.217  0.00  0.00    +0.003 C 
ATOM      6  C   UNL     1      -1.259   2.519  -2.500  0.00  0.00    -0.073 C 
ATOM      7  C   UNL     1      -1.148   2.352   0.019  0.00  0.00    +0.112 C 
ATOM      8  C   UNL     1      -0.017   1.374   0.010  0.00  0.00    -0.008 A 
ATOM      9  C   UNL     1       0.002  -0.004   0.002  0.00  0.00    +0.006 A 
ATOM     10  C   UNL     1       1.250  -0.619  -0.013  0.00  0.00    +0.000 A 
ATOM     11  C   UNL     1       2.415   0.121  -0.021  0.00  0.00    +0.002 A 
ATOM     12  C   UNL     1       2.405   1.507  -0.014  0.00  0.00    +0.023 A 
ATOM     13  C   UNL     1       1.159   2.136   0.003  0.00  0.00    +0.038 A 
ATOM     14  N   UNL     1       0.857   3.486   0.013  0.00  0.00    -0.284 N 
ATOM     15  C   UNL     1      -0.474   3.707   0.026  0.00  0.00    +0.231 C 
ATOM     16  O   UNL     1      -1.026   4.787   0.038  0.00  0.00    -0.274 OA
ATOM     17  C   UNL     1      -2.008   2.190   1.271  0.00  0.00    +0.198 C 
ATOM     18  C   UNL     1      -2.932   1.014   1.142  0.00  0.00    +0.051 C 
ATOM     19  C   UNL     1      -3.176   0.374  -0.007  0.00  0.00    +0.052 C 
ATOM     20  H   UNL     1       1.667   4.231   0.009  0.00  0.00    +0.155 HD
ATOM     21  H   UNL     1      -3.040   3.037  -3.457  0.00  0.00    -0.081 HD
ENDROOT
BRANCH  18  22
ATOM     22  N   UNL     1      -3.565   0.569   2.273  0.00  0.00    -0.358 N 
ATOM     23  H   UNL     1      -4.250  -0.290   2.217  0.00  0.00    +0.142 HD
ATOM     24  H   UNL     1      -3.389   1.070   3.236  0.00  0.00    +0.142 HD
ENDBRANCH  18  22
BRANCH  19  25
ATOM     25  C   UNL     1      -4.107  -0.714  -0.005  0.00  0.00    +0.097 C 
ATOM     26  N   UNL     1      -4.845  -1.577  -0.004  0.00  0.00    -0.191 NA
ENDBRANCH  19  25
BRANCH  17  27
ATOM     27  C   UNL     1      -1.131   1.990   2.437  0.00  0.00    +0.092 C 
ATOM     28  N   UNL     1      -0.455   1.835   3.336  0.00  0.00    -0.194 NA
ENDBRANCH  17  27
BRANCH  17  29
ATOM     29  C   UNL     1      -2.804   3.411   1.471  0.00  0.00    +0.092 C 
ATOM     30  N   UNL     1      -3.420   4.354   1.626  0.00  0.00    -0.194 NA
ENDBRANCH  17  29
BRANCH   1  31
ATOM     31  C   UNL     1      -1.536   2.811  -4.891  0.00  0.00    -0.043 C 
BRANCH  31  35
ATOM     32  C   UNL     1       1.976   0.475  -5.568  0.00  0.00    +0.000 A 
ATOM     33  C   UNL     1       0.758   0.053  -6.068  0.00  0.00    +0.000 A 
ATOM     34  C   UNL     1      -0.379   0.809  -5.849  0.00  0.00    +0.002 A 
ATOM     35  C   UNL     1      -0.297   1.987  -5.129  0.00  0.00    -0.064 A 
ATOM     36  C   UNL     1       0.922   2.411  -4.634  0.00  0.00    +0.002 A 
ATOM     37  C   UNL     1       2.057   1.652  -4.849  0.00  0.00    +0.000 A 
ENDBRANCH  31  35
ENDBRANCH   1  31
TORSDOF 6
