REMARK  Name = ZINC57374810
REMARK  3 active torsions:
REMARK  status: ('A' for Active; 'I' for Inactive)
REMARK    1  A    between atoms: C_4  and  C_7
REMARK    2  A    between atoms: C_12  and  C_13
REMARK    3  A    between atoms: C_17  and  N_19
REMARK                            x       y       z     vdW  Elec       q    Type
REMARK                         _______ _______ _______ _____ _____    ______ ____
ROOT
ATOM      1  C   UNL     1       3.910  -0.654  -0.028  0.00  0.00    +0.130 C 
ATOM      2  C   UNL     1       4.278  -1.075  -1.428  0.00  0.00    -0.024 C 
ATOM      3  C   UNL     1       4.294  -2.364  -1.773  0.00  0.00    +0.037 C 
ATOM      4  C   UNL     1       4.665  -2.778  -3.140  0.00  0.00    -0.026 C 
ATOM      5  C   UNL     1       4.892  -4.071  -3.432  0.00  0.00    +0.013 C 
ATOM      6  C   UNL     1       4.784  -1.710  -4.205  0.00  0.00    +0.037 C 
ATOM      7  C   UNL     1       5.486  -0.509  -3.554  0.00  0.00    +0.009 C 
ATOM      8  C   UNL     1       4.615   0.014  -2.417  0.00  0.00    +0.035 C 
ATOM      9  N   UNL     1       3.960  -3.362  -0.851  0.00  0.00    -0.297 N 
ATOM     10  C   UNL     1       3.619  -3.052   0.409  0.00  0.00    +0.135 C 
ATOM     11  S   UNL     1       3.216  -4.306   1.502  0.00  0.00    -0.019 S 
ATOM     12  N   UNL     1       3.587  -1.782   0.826  0.00  0.00    -0.316 N 
ATOM     13  H   UNL     1       3.975  -4.292  -1.127  0.00  0.00    +0.154 HD
ATOM     14  H   UNL     1       3.336  -1.608   1.746  0.00  0.00    +0.149 HD
ENDROOT
BRANCH   1  18
ATOM     15  C   UNL     1       0.528   1.949  -0.215  0.00  0.00    +0.000 A 
ATOM     16  C   UNL     1       1.801   2.477  -0.098  0.00  0.00    +0.000 A 
ATOM     17  C   UNL     1       2.895   1.634  -0.037  0.00  0.00    +0.006 A 
ATOM     18  C   UNL     1       2.717   0.265  -0.093  0.00  0.00    -0.023 A 
ATOM     19  C   UNL     1       1.445  -0.263  -0.209  0.00  0.00    +0.006 A 
ATOM     20  C   UNL     1       0.350   0.580  -0.272  0.00  0.00    +0.000 A 
ENDBRANCH   1  18
BRANCH   5  21
ATOM     21  C   UNL     1       5.092  -4.487  -4.831  0.00  0.00    -0.023 A 
ATOM     22  C   UNL     1       4.425  -3.821  -5.864  0.00  0.00    +0.008 A 
ATOM     23  C   UNL     1       4.618  -4.215  -7.171  0.00  0.00    +0.003 A 
ATOM     24  C   UNL     1       5.469  -5.267  -7.462  0.00  0.00    +0.033 A 
ATOM     25  C   UNL     1       6.133  -5.931  -6.445  0.00  0.00    +0.127 A 
ATOM     26  C   UNL     1       5.954  -5.544  -5.133  0.00  0.00    +0.040 A 
BRANCH  25  27
ATOM     27  N   UNL     1       7.042  -7.054  -6.766  0.00  0.00    +0.056 N 
ATOM     28  O   UNL     1       7.203  -7.391  -7.916  0.00  0.00    -0.126 OA
ATOM     29  O   UNL     1       7.622  -7.635  -5.879  0.00  0.00    -0.126 OA
ENDBRANCH  25  27
ENDBRANCH   5  21
TORSDOF 3
