REMARK  Name = ZINC04117187
REMARK  7 active torsions:
REMARK  status: ('A' for Active; 'I' for Inactive)
REMARK    1  A    between atoms: C_1  and  O_2
REMARK    2  A    between atoms: O_2  and  C_3
REMARK    3  A    between atoms: C_6  and  C_9
REMARK    4  A    between atoms: C_11  and  C_31
REMARK    5  A    between atoms: C_12  and  N_30
REMARK    6  A    between atoms: N_13  and  C_21
REMARK    7  A    between atoms: C_26  and  N_27
REMARK                            x       y       z     vdW  Elec       q    Type
REMARK                         _______ _______ _______ _____ _____    ______ ____
ROOT
ATOM      1  C   UNL     1       1.220   2.168   0.005  0.00  0.00    +0.097 C 
ATOM      2  C   UNL     1      -0.050   1.369   0.026  0.00  0.00    +0.077 C 
ATOM      3  C   UNL     1      -0.025   0.011   0.003  0.00  0.00    +0.107 C 
ATOM      4  N   UNL     1       1.178  -0.657  -0.050  0.00  0.00    -0.258 N 
ATOM      5  C   UNL     1       2.311  -0.015  -0.476  0.00  0.00    +0.025 C 
ATOM      6  C   UNL     1       2.381   1.333  -0.473  0.00  0.00    +0.025 C 
ATOM      7  C   UNL     1       3.539   1.999  -0.909  0.00  0.00    +0.162 C 
ATOM      8  O   UNL     1       3.563   3.214  -0.912  0.00  0.00    -0.292 OA
ATOM      9  C   UNL     1       4.750   1.236  -1.375  0.00  0.00    +0.080 C 
ATOM     10  C   UNL     1       4.786  -0.121  -0.665  0.00  0.00    +0.014 C 
ATOM     11  C   UNL     1       3.473  -0.853  -0.952  0.00  0.00    +0.052 C 
ENDROOT
BRANCH   1  15
ATOM     12  C   UNL     1       2.045   3.592   3.949  0.00  0.00    +0.120 A 
ATOM     13  C   UNL     1       1.761   4.490   2.931  0.00  0.00    +0.046 A 
ATOM     14  C   UNL     1       1.495   4.028   1.657  0.00  0.00    +0.008 A 
ATOM     15  C   UNL     1       1.511   2.670   1.396  0.00  0.00    -0.034 A 
ATOM     16  C   UNL     1       1.787   1.772   2.410  0.00  0.00    +0.008 A 
ATOM     17  C   UNL     1       2.060   2.230   3.684  0.00  0.00    +0.046 A 
BRANCH  12  19
ATOM     18  C   UNL     1       2.590   3.062   6.202  0.00  0.00    +0.277 C 
ATOM     19  O   UNL     1       2.307   4.045   5.203  0.00  0.00    -0.495 OA
ENDBRANCH  12  19
ENDBRANCH   1  15
BRANCH   4  20
ATOM     20  C   UNL     1       1.243  -2.001   0.335  0.00  0.00    +0.070 A 
ATOM     21  C   UNL     1       1.587  -2.336   1.639  0.00  0.00    +0.026 A 
ATOM     22  C   UNL     1       1.651  -3.663   2.015  0.00  0.00    +0.002 A 
ATOM     23  C   UNL     1       1.372  -4.658   1.096  0.00  0.00    +0.002 A 
ATOM     24  C   UNL     1       1.030  -4.328  -0.202  0.00  0.00    +0.034 A 
ATOM     25  C   UNL     1       0.959  -3.002  -0.584  0.00  0.00    +0.148 A 
BRANCH  25  26
ATOM     26  N   UNL     1       0.586  -2.650  -1.972  0.00  0.00    +0.058 N 
ATOM     27  O   UNL     1       0.237  -3.521  -2.749  0.00  0.00    -0.126 OA
ATOM     28  O   UNL     1       0.627  -1.489  -2.338  0.00  0.00    -0.126 OA
ENDBRANCH  25  26
ENDBRANCH   4  20
BRANCH   3  29
ATOM     29  N   UNL     1      -1.203  -0.697   0.032  0.00  0.00    -0.345 N 
ATOM     30  H   UNL     1      -2.050  -0.228   0.069  0.00  0.00    +0.144 HD
ATOM     31  H   UNL     1      -1.186  -1.667   0.015  0.00  0.00    +0.144 HD
ENDBRANCH   3  29
BRANCH   2  32
ATOM     32  C   UNL     1      -1.309   2.049   0.067  0.00  0.00    +0.099 C 
ATOM     33  N   UNL     1      -2.308   2.589   0.099  0.00  0.00    -0.191 NA
ENDBRANCH   2  32
TORSDOF 6
