REMARK  Name = ZINC36659756
REMARK  8 active torsions:
REMARK  status: ('A' for Active; 'I' for Inactive)
REMARK    1  A    between atoms: C_1  and  C_2
REMARK    2  A    between atoms: C_2  and  S_3
REMARK    3  A    between atoms: S_3  and  C_4
REMARK    4  A    between atoms: C_7  and  C_10
REMARK    5  A    between atoms: C_10  and  C_11
REMARK    6  A    between atoms: C_17  and  C_19
REMARK    7  A    between atoms: N_22  and  S_25
REMARK    8  A    between atoms: S_25  and  C_28
REMARK                            x       y       z     vdW  Elec       q    Type
REMARK                         _______ _______ _______ _____ _____    ______ ____
ROOT
ATOM      1  C   UNL     1      -0.981  -7.140   1.394  0.00  0.00    +0.223 A 
ATOM      2  N   UNL     1      -1.993  -7.519   2.119  0.00  0.00    -0.111 NA
ATOM      3  N   UNL     1      -1.575  -7.892   3.278  0.00  0.00    -0.092 NA
ATOM      4  C   UNL     1      -0.273  -7.764   3.331  0.00  0.00    +0.314 A 
ATOM      5  O   UNL     1       0.131  -7.290   2.138  0.00  0.00    -0.409 OA
ATOM      6  N   UNL     1       0.540  -8.065   4.414  0.00  0.00    -0.238 N 
ATOM      7  C   UNL     1      -0.003  -8.540   5.552  0.00  0.00    +0.224 C 
ATOM      8  O   UNL     1      -1.202  -8.705   5.629  0.00  0.00    -0.275 OA
ATOM      9  H   UNL     1       1.499  -7.933   4.352  0.00  0.00    +0.159 HD
ENDROOT
BRANCH   7  10
ATOM     10  C   UNL     1       0.879  -8.867   6.729  0.00  0.00    +0.078 C 
ATOM     11  C   UNL     1       1.626  -7.607   7.172  0.00  0.00    +0.030 C 
ATOM     12  C   UNL     1       2.548  -7.951   8.346  0.00  0.00    +0.110 C 
ATOM     13  N   UNL     1       1.750  -8.583   9.405  0.00  0.00    -0.177 NA
ATOM     14  C   UNL     1       0.922  -9.749   9.066  0.00  0.00    +0.110 C 
ATOM     15  C   UNL     1       0.019  -9.385   7.884  0.00  0.00    +0.030 C 
BRANCH  13  16
ATOM     16  S   UNL     1       1.782  -7.993  10.952  0.00  0.00    +0.061 S 
ATOM     17  O   UNL     1       1.411  -9.067  11.805  0.00  0.00    -0.153 OA
ATOM     18  O   UNL     1       3.012  -7.296  11.096  0.00  0.00    -0.153 OA
BRANCH  16  19
ATOM     19  C   UNL     1       0.503  -6.787  11.076  0.00  0.00    +0.106 A 
ATOM     20  C   UNL     1       0.771  -5.463  10.778  0.00  0.00    +0.030 A 
ATOM     21  C   UNL     1      -0.232  -4.517  10.876  0.00  0.00    +0.022 A 
ATOM     22  C   UNL     1      -1.503  -4.894  11.271  0.00  0.00    +0.041 A 
ATOM     23  C   UNL     1      -1.770  -6.218  11.569  0.00  0.00    +0.022 A 
ATOM     24  C   UNL     1      -0.768  -7.165  11.466  0.00  0.00    +0.030 A 
ATOM     25 CL   UNL     1      -2.762  -3.705  11.394  0.00  0.00    -0.084 Cl
ENDBRANCH  16  19
ENDBRANCH  13  16
ENDBRANCH   7  10
BRANCH   1  26
ATOM     26  C   UNL     1      -1.043  -6.632  -0.024  0.00  0.00    +0.132 C 
BRANCH  26  30
ATOM     27  C   UNL     1      -1.508  -2.383   0.004  0.00  0.00    +0.008 A 
ATOM     28  C   UNL     1      -0.237  -2.945  -0.006  0.00  0.00    +0.015 A 
ATOM     29  C   UNL     1      -0.090  -4.318  -0.015  0.00  0.00    +0.005 A 
ATOM     30  C   UNL     1      -1.207  -5.134  -0.014  0.00  0.00    -0.038 A 
ATOM     31  C   UNL     1      -2.474  -4.579  -0.005  0.00  0.00    +0.005 A 
ATOM     32  C   UNL     1      -2.628  -3.207   0.010  0.00  0.00    +0.015 A 
BRANCH  27  33
ATOM     33  S   UNL     1      -1.700  -0.632   0.015  0.00  0.00    -0.125 S 
BRANCH  33  35
ATOM     34  C   UNL     1      -0.019   1.526   0.010  0.00  0.00    +0.015 C 
ATOM     35  C   UNL     1       0.002  -0.004   0.002  0.00  0.00    +0.071 C 
ENDBRANCH  33  35
ENDBRANCH  27  33
ENDBRANCH  26  30
ENDBRANCH   1  26
TORSDOF 7
