REMARK  Name = ZINC39147117
REMARK  6 active torsions:
REMARK  status: ('A' for Active; 'I' for Inactive)
REMARK    1  A    between atoms: C_1  and  C_2
REMARK    2  A    between atoms: C_8  and  C_11
REMARK    3  A    between atoms: C_11  and  C_12
REMARK    4  A    between atoms: C_12  and  N_13
REMARK    5  A    between atoms: C_15  and  C_20
REMARK    6  A    between atoms: C_26  and  C_29
REMARK                            x       y       z     vdW  Elec       q    Type
REMARK                         _______ _______ _______ _____ _____    ______ ____
ROOT
ATOM      1  N   UNL     1       2.745   1.103  -6.445  0.00  0.00    -0.300 N 
ATOM      2  C   UNL     1       3.094   1.372  -7.845  0.00  0.00    +0.121 C 
ATOM      3  C   UNL     1       4.619   1.621  -7.849  0.00  0.00    +0.101 C 
ATOM      4  C   UNL     1       5.069   0.838  -6.594  0.00  0.00    +0.110 C 
ATOM      5  C   UNL     1       3.835   0.800  -5.719  0.00  0.00    +0.216 C 
ATOM      6  O   UNL     1       3.830   0.533  -4.536  0.00  0.00    -0.276 OA
ENDROOT
BRANCH   3   7
ATOM      7  C   UNL     1       5.254   1.057  -9.094  0.00  0.00    +0.224 C 
ATOM      8  O   UNL     1       4.569   0.498  -9.924  0.00  0.00    -0.275 OA
ATOM      9  N   UNL     1       6.583   1.173  -9.284  0.00  0.00    -0.263 N 
ATOM     10  C   UNL     1       7.170   0.653 -10.434  0.00  0.00    +0.179 C 
ATOM     11  N   UNL     1       6.591   0.036 -11.417  0.00  0.00    -0.163 NA
ATOM     12  N   UNL     1       7.271  -0.442 -12.515  0.00  0.00    -0.253 N 
ATOM     13  C   UNL     1       8.732  -0.204 -12.505  0.00  0.00    +0.157 C 
ATOM     14  S   UNL     1       8.893   0.685 -10.901  0.00  0.00    -0.065 S 
ATOM     15  H   UNL     1       7.131   1.620  -8.620  0.00  0.00    +0.157 HD
ATOM     16  H   UNL     1       6.824  -0.901 -13.243  0.00  0.00    +0.169 HD
BRANCH  13  17
ATOM     17  C   UNL     1       9.160   0.684 -13.675  0.00  0.00    +0.021 C 
ATOM     18  C   UNL     1       8.677   0.065 -14.988  0.00  0.00    +0.006 C 
ATOM     19  C   UNL     1       9.105   0.953 -16.158  0.00  0.00    +0.000 C 
ATOM     20  C   UNL     1      10.631   1.068 -16.179  0.00  0.00    +0.000 C 
ATOM     21  C   UNL     1      11.114   1.687 -14.866  0.00  0.00    +0.000 C 
ATOM     22  C   UNL     1      10.686   0.799 -13.696  0.00  0.00    +0.006 C 
ENDBRANCH  13  17
ENDBRANCH   3   7
BRANCH   1  23
ATOM     23  C   UNL     1       1.384   1.162  -5.906  0.00  0.00    +0.112 C 
BRANCH  23  24
ATOM     24  C   UNL     1       1.093   2.580  -5.410  0.00  0.00    +0.056 C 
BRANCH  24  32
ATOM     25  C   UNL     1      -0.013   1.086   0.008  0.00  0.00    +0.044 C 
ATOM     26  C   UNL     1      -0.742   1.585  -1.213  0.00  0.00    -0.050 A 
ATOM     27  C   UNL     1      -2.112   1.796  -1.158  0.00  0.00    +0.005 A 
ATOM     28  C   UNL     1      -2.798   2.251  -2.263  0.00  0.00    +0.026 A 
ATOM     29  C   UNL     1      -2.112   2.504  -3.446  0.00  0.00    +0.047 A 
ATOM     30  N   UNL     1      -2.498   2.952  -4.689  0.00  0.00    -0.360 N 
ATOM     31  C   UNL     1      -1.411   3.028  -5.516  0.00  0.00    +0.087 A 
ATOM     32  C   UNL     1      -0.307   2.641  -4.856  0.00  0.00    -0.021 A 
ATOM     33  C   UNL     1      -0.722   2.289  -3.496  0.00  0.00    +0.003 A 
ATOM     34  C   UNL     1      -0.047   1.832  -2.363  0.00  0.00    +0.013 A 
ATOM     35  H   UNL     1      -3.407   3.180  -4.942  0.00  0.00    +0.165 HD
ENDBRANCH  24  32
ENDBRANCH  23  24
ENDBRANCH   1  23
TORSDOF 5
