REMARK  Name = ZINC24713275
REMARK  9 active torsions:
REMARK  status: ('A' for Active; 'I' for Inactive)
REMARK    1  A    between atoms: C_1  and  C_2
REMARK    2  A    between atoms: C_2  and  C_3
REMARK    3  A    between atoms: C_3  and  C_4
REMARK    4  A    between atoms: C_4  and  N_5
REMARK    5  A    between atoms: C_6  and  C_24
REMARK    6  A    between atoms: N_16  and  C_17
REMARK    7  A    between atoms: C_17  and  C_18
REMARK    8  A    between atoms: C_24  and  S_25
REMARK    9  A    between atoms: S_25  and  C_26
REMARK                            x       y       z     vdW  Elec       q    Type
REMARK                         _______ _______ _______ _____ _____    ______ ____
ROOT
ATOM      1  N   UNL     1      -1.413  -1.998   0.005  0.00  0.00    -0.321 N 
ATOM      2  C   UNL     1      -1.419  -2.794  -1.082  0.00  0.00    +0.123 A 
ATOM      3  N   UNL     1      -1.392  -4.049  -0.711  0.00  0.00    -0.213 NA
ATOM      4  C   UNL     1      -1.379  -4.126   0.622  0.00  0.00    +0.169 A 
ATOM      5  C   UNL     1      -1.392  -2.826   1.110  0.00  0.00    +0.151 A 
ATOM      6  C   UNL     1      -1.381  -2.615   2.506  0.00  0.00    +0.280 A 
ATOM      7  O   UNL     1      -1.393  -1.484   2.958  0.00  0.00    -0.265 OA
ATOM      8  N   UNL     1      -1.359  -3.680   3.333  0.00  0.00    -0.273 N 
ATOM      9  H   UNL     1      -1.350  -3.531   4.423  0.00  0.00    +0.173 HD
ATOM     10  C   UNL     1      -1.347  -4.934   2.847  0.00  0.00    +0.331 A 
ATOM     11  O   UNL     1      -1.327  -5.870   3.623  0.00  0.00    -0.246 OA
ATOM     12  N   UNL     1      -1.357  -5.178   1.523  0.00  0.00    -0.272 N 
ENDROOT
BRANCH   1  13
ATOM     13  C   UNL     1      -1.433  -0.534   0.013  0.00  0.00    +0.124 C 
BRANCH  13  14
ATOM     14  C   UNL     1       0.002  -0.004   0.002  0.00  0.00    +0.021 C 
BRANCH  14  16
ATOM     15  C   UNL     1       1.417   2.055  -0.000  0.00  0.00    +0.004 C 
ATOM     16  C   UNL     1      -0.019   1.526   0.010  0.00  0.00    -0.002 C 
ENDBRANCH  14  16
ENDBRANCH  13  14
ENDBRANCH   1  13
BRANCH  12  17
ATOM     17  C   UNL     1      -1.344  -6.559   1.034  0.00  0.00    +0.163 C 
BRANCH  17  18
ATOM     18  C   UNL     1      -2.760  -7.051   0.881  0.00  0.00    -0.028 A 
ATOM     19  C   UNL     1      -3.392  -7.681   1.937  0.00  0.00    +0.005 A 
ATOM     20  C   UNL     1      -4.693  -8.127   1.797  0.00  0.00    +0.000 A 
ATOM     21  C   UNL     1      -5.358  -7.954   0.598  0.00  0.00    +0.000 A 
ATOM     22  C   UNL     1      -4.725  -7.329  -0.460  0.00  0.00    +0.000 A 
ATOM     23  C   UNL     1      -3.426  -6.878  -0.319  0.00  0.00    +0.005 A 
ENDBRANCH  17  18
ENDBRANCH  12  17
BRANCH   2  24
ATOM     24  C   UNL     1      -1.447  -2.312  -2.510  0.00  0.00    +0.151 C 
BRANCH  24  25
ATOM     25  S   UNL     1       0.248  -2.096  -3.107  0.00  0.00    -0.078 S 
BRANCH  25  26
ATOM     26  C   UNL     1      -0.074  -1.544  -4.749  0.00  0.00    +0.191 A 
ATOM     27  N   UNL     1       0.945  -1.258  -5.552  0.00  0.00    -0.207 NA
ATOM     28  C   UNL     1       0.765  -0.845  -6.795  0.00  0.00    +0.129 A 
ATOM     29  C   UNL     1      -0.559  -0.688  -7.292  0.00  0.00    +0.047 A 
ATOM     30  C   UNL     1      -1.012  -0.249  -8.602  0.00  0.00    +0.021 A 
ATOM     31  C   UNL     1      -2.327  -0.177  -8.849  0.00  0.00    +0.048 A 
ATOM     32  S   UNL     1      -3.069  -0.702  -7.316  0.00  0.00    -0.077 S 
ATOM     33  C   UNL     1      -1.591  -1.004  -6.383  0.00  0.00    +0.114 A 
ATOM     34  N   UNL     1      -1.329  -1.417  -5.158  0.00  0.00    -0.215 NA
ATOM     35  N   UNL     1       1.853  -0.563  -7.601  0.00  0.00    -0.343 N 
ATOM     36  H   UNL     1       1.697  -0.219  -8.634  0.00  0.00    +0.144 HD
ATOM     37  H   UNL     1       2.873  -0.682  -7.209  0.00  0.00    +0.144 HD
ENDBRANCH  25  26
ENDBRANCH  24  25
ENDBRANCH   2  24
TORSDOF 8
