REMARK  Name = ZINC22178936
REMARK  9 active torsions:
REMARK  status: ('A' for Active; 'I' for Inactive)
REMARK    1  A    between atoms: C_1  and  C_2
REMARK    2  A    between atoms: C_6  and  C_9
REMARK    3  A    between atoms: C_7  and  N_8
REMARK    4  A    between atoms: C_9  and  O_11
REMARK    5  A    between atoms: O_11  and  C_12
REMARK    6  A    between atoms: C_12  and  C_13
REMARK    7  A    between atoms: N_15  and  C_16
REMARK    8  A    between atoms: C_20  and  S_22
REMARK    9  A    between atoms: S_22  and  N_25
REMARK                            x       y       z     vdW  Elec       q    Type
REMARK                         _______ _______ _______ _____ _____    ______ ____
ROOT
ATOM      1  C   UNL     1       1.548  -6.586   5.906  0.00  0.00    +0.255 C 
ATOM      2  O   UNL     1       2.297  -7.200   6.636  0.00  0.00    -0.272 OA
ATOM      3  N   UNL     1       0.902  -7.225   4.911  0.00  0.00    -0.283 N 
ATOM      4  H   UNL     1       0.361  -6.723   4.282  0.00  0.00    +0.155 HD
ENDROOT
BRANCH   3   5
ATOM      5  C   UNL     1       1.011  -8.615   4.785  0.00  0.00    +0.035 A 
ATOM      6  C   UNL     1       0.999  -9.203   3.527  0.00  0.00    +0.023 A 
ATOM      7  C   UNL     1       1.107 -10.574   3.406  0.00  0.00    +0.004 A 
ATOM      8  C   UNL     1       1.227 -11.362   4.537  0.00  0.00    +0.029 A 
ATOM      9  C   UNL     1       1.239 -10.780   5.791  0.00  0.00    +0.114 A 
ATOM     10  C   UNL     1       1.138  -9.408   5.918  0.00  0.00    +0.052 A 
BRANCH   9  11
ATOM     11  S   UNL     1       1.391 -11.788   7.228  0.00  0.00    +0.100 S 
ATOM     12  O   UNL     1       0.829 -11.050   8.303  0.00  0.00    -0.146 OA
ATOM     13  O   UNL     1       0.928 -13.082   6.867  0.00  0.00    -0.146 OA
BRANCH  11  14
ATOM     14  N   UNL     1       3.009 -11.938   7.551  0.00  0.00    -0.118 NA
ATOM     15  C   UNL     1       3.403 -12.636   8.566  0.00  0.00    +0.117 C 
ATOM     16  C   UNL     1       2.380 -13.328   9.463  0.00  0.00    +0.073 C 
ATOM     17  C   UNL     1       2.514 -14.818   9.232  0.00  0.00    +0.008 C 
ATOM     18  C   UNL     1       3.550 -15.484  10.139  0.00  0.00    +0.002 C 
ATOM     19  C   UNL     1       4.837 -14.671  10.277  0.00  0.00    +0.019 C 
ATOM     20  C   UNL     1       5.318 -14.087   8.966  0.00  0.00    +0.102 C 
ATOM     21  N   UNL     1       4.690 -12.757   8.825  0.00  0.00    -0.331 N 
ATOM     22  H   UNL     1       5.235 -11.960   8.927  0.00  0.00    +0.147 HD
ENDBRANCH  11  14
ENDBRANCH   9  11
ENDBRANCH   3   5
BRANCH   1  23
ATOM     23  C   UNL     1       1.339  -5.108   6.113  0.00  0.00    +0.328 C 
BRANCH  23  24
ATOM     24  O   UNL     1       2.126  -4.665   7.220  0.00  0.00    -0.452 OA
BRANCH  24  25
ATOM     25  C   UNL     1       2.053  -3.358   7.540  0.00  0.00    +0.341 C 
ATOM     26  O   UNL     1       1.339  -2.614   6.896  0.00  0.00    -0.245 OA
BRANCH  25  32
ATOM     27  C   UNL     1       3.629   0.511  10.291  0.00  0.00    +0.045 C 
ATOM     28  C   UNL     1       3.602  -0.968  10.002  0.00  0.00    -0.029 A 
ATOM     29  C   UNL     1       4.315  -1.839  10.798  0.00  0.00    +0.005 A 
ATOM     30  C   UNL     1       4.297  -3.201  10.541  0.00  0.00    +0.001 A 
ATOM     31  C   UNL     1       3.566  -3.700   9.486  0.00  0.00    +0.017 A 
ATOM     32  C   UNL     1       2.837  -2.831   8.669  0.00  0.00    +0.080 A 
ATOM     33  C   UNL     1       2.853  -1.452   8.937  0.00  0.00    +0.042 A 
BRANCH  33  34
ATOM     34  N   UNL     1       2.129  -0.578   8.137  0.00  0.00    -0.357 N 
ATOM     35  H   UNL     1       2.221   0.380   8.259  0.00  0.00    +0.142 HD
ATOM     36  H   UNL     1       1.531  -0.925   7.457  0.00  0.00    +0.142 HD
ENDBRANCH  33  34
ENDBRANCH  25  32
ENDBRANCH  24  25
ENDBRANCH  23  24
ENDBRANCH   1  23
TORSDOF 8
