REMARK  Name = ZINC16440170
REMARK  3 active torsions:
REMARK  status: ('A' for Active; 'I' for Inactive)
REMARK    1  A    between atoms: C_4  and  N_24
REMARK    2  A    between atoms: C_6  and  C_7
REMARK    3  A    between atoms: C_8  and  C_9
REMARK                            x       y       z     vdW  Elec       q    Type
REMARK                         _______ _______ _______ _____ _____    ______ ____
ROOT
ATOM      1  C   UNL     1       2.372   5.589   0.219  0.00  0.00    +0.154 A 
ATOM      2  N   UNL     1       3.563   6.249   0.313  0.00  0.00    -0.190 NA
ATOM      3  C   UNL     1       3.623   7.593   0.423  0.00  0.00    +0.282 A 
ATOM      4  O   UNL     1       4.689   8.170   0.506  0.00  0.00    -0.265 OA
ATOM      5  C   UNL     1       2.334   8.345   0.440  0.00  0.00    +0.075 A 
ATOM      6  C   UNL     1       2.106   9.699   0.540  0.00  0.00    -0.023 A 
ATOM      7  C   UNL     1       0.762  10.132   0.531  0.00  0.00    -0.004 A 
ATOM      8  S   UNL     1      -0.194   8.708   0.384  0.00  0.00    -0.075 S 
ATOM      9  C   UNL     1       1.113   7.511   0.331  0.00  0.00    +0.092 A 
ATOM     10  N   UNL     1       1.190   6.222   0.225  0.00  0.00    -0.333 N 
ATOM     11  C   UNL     1       0.288  11.552   0.633  0.00  0.00    +0.043 C 
ATOM     12  C   UNL     1       1.460  12.414   1.125  0.00  0.00    +0.005 C 
ATOM     13  C   UNL     1       2.700  12.095   0.288  0.00  0.00    +0.005 C 
ATOM     14  C   UNL     1       3.243  10.713   0.655  0.00  0.00    +0.037 C 
ATOM     15  H   UNL     1       0.257   5.645   0.138  0.00  0.00    +0.168 HD
ENDROOT
BRANCH   1  17
ATOM     16  C   UNL     1       1.189   3.491   0.009  0.00  0.00    +0.031 C 
ATOM     17  C   UNL     1       2.386   4.192   0.106  0.00  0.00    +0.084 C 
ATOM     18 CL   UNL     1       3.897   3.338   0.088  0.00  0.00    -0.080 Cl
BRANCH  16  24
ATOM     19  C   UNL     1       2.209   1.548  -1.074  0.00  0.00    +0.009 A 
ATOM     20  C   UNL     1       2.214   0.206  -1.327  0.00  0.00    +0.023 A 
ATOM     21  C   UNL     1       1.230  -0.611  -0.784  0.00  0.00    +0.071 A 
ATOM     22  C   UNL     1       0.232  -0.074   0.020  0.00  0.00    +0.145 A 
ATOM     23  C   UNL     1       0.210   1.265   0.285  0.00  0.00    +0.042 A 
ATOM     24  C   UNL     1       1.203   2.102  -0.259  0.00  0.00    -0.021 A 
ATOM     25 CL   UNL     1       1.246  -2.315  -1.115  0.00  0.00    -0.081 Cl
BRANCH  22  26
ATOM     26  N   UNL     1      -0.810  -0.956   0.591  0.00  0.00    +0.058 N 
ATOM     27  O   UNL     1      -1.756  -0.450   1.354  0.00  0.00    -0.126 OA
ATOM     28  O   UNL     1      -0.791  -2.248   0.336  0.00  0.00    -0.126 OA
ENDBRANCH  22  26
ENDBRANCH  16  24
ENDBRANCH   1  17
TORSDOF 3
