REMARK  Name = ZINC34380658
REMARK  8 active torsions:
REMARK  status: ('A' for Active; 'I' for Inactive)
REMARK    1  A    between atoms: C_1  and  C_2
REMARK    2  A    between atoms: C_2  and  C_4
REMARK    3  A    between atoms: C_2  and  O_35
REMARK    4  A    between atoms: C_4  and  C_32
REMARK    5  A    between atoms: C_9  and  C_12
REMARK    6  A    between atoms: C_17  and  O_18
REMARK    7  A    between atoms: N_22  and  C_25
REMARK    8  A    between atoms: C_25  and  C_26
REMARK                            x       y       z     vdW  Elec       q    Type
REMARK                         _______ _______ _______ _____ _____    ______ ____
ROOT
ATOM      1  C   UNL     1      -1.433  -0.534   0.013  0.00  0.00    +0.074 C 
ATOM      2  C   UNL     1      -1.434  -2.051  -0.060  0.00  0.00    +0.088 C 
ATOM      3  C   UNL     1      -1.286  -2.359   1.479  0.00  0.00    +0.077 C 
ATOM      4  C   UNL     1      -2.316  -1.485   2.066  0.00  0.00    -0.023 C 
ATOM      5  N   UNL     1      -2.099  -0.194   1.306  0.00  0.00    +0.397 N 
ATOM      6  C   UNL     1      -0.889  -3.745   1.464  0.00  0.00    +0.225 C 
ATOM      7  O   UNL     1      -1.170  -4.601   2.275  0.00  0.00    -0.275 OA
ATOM      8  N   UNL     1      -0.124  -3.885   0.333  0.00  0.00    -0.237 N 
ATOM      9  C   UNL     1      -0.232  -2.812  -0.524  0.00  0.00    +0.225 C 
ATOM     10  O   UNL     1       0.493  -2.535  -1.456  0.00  0.00    -0.275 OA
ATOM     11  H   UNL     1      -1.512   0.429   1.840  0.00  0.00    -0.083 HD
ATOM     12  H   UNL     1      -2.990   0.244   1.127  0.00  0.00    -0.083 HD
ENDROOT
BRANCH   4  13
ATOM     13  C   UNL     1      -3.694  -2.047   1.829  0.00  0.00    -0.018 A 
ATOM     14  C   UNL     1      -4.436  -1.625   0.743  0.00  0.00    +0.020 A 
ATOM     15  C   UNL     1      -5.701  -2.141   0.525  0.00  0.00    +0.018 A 
ATOM     16  C   UNL     1      -6.225  -3.081   1.394  0.00  0.00    +0.019 A 
ATOM     17  C   UNL     1      -5.486  -3.507   2.481  0.00  0.00    +0.047 A 
ATOM     18  C   UNL     1      -4.215  -2.995   2.698  0.00  0.00    +0.119 A 
ATOM     19 BR   UNL     1      -6.715  -1.560  -0.961  0.00  0.00    -0.050 Br
BRANCH  18  20
ATOM     20  O   UNL     1      -3.485  -3.416   3.764  0.00  0.00    -0.507 OA
ATOM     21  H   UNL     1      -3.622  -2.893   4.566  0.00  0.00    +0.292 HD
ENDBRANCH  18  20
ENDBRANCH   4  13
BRANCH   1  22
ATOM     22  C   UNL     1      -2.210   0.045  -1.141  0.00  0.00    +0.349 C 
ATOM     23  O   UNL     1      -1.849  -0.165  -2.286  0.00  0.00    -0.248 OA
ATOM     24  O   UNL     1      -3.201   0.725  -0.930  0.00  0.00    -0.248 OA
ENDBRANCH   1  22
BRANCH   1  26
ATOM     25  C   UNL     1      -0.019   1.526   0.020  0.00  0.00    +0.037 C 
ATOM     26  C   UNL     1       0.002  -0.004   0.002  0.00  0.00    +0.112 C 
BRANCH  26  27
ATOM     27  O   UNL     1       0.696  -0.484   1.155  0.00  0.00    -0.393 OA
ATOM     28  H   UNL     1       1.614  -0.187   1.214  0.00  0.00    +0.210 HD
ENDBRANCH  26  27
ENDBRANCH   1  26
BRANCH   8  29
ATOM     29  C   UNL     1       0.712  -5.056   0.058  0.00  0.00    +0.151 C 
BRANCH  29  30
ATOM     30  C   UNL     1      -0.092  -6.082  -0.697  0.00  0.00    -0.030 A 
ATOM     31  C   UNL     1      -0.813  -7.039  -0.008  0.00  0.00    +0.005 A 
ATOM     32  C   UNL     1      -1.551  -7.980  -0.702  0.00  0.00    +0.000 A 
ATOM     33  C   UNL     1      -1.569  -7.963  -2.084  0.00  0.00    +0.000 A 
ATOM     34  C   UNL     1      -0.849  -7.005  -2.773  0.00  0.00    +0.000 A 
ATOM     35  C   UNL     1      -0.115  -6.062  -2.079  0.00  0.00    +0.005 A 
ENDBRANCH  29  30
ENDBRANCH   8  29
TORSDOF 7
