REMARK  Name = ZINC38678684
REMARK  1 active torsions:
REMARK  status: ('A' for Active; 'I' for Inactive)
REMARK    1  A    between atoms: C_7  and  C_11
REMARK                            x       y       z     vdW  Elec       q    Type
REMARK                         _______ _______ _______ _____ _____    ______ ____
ROOT
ATOM      1  C   UNL     1       0.699  -3.256  -0.021  0.00  0.00    +0.249 C 
ATOM      2  O   UNL     1       1.448  -2.303  -0.122  0.00  0.00    -0.270 OA
ATOM      3  N   UNL     1       1.203  -4.503   0.070  0.00  0.00    -0.297 N 
ATOM      4  C   UNL     1       0.316  -5.672   0.069  0.00  0.00    +0.113 C 
ATOM      5  C   UNL     1       0.791  -6.693  -0.956  0.00  0.00    +0.027 C 
ATOM      6  C   UNL     1       2.282  -6.987  -0.789  0.00  0.00    +0.018 C 
ATOM      7  C   UNL     1       3.055  -5.677  -0.967  0.00  0.00    +0.054 C 
ATOM      8  C   UNL     1       2.655  -4.722   0.165  0.00  0.00    +0.117 C 
ATOM      9  C   UNL     1       2.678  -5.037  -2.282  0.00  0.00    +0.027 A 
ATOM     10  C   UNL     1       3.600  -4.232  -2.875  0.00  0.00    +0.022 A 
ATOM     11  C   UNL     1       3.296  -3.554  -4.060  0.00  0.00    +0.007 A 
ATOM     12  C   UNL     1       2.050  -3.692  -4.597  0.00  0.00    +0.070 A 
ATOM     13  C   UNL     1       1.121  -4.525  -3.959  0.00  0.00    +0.251 A 
ATOM     14  O   UNL     1      -0.017  -4.607  -4.394  0.00  0.00    -0.268 OA
ATOM     15  N   UNL     1       1.473  -5.242  -2.864  0.00  0.00    -0.312 N 
ATOM     16  C   UNL     1       0.524  -6.237  -2.379  0.00  0.00    +0.130 C 
ENDROOT
BRANCH   1  23
ATOM     17  C   UNL     1      -2.153  -0.331  -2.312  0.00  0.00    +0.001 A 
ATOM     18  C   UNL     1      -3.483  -0.504  -1.955  0.00  0.00    +0.002 A 
ATOM     19  C   UNL     1      -3.841  -1.452  -1.021  0.00  0.00    +0.026 A 
ATOM     20  C   UNL     1      -2.864  -2.246  -0.428  0.00  0.00    +0.047 A 
ATOM     21  C   UNL     1      -1.520  -2.070  -0.792  0.00  0.00    +0.012 A 
ATOM     22  C   UNL     1      -1.172  -1.107  -1.737  0.00  0.00    +0.011 A 
ATOM     23  C   UNL     1      -0.755  -3.048   0.003  0.00  0.00    +0.062 A 
ATOM     24  C   UNL     1      -1.664  -3.723   0.764  0.00  0.00    +0.096 A 
ATOM     25  N   UNL     1      -2.910  -3.253   0.513  0.00  0.00    -0.360 N 
ATOM     26  H   UNL     1      -3.720  -3.579   0.936  0.00  0.00    +0.165 HD
ENDBRANCH   1  23
TORSDOF 1
