REMARK  Name = ZINC53536398
REMARK  9 active torsions:
REMARK  status: ('A' for Active; 'I' for Inactive)
REMARK    1  A    between atoms: C_1  and  C_2
REMARK    2  A    between atoms: C_2  and  O_3
REMARK    3  A    between atoms: O_3  and  C_4
REMARK    4  A    between atoms: C_4  and  C_6
REMARK    5  A    between atoms: N_14  and  C_15
REMARK    6  A    between atoms: C_15  and  C_16
REMARK    7  A    between atoms: C_16  and  C_18
REMARK    8  A    between atoms: C_16  and  N_23
REMARK    9  A    between atoms: C_26  and  C_29
REMARK                            x       y       z     vdW  Elec       q    Type
REMARK                         _______ _______ _______ _____ _____    ______ ____
ROOT
ATOM      1  C   UNL     1      -4.987  -2.437  -1.377  0.00  0.00    +0.101 C 
ATOM      2  C   UNL     1      -5.014  -3.965  -1.465  0.00  0.00    +0.034 C 
ATOM      3  C   UNL     1      -4.413  -4.557  -0.186  0.00  0.00    +0.110 C 
ATOM      4  N   UNL     1      -5.130  -4.006   0.972  0.00  0.00    -0.286 N 
ATOM      5  C   UNL     1      -5.242  -2.547   1.105  0.00  0.00    +0.110 C 
ATOM      6  C   UNL     1      -5.834  -1.978  -0.188  0.00  0.00    +0.034 C 
ATOM      7  C   UNL     1      -5.675  -4.824   1.895  0.00  0.00    +0.302 C 
ATOM      8  O   UNL     1      -6.185  -4.358   2.895  0.00  0.00    -0.253 OA
ATOM      9  N   UNL     1      -5.654  -6.159   1.708  0.00  0.00    -0.300 N 
ATOM     10  H   UNL     1      -5.183  -6.535   0.948  0.00  0.00    +0.150 HD
ENDROOT
BRANCH   1  11
ATOM     11  C   UNL     1      -5.547  -1.851  -2.648  0.00  0.00    +0.310 C 
ATOM     12  O   UNL     1      -6.522  -1.140  -2.607  0.00  0.00    -0.251 OA
BRANCH  11  13
ATOM     13  O   UNL     1      -4.961  -2.120  -3.825  0.00  0.00    -0.465 OA
BRANCH  13  15
ATOM     14  C   UNL     1      -4.747  -1.948  -6.226  0.00  0.00    +0.048 C 
ATOM     15  C   UNL     1      -5.545  -1.531  -4.989  0.00  0.00    +0.229 C 
ENDBRANCH  13  15
ENDBRANCH  11  13
ENDBRANCH   1  11
BRANCH   9  16
ATOM     16  C   UNL     1      -6.342  -7.041   2.654  0.00  0.00    +0.095 C 
BRANCH  16  17
ATOM     17  C   UNL     1      -6.059  -8.500   2.288  0.00  0.00    -0.013 C 
BRANCH  17  18
ATOM     18  N   UNL     1      -6.820  -9.384   3.181  0.00  0.00    +0.386 N 
ATOM     19  C   UNL     1      -8.257  -9.176   2.966  0.00  0.00    -0.078 C 
ATOM     20  C   UNL     1      -9.054 -10.036   3.949  0.00  0.00    -0.015 C 
ATOM     21  C   UNL     1      -8.711 -11.511   3.724  0.00  0.00    -0.018 C 
ATOM     22  C   UNL     1      -7.199 -11.703   3.878  0.00  0.00    -0.015 C 
ATOM     23  C   UNL     1      -6.471 -10.781   2.897  0.00  0.00    -0.078 C 
ATOM     24  C   UNL     1      -9.443 -12.370   4.756  0.00  0.00    +0.007 C 
ATOM     25  H   UNL     1      -6.591  -9.170   4.140  0.00  0.00    -0.081 HD
ENDBRANCH  17  18
BRANCH  17  26
ATOM     26  C   UNL     1      -4.586  -8.779   2.440  0.00  0.00    -0.022 A 
ATOM     27  C   UNL     1      -3.624  -8.828   1.486  0.00  0.00    +0.009 A 
ATOM     28  C   UNL     1      -2.323  -9.104   1.861  0.00  0.00    +0.008 A 
ATOM     29  C   UNL     1      -2.047  -9.319   3.171  0.00  0.00    +0.045 A 
ATOM     30  S   UNL     1      -3.654  -9.124   3.923  0.00  0.00    -0.103 S 
ENDBRANCH  17  26
ENDBRANCH  16  17
ENDBRANCH   9  16
TORSDOF 7
