REMARK  Name = ZINC16603171
REMARK  19 active torsions:
REMARK  status: ('A' for Active; 'I' for Inactive)
REMARK    1  A    between atoms: C_1  and  C_2
REMARK    2  A    between atoms: C_2  and  N_82
REMARK    3  A    between atoms: C_3  and  C_4
REMARK    4  A    between atoms: C_3  and  N_82
REMARK    5  A    between atoms: C_5  and  C_6
REMARK    6  A    between atoms: C_5  and  N_82
REMARK    7  A    between atoms: C_6  and  C_7
REMARK    8  A    between atoms: C_7  and  C_8
REMARK    9  A    between atoms: C_8  and  C_10
REMARK   10  A    between atoms: C_8  and  N_11
REMARK   11  A    between atoms: C_12  and  C_14
REMARK   12  A    between atoms: C_18  and  C_20
REMARK   13  A    between atoms: C_20  and  N_21
REMARK   14  A    between atoms: C_22  and  C_40
REMARK   15  A    between atoms: C_23  and  C_35
REMARK   16  A    between atoms: C_24  and  C_29
REMARK   17  A    between atoms: C_35  and  O_37
REMARK   18  A    between atoms: O_37  and  C_38
REMARK   19  A    between atoms: C_38  and  C_39
REMARK                            x       y       z     vdW  Elec       q    Type
REMARK                         _______ _______ _______ _____ _____    ______ ____
ROOT
ATOM      1  C   UNL     1      -2.569   8.299   7.936  0.00  0.00    +0.037 A 
ATOM      2  C   UNL     1      -2.138   9.504   8.493  0.00  0.00    +0.013 A 
ATOM      3  C   UNL     1      -2.005  10.621   7.695  0.00  0.00    +0.001 A 
ATOM      4  C   UNL     1      -2.298  10.548   6.344  0.00  0.00    +0.005 A 
ATOM      5  C   UNL     1      -2.726   9.357   5.786  0.00  0.00    -0.029 A 
ATOM      6  C   UNL     1      -2.868   8.234   6.575  0.00  0.00    +0.018 A 
ENDROOT
BRANCH   1   8
ATOM      7  N   UNL     1      -2.429   7.165  10.102  0.00  0.00    -0.309 N 
ATOM      8  C   UNL     1      -2.714   7.098   8.787  0.00  0.00    +0.244 C 
ATOM      9  O   UNL     1      -3.090   6.050   8.299  0.00  0.00    -0.270 OA
ATOM     10  H   UNL     1      -2.129   8.001  10.491  0.00  0.00    +0.149 HD
BRANCH   7  11
ATOM     11  C   UNL     1      -2.573   5.975  10.944  0.00  0.00    +0.070 C 
ATOM     12  C   UNL     1      -1.297   5.134  10.861  0.00  0.00    +0.028 C 
BRANCH  11  13
ATOM     13  C   UNL     1      -2.808   6.402  12.395  0.00  0.00    +0.020 C 
BRANCH  13  14
ATOM     14  C   UNL     1      -4.147   7.136  12.499  0.00  0.00    -0.017 C 
BRANCH  14  15
ATOM     15  C   UNL     1      -4.382   7.562  13.950  0.00  0.00    -0.079 C 
BRANCH  15  16
ATOM     16  N   UNL     1      -5.689   8.248  14.035  0.00  0.00    +0.379 N 
ATOM     17  H   UNL     1      -5.795   8.867  13.222  0.00  0.00    -0.082 HD
BRANCH  16  19
ATOM     18  C   UNL     1      -8.117   7.988  13.890  0.00  0.00    -0.017 C 
ATOM     19  C   UNL     1      -6.782   7.253  14.027  0.00  0.00    -0.082 C 
ENDBRANCH  16  19
BRANCH  16  20
ATOM     20  C   UNL     1      -5.754   9.060  15.268  0.00  0.00    -0.082 C 
ATOM     21  C   UNL     1      -4.971  10.355  15.044  0.00  0.00    -0.017 C 
ENDBRANCH  16  20
ENDBRANCH  15  16
ENDBRANCH  14  15
ENDBRANCH  13  14
ENDBRANCH  11  13
ENDBRANCH   7  11
ENDBRANCH   1   8
BRANCH   5  22
ATOM     22  C   UNL     1      -3.044   9.288   4.315  0.00  0.00    +0.148 C 
BRANCH  22  23
ATOM     23  N   UNL     1      -1.837   8.919   3.571  0.00  0.00    -0.271 N 
ATOM     24  C   UNL     1      -1.562   7.597   3.344  0.00  0.00    +0.021 C 
ATOM     25  C   UNL     1      -0.639   7.222   2.443  0.00  0.00    +0.061 C 
ATOM     26  C   UNL     1       0.098   8.253   1.627  0.00  0.00    +0.066 C 
ATOM     27  C   UNL     1       0.287   9.523   2.454  0.00  0.00    +0.109 C 
ATOM     28  C   UNL     1      -1.015   9.884   3.123  0.00  0.00    +0.221 C 
ATOM     29  O   UNL     1      -1.322  11.050   3.256  0.00  0.00    -0.275 OA
ATOM     30  C   UNL     1      -2.309   6.543   4.120  0.00  0.00    +0.061 C 
BRANCH  26  31
ATOM     31  C   UNL     1      -0.699   8.578   0.390  0.00  0.00    -0.039 A 
ATOM     32  C   UNL     1      -1.978   9.090   0.507  0.00  0.00    +0.004 A 
ATOM     33  C   UNL     1      -2.707   9.394  -0.627  0.00  0.00    +0.000 A 
ATOM     34  C   UNL     1      -2.162   9.175  -1.879  0.00  0.00    +0.000 A 
ATOM     35  C   UNL     1      -0.885   8.658  -1.995  0.00  0.00    +0.000 A 
ATOM     36  C   UNL     1      -0.153   8.360  -0.861  0.00  0.00    +0.004 A 
ENDBRANCH  26  31
BRANCH  25  37
ATOM     37  C   UNL     1      -0.352   5.848   2.262  0.00  0.00    +0.337 C 
ATOM     38  O   UNL     1      -0.839   5.021   3.010  0.00  0.00    -0.245 OA
BRANCH  37  39
ATOM     39  O   UNL     1       0.462   5.455   1.260  0.00  0.00    -0.462 OA
BRANCH  39  40
ATOM     40  C   UNL     1       0.708   4.053   1.137  0.00  0.00    +0.229 C 
ATOM     41  C   UNL     1       1.645   3.801  -0.046  0.00  0.00    +0.048 C 
ENDBRANCH  39  40
ENDBRANCH  37  39
ENDBRANCH  25  37
ENDBRANCH  22  23
ENDBRANCH   5  22
TORSDOF 14
