REMARK  Name = ZINC39663856
REMARK  15 active torsions:
REMARK  status: ('A' for Active; 'I' for Inactive)
REMARK    1  A    between atoms: C_1  and  C_2
REMARK    2  A    between atoms: C_2  and  C_3
REMARK    3  A    between atoms: C_3  and  C_4
REMARK    4  A    between atoms: C_4  and  C_5
REMARK    5  A    between atoms: C_5  and  C_6
REMARK    6  A    between atoms: C_6  and  C_7
REMARK    7  A    between atoms: C_11  and  C_20
REMARK    8  A    between atoms: N_22  and  C_23
REMARK    9  A    between atoms: C_23  and  C_24
REMARK   10  A    between atoms: C_24  and  C_26
REMARK   11  A    between atoms: C_24  and  N_34
REMARK   12  A    between atoms: C_29  and  O_32
REMARK   13  A    between atoms: O_32  and  C_33
REMARK   14  A    between atoms: N_34  and  C_35
REMARK   15  A    between atoms: N_34  and  C_36
REMARK                            x       y       z     vdW  Elec       q    Type
REMARK                         _______ _______ _______ _____ _____    ______ ____
ROOT
ATOM      1  C   UNL     1      -4.449  -5.846  -0.777  0.00  0.00    +0.216 C 
ATOM      2  O   UNL     1      -5.360  -5.055  -0.899  0.00  0.00    -0.276 OA
ATOM      3  N   UNL     1      -4.712  -7.145  -0.534  0.00  0.00    -0.300 N 
ATOM      4  C   UNL     1      -3.742  -8.249  -0.349  0.00  0.00    +0.121 C 
ATOM      5  C   UNL     1      -4.343  -9.113   0.782  0.00  0.00    +0.100 C 
ATOM      6  C   UNL     1      -5.851  -8.810   0.747  0.00  0.00    -0.004 C 
ATOM      7  C   UNL     1      -6.038  -7.791  -0.386  0.00  0.00    +0.115 C 
ATOM      8  C   UNL     1      -6.298  -8.202   2.073  0.00  0.00    -0.010 C 
ATOM      9  C   UNL     1      -7.810  -7.963   2.035  0.00  0.00    -0.082 C 
ATOM     10  N   UNL     1      -8.503  -9.235   1.798  0.00  0.00    +0.379 N 
ATOM     11  C   UNL     1      -8.137  -9.766   0.479  0.00  0.00    -0.082 C 
ATOM     12  C   UNL     1      -6.639 -10.082   0.451  0.00  0.00    -0.010 C 
ATOM     13  H   UNL     1      -8.240  -9.898   2.511  0.00  0.00    -0.086 HD
ATOM     14  H   UNL     1      -9.501  -9.085   1.833  0.00  0.00    -0.086 HD
ENDROOT
BRANCH   5  15
ATOM     15  C   UNL     1      -3.757  -8.717   2.112  0.00  0.00    +0.218 C 
ATOM     16  O   UNL     1      -3.366  -7.583   2.290  0.00  0.00    -0.275 OA
ATOM     17  N   UNL     1      -3.667  -9.624   3.105  0.00  0.00    -0.316 N 
ATOM     18  H   UNL     1      -3.979 -10.531   2.964  0.00  0.00    +0.149 HD
BRANCH  17  19
ATOM     19  C   UNL     1      -3.096  -9.239   4.399  0.00  0.00    +0.093 C 
BRANCH  19  20
ATOM     20  C   UNL     1      -2.997 -10.472   5.299  0.00  0.00    -0.021 C 
BRANCH  20  21
ATOM     21  C   UNL     1      -2.028 -11.457   4.697  0.00  0.00    -0.059 A 
ATOM     22  C   UNL     1      -0.667 -11.275   4.862  0.00  0.00    +0.005 A 
ATOM     23  C   UNL     1       0.223 -12.176   4.310  0.00  0.00    +0.046 A 
ATOM     24  C   UNL     1      -0.249 -13.264   3.591  0.00  0.00    +0.120 A 
ATOM     25  C   UNL     1      -1.615 -13.445   3.427  0.00  0.00    +0.046 A 
ATOM     26  C   UNL     1      -2.501 -12.544   3.985  0.00  0.00    +0.005 A 
BRANCH  24  27
ATOM     27  O   UNL     1       0.625 -14.152   3.047  0.00  0.00    -0.495 OA
ATOM     28  C   UNL     1       0.068 -15.248   2.319  0.00  0.00    +0.277 C 
ENDBRANCH  24  27
ENDBRANCH  20  21
BRANCH  20  29
ATOM     29  N   UNL     1      -2.522 -10.070   6.630  0.00  0.00    +0.382 N 
ATOM     30  C   UNL     1      -3.490  -9.146   7.236  0.00  0.00    -0.096 C 
ATOM     31  C   UNL     1      -2.382 -11.260   7.480  0.00  0.00    -0.096 C 
ATOM     32  H   UNL     1      -1.627  -9.611   6.543  0.00  0.00    -0.082 HD
ENDBRANCH  20  29
ENDBRANCH  19  20
ENDBRANCH  17  19
ENDBRANCH   5  15
BRANCH   1  33
ATOM     33  C   UNL     1      -3.022  -5.375  -0.895  0.00  0.00    +0.096 C 
BRANCH  33  34
ATOM     34  C   UNL     1      -3.002  -3.870  -1.169  0.00  0.00    +0.009 C 
BRANCH  34  35
ATOM     35  C   UNL     1      -1.553  -3.393  -1.289  0.00  0.00    +0.000 C 
BRANCH  35  36
ATOM     36  C   UNL     1      -1.533  -1.888  -1.563  0.00  0.00    -0.000 C 
BRANCH  36  38
ATOM     37  C   UNL     1      -0.064   0.095  -1.957  0.00  0.00    +0.004 C 
ATOM     38  C   UNL     1      -0.084  -1.411  -1.683  0.00  0.00    -0.003 C 
ENDBRANCH  36  38
ENDBRANCH  35  36
ENDBRANCH  34  35
ENDBRANCH  33  34
ENDBRANCH   1  33
TORSDOF 11
