REMARK  Name = ZINC20764825
REMARK  8 active torsions:
REMARK  status: ('A' for Active; 'I' for Inactive)
REMARK    1  A    between atoms: C_1  and  C_2
REMARK    2  A    between atoms: C_2  and  C_3
REMARK    3  A    between atoms: C_6  and  C_9
REMARK    4  A    between atoms: C_11  and  C_25
REMARK    5  A    between atoms: C_14  and  C_17
REMARK    6  A    between atoms: C_22  and  O_23
REMARK    7  A    between atoms: C_28  and  O_32
REMARK    8  A    between atoms: O_32  and  C_33
REMARK                            x       y       z     vdW  Elec       q    Type
REMARK                         _______ _______ _______ _____ _____    ______ ____
ROOT
ATOM      1  C   UNL     1      -3.217   5.645   1.547  0.00  0.00    +0.040 C 
ATOM      2  N   UNL     1      -2.381   5.150   0.715  0.00  0.00    -0.299 NA
ATOM      3  C   UNL     1      -2.554   3.866   0.046  0.00  0.00    +0.081 C 
ATOM      4  N   UNL     1      -3.554   3.049   0.744  0.00  0.00    +0.401 N 
ATOM      5  C   UNL     1      -4.790   3.825   0.951  0.00  0.00    -0.028 C 
ATOM      6  C   UNL     1      -4.488   4.948   1.947  0.00  0.00    +0.044 C 
ATOM      7  H   UNL     1      -3.785   2.158   0.142  0.00  0.00    -0.081 HD
ATOM      8  H   UNL     1      -3.157   2.738   1.722  0.00  0.00    -0.081 HD
ENDROOT
BRANCH   5   9
ATOM      9  C   UNL     1      -5.866   2.928   1.507  0.00  0.00    -0.018 A 
ATOM     10  C   UNL     1      -5.522   1.791   2.213  0.00  0.00    +0.025 A 
ATOM     11  C   UNL     1      -6.509   0.967   2.724  0.00  0.00    +0.041 A 
ATOM     12  C   UNL     1      -7.843   1.280   2.528  0.00  0.00    +0.023 A 
ATOM     13  C   UNL     1      -8.191   2.415   1.822  0.00  0.00    +0.047 A 
ATOM     14  C   UNL     1      -7.202   3.245   1.314  0.00  0.00    +0.119 A 
ATOM     15 CL   UNL     1      -6.074  -0.460   3.612  0.00  0.00    -0.084 Cl
BRANCH  14  16
ATOM     16  O   UNL     1      -7.543   4.366   0.625  0.00  0.00    -0.507 OA
ATOM     17  H   UNL     1      -8.602   4.617   0.472  0.00  0.00    +0.292 HD
ENDBRANCH  14  16
ENDBRANCH   5   9
BRANCH   3  18
ATOM     18  C   UNL     1      -1.238   3.133   0.030  0.00  0.00    -0.039 A 
ATOM     19  C   UNL     1      -1.218   1.751   0.017  0.00  0.00    +0.007 A 
ATOM     20  C   UNL     1      -0.013   1.076   0.008  0.00  0.00    +0.047 A 
ATOM     21  C   UNL     1       1.179   1.786   0.000  0.00  0.00    +0.134 A 
ATOM     22  C   UNL     1       1.157   3.174   0.008  0.00  0.00    +0.060 A 
ATOM     23  C   UNL     1      -0.052   3.844   0.023  0.00  0.00    +0.022 A 
ATOM     24 BR   UNL     1       2.778   4.147  -0.003  0.00  0.00    -0.047 Br
BRANCH  21  25
ATOM     25  O   UNL     1       2.366   1.124  -0.015  0.00  0.00    -0.494 OA
ATOM     26  C   UNL     1       2.313  -0.304  -0.023  0.00  0.00    +0.277 C 
ENDBRANCH  21  25
ENDBRANCH   3  18
BRANCH   1  30
ATOM     27  C   UNL     1      -2.363   9.435   3.260  0.00  0.00    -0.048 A 
ATOM     28  C   UNL     1      -1.479   8.872   2.357  0.00  0.00    +0.004 A 
ATOM     29  C   UNL     1      -1.750   7.641   1.797  0.00  0.00    +0.010 A 
ATOM     30  C   UNL     1      -2.920   6.963   2.143  0.00  0.00    -0.004 A 
ATOM     31  C   UNL     1      -3.811   7.539   3.051  0.00  0.00    +0.010 A 
ATOM     32  C   UNL     1      -3.525   8.768   3.608  0.00  0.00    +0.004 A 
BRANCH  27  34
ATOM     33  C   UNL     1      -2.653  11.883   2.990  0.00  0.00    +0.009 C 
ATOM     34  C   UNL     1      -2.060  10.780   3.869  0.00  0.00    +0.032 C 
ENDBRANCH  27  34
ENDBRANCH   1  30
TORSDOF 6
