REMARK  Name = ZINC35226728
REMARK  8 active torsions:
REMARK  status: ('A' for Active; 'I' for Inactive)
REMARK    1  A    between atoms: C_4  and  C_7
REMARK    2  A    between atoms: C_7  and  N_8
REMARK    3  A    between atoms: N_8  and  C_9
REMARK    4  A    between atoms: N_8  and  C_17
REMARK    5  A    between atoms: C_9  and  C_10
REMARK    6  A    between atoms: C_17  and  C_18
REMARK    7  A    between atoms: C_21  and  C_23
REMARK    8  A    between atoms: N_28  and  C_31
REMARK                            x       y       z     vdW  Elec       q    Type
REMARK                         _______ _______ _______ _____ _____    ______ ____
ROOT
ATOM      1  C   UNL     1       6.902  -0.393   0.882  0.00  0.00    +0.090 A 
ATOM      2  C   UNL     1       7.450   0.700   1.456  0.00  0.00    +0.043 A 
ATOM      3  C   UNL     1       8.109   1.413   0.442  0.00  0.00    +0.055 A 
ATOM      4  C   UNL     1       7.926   0.709  -0.714  0.00  0.00    +0.190 A 
ATOM      5  O   UNL     1       7.195  -0.387  -0.425  0.00  0.00    -0.457 OA
ENDROOT
BRANCH   4   6
ATOM      6  C   UNL     1       8.439   1.078  -2.038  0.00  0.00    +0.282 C 
ATOM      7  O   UNL     1       9.204   2.017  -2.154  0.00  0.00    -0.267 OA
ATOM      8  N   UNL     1       8.063   0.377  -3.126  0.00  0.00    -0.292 N 
ATOM      9  C   UNL     1       8.676   0.642  -4.435  0.00  0.00    +0.127 C 
ATOM     10  C   UNL     1       9.252  -0.671  -4.981  0.00  0.00    +0.124 C 
ATOM     11  N   UNL     1       8.222  -1.714  -4.879  0.00  0.00    -0.325 N 
ATOM     12  C   UNL     1       7.608  -1.979  -3.570  0.00  0.00    +0.124 C 
ATOM     13  C   UNL     1       7.037  -0.670  -3.023  0.00  0.00    +0.127 C 
BRANCH  11  14
ATOM     14  C   UNL     1       7.831  -2.441  -6.008  0.00  0.00    +0.065 A 
ATOM     15  C   UNL     1       8.483  -3.623  -6.334  0.00  0.00    +0.026 A 
ATOM     16  C   UNL     1       8.095  -4.340  -7.449  0.00  0.00    +0.002 A 
ATOM     17  C   UNL     1       7.059  -3.882  -8.242  0.00  0.00    +0.003 A 
ATOM     18  C   UNL     1       6.407  -2.705  -7.922  0.00  0.00    +0.040 A 
ATOM     19  C   UNL     1       6.785  -1.986  -6.803  0.00  0.00    +0.144 A 
ATOM     20  F   UNL     1       6.144  -0.839  -6.487  0.00  0.00    -0.204 F 
ENDBRANCH  11  14
ENDBRANCH   4   6
BRANCH   1  21
ATOM     21  C   UNL     1       6.098  -1.449   1.596  0.00  0.00    -0.002 C 
BRANCH  21  22
ATOM     22  N   UNL     1       4.676  -1.082   1.571  0.00  0.00    +0.390 N 
ATOM     23  H   UNL     1       4.560  -0.158   1.959  0.00  0.00    -0.080 HD
BRANCH  22  24
ATOM     24  C   UNL     1       4.190  -1.096   0.185  0.00  0.00    -0.042 C 
BRANCH  24  28
ATOM     25  C   UNL     1       0.180   0.371   0.064  0.00  0.00    +0.000 A 
ATOM     26  C   UNL     1       1.241   1.257   0.050  0.00  0.00    +0.000 A 
ATOM     27  C   UNL     1       2.538   0.782   0.089  0.00  0.00    +0.002 A 
ATOM     28  C   UNL     1       2.776  -0.578   0.143  0.00  0.00    -0.064 A 
ATOM     29  C   UNL     1       1.715  -1.465   0.158  0.00  0.00    +0.002 A 
ATOM     30  C   UNL     1       0.417  -0.990   0.117  0.00  0.00    +0.000 A 
ENDBRANCH  24  28
ENDBRANCH  22  24
BRANCH  22  31
ATOM     31  C   UNL     1       3.907  -2.047   2.369  0.00  0.00    -0.042 C 
BRANCH  31  32
ATOM     32  C   UNL     1       4.304  -1.931   3.818  0.00  0.00    -0.064 A 
ATOM     33  C   UNL     1       5.263  -2.778   4.341  0.00  0.00    +0.003 A 
ATOM     34  C   UNL     1       5.628  -2.671   5.670  0.00  0.00    +0.020 A 
ATOM     35  C   UNL     1       5.032  -1.718   6.477  0.00  0.00    +0.041 A 
ATOM     36  C   UNL     1       4.072  -0.871   5.952  0.00  0.00    +0.020 A 
ATOM     37  C   UNL     1       3.713  -0.974   4.622  0.00  0.00    +0.003 A 
ATOM     38 CL   UNL     1       5.489  -1.584   8.146  0.00  0.00    -0.084 Cl
ENDBRANCH  31  32
ENDBRANCH  22  31
ENDBRANCH  21  22
ENDBRANCH   1  21
TORSDOF 8
