REMARK  Name = ZINC35000312
REMARK  8 active torsions:
REMARK  status: ('A' for Active; 'I' for Inactive)
REMARK    1  A    between atoms: C_10  and  S_11
REMARK    2  A    between atoms: S_11  and  N_14
REMARK    3  A    between atoms: N_14  and  C_15
REMARK    4  A    between atoms: C_15  and  C_16
REMARK    5  A    between atoms: C_16  and  N_17
REMARK    6  A    between atoms: N_17  and  C_18
REMARK    7  A    between atoms: N_17  and  S_25
REMARK    8  A    between atoms: S_25  and  C_28
REMARK                            x       y       z     vdW  Elec       q    Type
REMARK                         _______ _______ _______ _____ _____    ______ ____
ROOT
ATOM      1  N   UNL     1       3.995   3.868  -3.546  0.00  0.00    -0.202 N 
ENDROOT
BRANCH   1   2
ATOM      2  C   UNL     1       4.348   5.112  -3.013  0.00  0.00    +0.051 A 
ATOM      3  C   UNL     1       3.377   5.924  -2.441  0.00  0.00    +0.027 A 
ATOM      4  C   UNL     1       3.728   7.152  -1.915  0.00  0.00    +0.040 A 
ATOM      5  C   UNL     1       5.046   7.573  -1.957  0.00  0.00    +0.124 A 
ATOM      6  C   UNL     1       6.015   6.765  -2.527  0.00  0.00    +0.040 A 
ATOM      7  C   UNL     1       5.670   5.534  -3.050  0.00  0.00    +0.027 A 
ATOM      8  F   UNL     1       5.386   8.775  -1.443  0.00  0.00    -0.205 F 
ENDBRANCH   1   2
BRANCH   1   9
ATOM      9  S   UNL     1       2.927   3.781  -4.808  0.00  0.00    +0.075 S 
ATOM     10  O   UNL     1       2.961   5.044  -5.457  0.00  0.00    -0.150 OA
ATOM     11  O   UNL     1       3.204   2.566  -5.491  0.00  0.00    -0.150 OA
BRANCH   9  12
ATOM     12  C   UNL     1       1.315   3.613  -4.116  0.00  0.00    +0.109 A 
ATOM     13  C   UNL     1       0.802   2.356  -3.856  0.00  0.00    +0.030 A 
ATOM     14  C   UNL     1      -0.462   2.224  -3.314  0.00  0.00    +0.022 A 
ATOM     15  C   UNL     1      -1.214   3.350  -3.031  0.00  0.00    +0.041 A 
ATOM     16  C   UNL     1      -0.700   4.608  -3.291  0.00  0.00    +0.022 A 
ATOM     17  C   UNL     1       0.566   4.739  -3.829  0.00  0.00    +0.030 A 
ATOM     18 CL   UNL     1      -2.803   3.185  -2.350  0.00  0.00    -0.084 Cl
ENDBRANCH   9  12
ENDBRANCH   1   9
BRANCH   1  19
ATOM     19  C   UNL     1       4.570   2.642  -2.987  0.00  0.00    +0.148 C 
BRANCH  19  20
ATOM     20  C   UNL     1       3.744   2.195  -1.780  0.00  0.00    +0.126 C 
BRANCH  20  21
ATOM     21  N   UNL     1       4.319   0.969  -1.221  0.00  0.00    -0.188 NA
ATOM     22  H   UNL     1       4.946   0.445  -1.744  0.00  0.00    +0.148 HD
BRANCH  21  23
ATOM     23  S   UNL     1       3.900   0.477   0.304  0.00  0.00    +0.059 S 
ATOM     24  O   UNL     1       4.073   1.601   1.155  0.00  0.00    -0.153 OA
ATOM     25  O   UNL     1       4.564  -0.759   0.529  0.00  0.00    -0.153 OA
BRANCH  23  35
ATOM     26  C   UNL     1       0.649  -2.981  -2.063  0.00  0.00    +0.001 A 
ATOM     27  C   UNL     1       2.017  -2.716  -2.059  0.00  0.00    +0.001 A 
ATOM     28  C   UNL     1       2.534  -1.710  -1.302  0.00  0.00    +0.010 A 
ATOM     29  C   UNL     1       1.677  -0.923  -0.513  0.00  0.00    +0.008 A 
ATOM     30  C   UNL     1       0.285  -1.192  -0.518  0.00  0.00    -0.016 A 
ATOM     31  C   UNL     1      -0.211  -2.240  -1.312  0.00  0.00    +0.008 A 
ATOM     32  C   UNL     1      -0.571  -0.406   0.271  0.00  0.00    +0.008 A 
ATOM     33  C   UNL     1      -0.054   0.601   1.028  0.00  0.00    +0.003 A 
ATOM     34  C   UNL     1       1.314   0.866   1.032  0.00  0.00    +0.029 A 
ATOM     35  C   UNL     1       2.174   0.124   0.281  0.00  0.00    +0.113 A 
ENDBRANCH  23  35
ENDBRANCH  21  23
ENDBRANCH  20  21
ENDBRANCH  19  20
ENDBRANCH   1  19
TORSDOF 8
