REMARK  Name = ZINC63119435
REMARK  12 active torsions:
REMARK  status: ('A' for Active; 'I' for Inactive)
REMARK    1  A    between atoms: C_1  and  C_2
REMARK    2  A    between atoms: C_2  and  C_3
REMARK    3  A    between atoms: C_2  and  O_4
REMARK    4  A    between atoms: O_4  and  C_5
REMARK    5  A    between atoms: C_5  and  C_7
REMARK    6  A    between atoms: C_9  and  N_17
REMARK    7  A    between atoms: C_18  and  C_20
REMARK    8  A    between atoms: N_22  and  C_23
REMARK    9  A    between atoms: C_23  and  C_24
REMARK   10  A    between atoms: C_24  and  C_25
REMARK   11  A    between atoms: C_28  and  O_34
REMARK   12  A    between atoms: O_34  and  C_35
REMARK                            x       y       z     vdW  Elec       q    Type
REMARK                         _______ _______ _______ _____ _____    ______ ____
ROOT
ATOM      1  N   UNL     1      -2.317  -2.704   1.748  0.00  0.00    -0.294 N 
ATOM      2  C   UNL     1      -2.277  -2.068   2.936  0.00  0.00    +0.300 C 
ATOM      3  O   UNL     1      -3.168  -1.305   3.245  0.00  0.00    -0.265 OA
ATOM      4  H   UNL     1      -1.605  -3.315   1.501  0.00  0.00    +0.150 HD
ENDROOT
BRANCH   1   6
ATOM      5  C   UNL     1      -2.946  -2.263  -0.619  0.00  0.00    +0.155 C 
ATOM      6  C   UNL     1      -3.436  -2.474   0.831  0.00  0.00    +0.154 C 
ATOM      7  S   UNL     1      -4.425  -4.005   0.571  0.00  0.00    -0.106 S 
ATOM      8  C   UNL     1      -3.636  -4.571  -0.924  0.00  0.00    -0.013 C 
ATOM      9  C   UNL     1      -2.918  -3.568  -1.392  0.00  0.00    -0.044 C 
ATOM     10  C   UNL     1      -2.213  -4.028  -2.674  0.00  0.00    +0.033 C 
ATOM     11  C   UNL     1      -2.274  -5.567  -2.648  0.00  0.00    +0.009 C 
ATOM     12  C   UNL     1      -3.533  -5.804  -1.791  0.00  0.00    +0.042 C 
BRANCH   5  13
ATOM     13  C   UNL     1      -1.558  -1.678  -0.590  0.00  0.00    +0.317 C 
ATOM     14  O   UNL     1      -0.641  -2.271  -1.109  0.00  0.00    -0.250 OA
BRANCH  13  15
ATOM     15  O   UNL     1      -1.339  -0.499   0.012  0.00  0.00    -0.461 OA
BRANCH  15  17
ATOM     16  C   UNL     1      -0.019   1.526   0.010  0.00  0.00    +0.052 C 
ATOM     17  C   UNL     1       0.002  -0.004   0.002  0.00  0.00    +0.170 C 
ATOM     18  C   UNL     1       0.742  -0.511   1.242  0.00  0.00    +0.052 C 
ENDBRANCH  15  17
ENDBRANCH  13  15
ENDBRANCH   5  13
ENDBRANCH   1   6
BRANCH   2  19
ATOM     19  C   UNL     1      -1.136  -2.304   3.872  0.00  0.00    +0.299 C 
ATOM     20  O   UNL     1      -0.245  -3.067   3.562  0.00  0.00    -0.265 OA
ATOM     21  N   UNL     1      -1.096  -1.667   5.059  0.00  0.00    -0.307 N 
ATOM     22  H   UNL     1      -1.808  -1.057   5.307  0.00  0.00    +0.149 HD
BRANCH  21  23
ATOM     23  C   UNL     1       0.022  -1.898   5.977  0.00  0.00    +0.109 C 
BRANCH  23  24
ATOM     24  C   UNL     1      -0.175  -1.061   7.242  0.00  0.00    +0.052 C 
BRANCH  24  25
ATOM     25  C   UNL     1       0.976  -1.298   8.186  0.00  0.00    -0.040 C 
ATOM     26  C   UNL     1       2.095  -0.550   8.307  0.00  0.00    +0.002 A 
ATOM     27  C   UNL     1       2.561   0.662   7.623  0.00  0.00    +0.055 A 
ATOM     28  C   UNL     1       3.757   1.201   7.963  0.00  0.00    +0.121 A 
ATOM     29  C   UNL     1       4.579   0.640   8.956  0.00  0.00    +0.047 A 
ATOM     30  C   UNL     1       4.237  -0.473   9.639  0.00  0.00    +0.029 A 
ATOM     31  C   UNL     1       2.962  -1.140   9.353  0.00  0.00    +0.043 A 
ATOM     32  N   UNL     1       2.401  -2.210   9.858  0.00  0.00    -0.380 N 
ATOM     33  C   UNL     1       1.109  -2.418   9.194  0.00  0.00    +0.144 C 
ATOM     34  H   UNL     1       2.775  -2.769  10.557  0.00  0.00    +0.160 HD
BRANCH  28  35
ATOM     35  O   UNL     1       4.176   2.324   7.321  0.00  0.00    -0.495 OA
ATOM     36  C   UNL     1       5.443   2.859   7.710  0.00  0.00    +0.277 C 
ENDBRANCH  28  35
ENDBRANCH  24  25
ENDBRANCH  23  24
ENDBRANCH  21  23
ENDBRANCH   2  19
TORSDOF 9
