REMARK  Name = ZINC19362489
REMARK  10 active torsions:
REMARK  status: ('A' for Active; 'I' for Inactive)
REMARK    1  A    between atoms: C_1  and  C_2
REMARK    2  A    between atoms: C_5  and  S_8
REMARK    3  A    between atoms: S_8  and  N_11
REMARK    4  A    between atoms: N_11  and  C_12
REMARK    5  A    between atoms: C_12  and  C_13
REMARK    6  A    between atoms: C_13  and  C_15
REMARK    7  A    between atoms: C_13  and  N_21
REMARK    8  A    between atoms: N_24  and  C_27
REMARK    9  A    between atoms: C_27  and  C_28
REMARK   10  A    between atoms: C_27  and  C_34
REMARK                            x       y       z     vdW  Elec       q    Type
REMARK                         _______ _______ _______ _____ _____    ______ ____
ROOT
ATOM      1  C   UNL     1       0.651  -4.181  -2.901  0.00  0.00    +0.102 C 
ENDROOT
BRANCH   1   2
ATOM      2  N   UNL     1       1.338  -5.289  -2.224  0.00  0.00    -0.298 NA
ATOM      3  C   UNL     1       2.351  -4.785  -1.285  0.00  0.00    +0.066 C 
ATOM      4  C   UNL     1       2.987  -5.963  -0.544  0.00  0.00    -0.062 C 
ATOM      5  N   UNL     1       3.588  -6.884  -1.519  0.00  0.00    +0.389 N 
ATOM      6  C   UNL     1       2.576  -7.388  -2.458  0.00  0.00    -0.062 C 
ATOM      7  C   UNL     1       1.940  -6.209  -3.199  0.00  0.00    +0.066 C 
ATOM      8  H   UNL     1       4.339  -6.325  -2.097  0.00  0.00    -0.080 HD
BRANCH   5   9
ATOM      9  C   UNL     1       4.276  -7.992  -0.842  0.00  0.00    -0.007 C 
BRANCH   9  10
ATOM     10  C   UNL     1       4.823  -8.947  -1.871  0.00  0.00    -0.057 A 
ATOM     11  C   UNL     1       5.513  -8.463  -2.966  0.00  0.00    +0.002 A 
ATOM     12  C   UNL     1       6.019  -9.340  -3.908  0.00  0.00    +0.000 A 
ATOM     13  C   UNL     1       5.826 -10.701  -3.759  0.00  0.00    +0.000 A 
ATOM     14  C   UNL     1       5.130 -11.185  -2.667  0.00  0.00    +0.000 A 
ATOM     15  C   UNL     1       4.629 -10.308  -1.722  0.00  0.00    +0.002 A 
ENDBRANCH   9  10
BRANCH   9  16
ATOM     16  C   UNL     1       5.409  -7.447  -0.011  0.00  0.00    -0.057 A 
ATOM     17  C   UNL     1       6.306  -6.553  -0.566  0.00  0.00    +0.002 A 
ATOM     18  C   UNL     1       7.342  -6.050   0.198  0.00  0.00    +0.000 A 
ATOM     19  C   UNL     1       7.487  -6.447   1.514  0.00  0.00    +0.000 A 
ATOM     20  C   UNL     1       6.593  -7.344   2.067  0.00  0.00    +0.000 A 
ATOM     21  C   UNL     1       5.554  -7.844   1.305  0.00  0.00    +0.002 A 
ENDBRANCH   9  16
ENDBRANCH   5   9
ENDBRANCH   1   2
BRANCH   1  22
ATOM     22  C   UNL     1       1.669  -3.275  -3.544  0.00  0.00    -0.029 A 
ATOM     23  C   UNL     1       2.471  -2.469  -2.758  0.00  0.00    +0.005 A 
ATOM     24  C   UNL     1       3.408  -1.641  -3.348  0.00  0.00    +0.000 A 
ATOM     25  C   UNL     1       3.538  -1.614  -4.724  0.00  0.00    +0.000 A 
ATOM     26  C   UNL     1       2.732  -2.417  -5.510  0.00  0.00    +0.000 A 
ATOM     27  C   UNL     1       1.798  -3.247  -4.920  0.00  0.00    +0.005 A 
ENDBRANCH   1  22
BRANCH   1  28
ATOM     28  C   UNL     1      -0.165  -3.387  -1.879  0.00  0.00    +0.129 C 
BRANCH  28  29
ATOM     29  N   UNL     1      -1.073  -4.291  -1.169  0.00  0.00    -0.188 NA
ATOM     30  H   UNL     1      -1.398  -5.228  -1.645  0.00  0.00    +0.148 HD
BRANCH  29  31
ATOM     31  S   UNL     1      -1.805  -3.798   0.232  0.00  0.00    +0.058 S 
ATOM     32  O   UNL     1      -0.782  -3.252   1.054  0.00  0.00    -0.153 OA
ATOM     33  O   UNL     1      -2.632  -4.872   0.658  0.00  0.00    -0.153 OA
BRANCH  31  38
ATOM     34  C   UNL     1      -5.493   0.760  -1.189  0.00  0.00    +0.044 C 
ATOM     35  C   UNL     1      -4.572  -0.378  -0.834  0.00  0.00    -0.050 A 
ATOM     36  C   UNL     1      -5.039  -1.679  -0.862  0.00  0.00    +0.005 A 
ATOM     37  C   UNL     1      -4.194  -2.724  -0.536  0.00  0.00    +0.029 A 
ATOM     38  C   UNL     1      -2.882  -2.467  -0.183  0.00  0.00    +0.105 A 
ATOM     39  C   UNL     1      -2.416  -1.166  -0.155  0.00  0.00    +0.029 A 
ATOM     40  C   UNL     1      -3.260  -0.122  -0.480  0.00  0.00    +0.005 A 
ENDBRANCH  31  38
ENDBRANCH  29  31
ENDBRANCH  28  29
ENDBRANCH   1  28
TORSDOF 9
