REMARK  Name = ZINC04084070
REMARK  8 active torsions:
REMARK  status: ('A' for Active; 'I' for Inactive)
REMARK    1  A    between atoms: C_1  and  C_2
REMARK    2  A    between atoms: C_2  and  O_4
REMARK    3  A    between atoms: O_4  and  C_5
REMARK    4  A    between atoms: C_5  and  C_6
REMARK    5  A    between atoms: C_12  and  N_15
REMARK    6  A    between atoms: C_19  and  N_22
REMARK    7  A    between atoms: C_24  and  C_26
REMARK    8  A    between atoms: C_24  and  C_27
REMARK                            x       y       z     vdW  Elec       q    Type
REMARK                         _______ _______ _______ _____ _____    ______ ____
ROOT
ATOM      1  C   UNL     1      -0.029  -2.538  -2.403  0.00  0.00    +0.190 C 
ATOM      2  C   UNL     1      -0.026  -4.082  -2.299  0.00  0.00    +0.187 C 
ATOM      3  C   UNL     1       0.650  -4.504  -3.637  0.00  0.00    +0.202 C 
ATOM      4  C   UNL     1       1.363  -3.227  -4.118  0.00  0.00    +0.260 C 
ATOM      5  O   UNL     1       1.200  -2.230  -3.093  0.00  0.00    -0.345 OA
ATOM      6  O   UNL     1       1.626  -5.490  -3.263  0.00  0.00    -0.339 OA
ATOM      7  C   UNL     1       1.497  -5.703  -1.847  0.00  0.00    +0.166 C 
ATOM      8  O   UNL     1       0.936  -4.470  -1.291  0.00  0.00    -0.341 OA
ATOM      9  C   UNL     1       0.551  -6.874  -1.575  0.00  0.00    +0.074 C 
ATOM     10  C   UNL     1       2.870  -5.979  -1.230  0.00  0.00    +0.074 C 
ENDROOT
BRANCH   4  11
ATOM     11  N   UNL     1       2.787  -3.501  -4.329  0.00  0.00    -0.175 N 
ATOM     12  C   UNL     1       3.718  -2.645  -3.863  0.00  0.00    +0.326 C 
ATOM     13  O   UNL     1       3.373  -1.643  -3.266  0.00  0.00    -0.251 OA
ATOM     14  N   UNL     1       5.027  -2.892  -4.054  0.00  0.00    -0.257 N 
ATOM     15  C   UNL     1       5.444  -4.041  -4.739  0.00  0.00    +0.088 C 
ATOM     16  C   UNL     1       4.553  -4.901  -5.208  0.00  0.00    +0.125 C 
ATOM     17  N   UNL     1       3.188  -4.658  -5.012  0.00  0.00    -0.263 N 
ATOM     18  H   UNL     1       5.688  -2.269  -3.715  0.00  0.00    +0.158 HD
ATOM     19  H   UNL     1       2.526  -5.283  -5.348  0.00  0.00    +0.170 HD
BRANCH  15  20
ATOM     20  N   UNL     1       6.809  -4.281  -4.928  0.00  0.00    -0.404 NA
ATOM     21  H   UNL     1       7.167  -4.817  -4.152  0.00  0.00    +0.122 HD
ATOM     22  H   UNL     1       6.944  -4.796  -5.785  0.00  0.00    +0.122 HD
ATOM     23  H   UNL     1       7.300  -3.401  -4.984  0.00  0.00    +0.122 HD
ENDBRANCH  15  20
ENDBRANCH   4  11
BRANCH   1  24
ATOM     24  C   UNL     1      -0.034  -1.907  -1.009  0.00  0.00    +0.266 C 
BRANCH  24  25
ATOM     25  O   UNL     1      -0.108  -0.485  -1.131  0.00  0.00    -0.462 OA
BRANCH  25  27
ATOM     26  C   UNL     1      -0.198   1.729  -0.041  0.00  0.00    +0.136 C 
ATOM     27  C   UNL     1      -0.121   0.225   0.009  0.00  0.00    +0.304 C 
ATOM     28  O   UNL     1      -0.072  -0.343   1.074  0.00  0.00    -0.251 OA
ENDBRANCH  25  27
ENDBRANCH  24  25
ENDBRANCH   1  24
TORSDOF 5
