REMARK  Name = ZINC63490980
REMARK  9 active torsions:
REMARK  status: ('A' for Active; 'I' for Inactive)
REMARK    1  A    between atoms: C_1  and  C_2
REMARK    2  A    between atoms: C_2  and  C_3
REMARK    3  A    between atoms: C_3  and  C_4
REMARK    4  A    between atoms: C_11  and  C_15
REMARK    5  A    between atoms: C_15  and  O_16
REMARK    6  A    between atoms: O_16  and  C_17
REMARK    7  A    between atoms: C_20  and  C_23
REMARK    8  A    between atoms: C_24  and  C_25
REMARK    9  A    between atoms: C_24  and  C_27
REMARK                            x       y       z     vdW  Elec       q    Type
REMARK                         _______ _______ _______ _____ _____    ______ ____
ROOT
ATOM      1  C   UNL     1       2.050 -10.186  -0.155  0.00  0.00    +0.121 A 
ATOM      2  C   UNL     1       2.942 -10.641   0.810  0.00  0.00    +0.046 A 
ATOM      3  C   UNL     1       3.315 -11.966   0.837  0.00  0.00    +0.011 A 
ATOM      4  C   UNL     1       2.796 -12.855  -0.110  0.00  0.00    -0.024 A 
ATOM      5  C   UNL     1       1.899 -12.393  -1.079  0.00  0.00    +0.011 A 
ATOM      6  C   UNL     1       1.528 -11.067  -1.094  0.00  0.00    +0.046 A 
ENDROOT
BRANCH   4   7
ATOM      7  C   UNL     1       3.192 -14.271  -0.087  0.00  0.00    +0.026 C 
ATOM      8  C   UNL     1       3.497 -14.868   1.085  0.00  0.00    +0.072 C 
BRANCH   8   9
ATOM      9  C   UNL     1       4.056 -16.267   1.095  0.00  0.00    +0.216 C 
ATOM     10  N   UNL     1       3.206 -17.143   1.912  0.00  0.00    -0.359 N 
ATOM     11  C   UNL     1       3.939 -17.601   2.885  0.00  0.00    +0.060 A 
ATOM     12  C   UNL     1       3.657 -18.507   4.007  0.00  0.00    +0.027 A 
ATOM     13  C   UNL     1       4.638 -18.809   4.881  0.00  0.00    +0.002 A 
ATOM     14  C   UNL     1       5.940 -18.290   4.768  0.00  0.00    +0.002 A 
ATOM     15  C   UNL     1       6.305 -17.451   3.778  0.00  0.00    +0.027 A 
ATOM     16  C   UNL     1       5.317 -17.052   2.765  0.00  0.00    +0.060 A 
ATOM     17  N   UNL     1       5.383 -16.276   1.722  0.00  0.00    -0.359 N 
ATOM     18  H   UNL     1       2.270 -17.343   1.755  0.00  0.00    +0.162 HD
ATOM     19  H   UNL     1       6.166 -15.792   1.416  0.00  0.00    +0.162 HD
ENDBRANCH   8   9
BRANCH   8  20
ATOM     20  C   UNL     1       3.291 -14.170   2.318  0.00  0.00    +0.099 C 
ATOM     21  N   UNL     1       3.127 -13.617   3.297  0.00  0.00    -0.191 NA
ENDBRANCH   8  20
ENDBRANCH   4   7
BRANCH   1  22
ATOM     22  O   UNL     1       1.685  -8.879  -0.177  0.00  0.00    -0.486 OA
BRANCH  22  23
ATOM     23  C   UNL     1       2.260  -8.028   0.817  0.00  0.00    +0.279 C 
BRANCH  23  30
ATOM     24  C   UNL     1       1.316  -1.899   1.012  0.00  0.00    +0.096 C 
ATOM     25  N   UNL     1       0.688  -2.719   0.227  0.00  0.00    -0.172 NA
ATOM     26  N   UNL     1       0.728  -4.089   0.380  0.00  0.00    -0.158 N 
ATOM     27  C   UNL     1       1.222  -4.517   1.728  0.00  0.00    +0.250 C 
ATOM     28  S   UNL     1       2.148  -2.986   2.166  0.00  0.00    -0.065 S 
ATOM     29  N   UNL     1       2.158  -5.623   1.484  0.00  0.00    -0.316 N 
ATOM     30  C   UNL     1       1.742  -6.625   0.638  0.00  0.00    +0.049 C 
ATOM     31  C   UNL     1       0.870  -6.348  -0.354  0.00  0.00    +0.091 C 
ATOM     32  C   UNL     1       0.403  -5.029  -0.545  0.00  0.00    +0.263 C 
ATOM     33  O   UNL     1      -0.303  -4.752  -1.500  0.00  0.00    -0.269 OA
ATOM     34  H   UNL     1       3.033  -5.646   1.903  0.00  0.00    +0.148 HD
BRANCH  24  35
ATOM     35  C   UNL     1       1.343  -0.393   0.962  0.00  0.00    +0.064 C 
BRANCH  35  37
ATOM     36  C   UNL     1       0.505   1.623  -0.253  0.00  0.00    +0.004 C 
ATOM     37  C   UNL     1       0.477   0.094  -0.202  0.00  0.00    +0.003 C 
ENDBRANCH  35  37
ENDBRANCH  24  35
ENDBRANCH  23  30
ENDBRANCH  22  23
ENDBRANCH   1  22
TORSDOF 8
