REMARK  Name = ZINC39443588
REMARK  6 active torsions:
REMARK  status: ('A' for Active; 'I' for Inactive)
REMARK    1  A    between atoms: C_4  and  C_7
REMARK    2  A    between atoms: C_7  and  N_8
REMARK    3  A    between atoms: C_14  and  C_16
REMARK    4  A    between atoms: C_19  and  C_22
REMARK    5  A    between atoms: C_25  and  O_28
REMARK    6  A    between atoms: O_28  and  C_29
REMARK                            x       y       z     vdW  Elec       q    Type
REMARK                         _______ _______ _______ _____ _____    ______ ____
ROOT
ATOM      1  N   UNL     1       4.152  -0.952   1.338  0.00  0.00    -0.264 N 
ATOM      2  C   UNL     1       4.472  -2.154   1.866  0.00  0.00    +0.130 A 
ATOM      3  C   UNL     1       4.828  -1.957   3.157  0.00  0.00    +0.100 A 
ATOM      4  C   UNL     1       4.721  -0.583   3.429  0.00  0.00    +0.165 A 
ATOM      5  N   UNL     1       4.320   0.018   2.333  0.00  0.00    -0.154 NA
ATOM      6  N   UNL     1       4.999   0.037   4.654  0.00  0.00    -0.266 N 
ATOM      7  C   UNL     1       4.855   1.371   4.782  0.00  0.00    +0.249 C 
ATOM      8  O   UNL     1       4.485   2.035   3.837  0.00  0.00    -0.273 OA
ATOM      9 CL   UNL     1       5.327  -3.185   4.278  0.00  0.00    -0.078 Cl
ATOM     10  H   UNL     1       5.295  -0.493   5.410  0.00  0.00    +0.156 HD
ENDROOT
BRANCH   7  11
ATOM     11  C   UNL     1       5.154   2.039   6.100  0.00  0.00    +0.239 C 
ATOM     12  C   UNL     1       3.967   1.925   7.040  0.00  0.00    +0.040 C 
ATOM     13  C   UNL     1       3.614   3.205   7.269  0.00  0.00    +0.092 C 
ATOM     14  N   UNL     1       4.432   4.052   6.590  0.00  0.00    -0.153 NA
ATOM     15  N   UNL     1       5.310   3.492   5.923  0.00  0.00    -0.170 NA
BRANCH  13  16
ATOM     16  C   UNL     1       2.489   3.630   8.138  0.00  0.00    +0.002 A 
ATOM     17  C   UNL     1       1.714   2.675   8.794  0.00  0.00    +0.013 A 
ATOM     18  C   UNL     1       0.670   3.073   9.602  0.00  0.00    +0.046 A 
ATOM     19  C   UNL     1       0.390   4.423   9.762  0.00  0.00    +0.127 A 
ATOM     20  C   UNL     1       1.160   5.377   9.110  0.00  0.00    +0.046 A 
ATOM     21  C   UNL     1       2.209   4.985   8.306  0.00  0.00    +0.013 A 
BRANCH  19  22
ATOM     22  O   UNL     1      -0.640   4.812  10.558  0.00  0.00    -0.434 OA
BRANCH  22  23
ATOM     23  C   UNL     1      -0.872   6.217  10.678  0.00  0.00    +0.541 C 
ATOM     24  F   UNL     1       0.266   6.834  11.208  0.00  0.00    -0.166 F 
ATOM     25  F   UNL     1      -1.149   6.753   9.416  0.00  0.00    -0.166 F 
ENDBRANCH  22  23
ENDBRANCH  19  22
ENDBRANCH  13  16
ENDBRANCH   7  11
BRANCH   1  26
ATOM     26  C   UNL     1       3.711  -0.707  -0.038  0.00  0.00    +0.178 C 
BRANCH  26  30
ATOM     27  C   UNL     1      -0.017   1.378   0.010  0.00  0.00    +0.000 A 
ATOM     28  C   UNL     1       1.171   2.086   0.002  0.00  0.00    +0.000 A 
ATOM     29  C   UNL     1       2.377   1.411  -0.013  0.00  0.00    +0.005 A 
ATOM     30  C   UNL     1       2.396   0.029  -0.020  0.00  0.00    -0.026 A 
ATOM     31  C   UNL     1       1.208  -0.679  -0.012  0.00  0.00    +0.005 A 
ATOM     32  C   UNL     1       0.002  -0.004   0.002  0.00  0.00    +0.000 A 
ENDBRANCH  26  30
ENDBRANCH   1  26
TORSDOF 6
