REMARK  Name = ZINC58229628
REMARK  9 active torsions:
REMARK  status: ('A' for Active; 'I' for Inactive)
REMARK    1  A    between atoms: C_3  and  S_21
REMARK    2  A    between atoms: C_5  and  C_6
REMARK    3  A    between atoms: C_6  and  N_7
REMARK    4  A    between atoms: N_10  and  C_11
REMARK    5  A    between atoms: C_11  and  C_12
REMARK    6  A    between atoms: C_12  and  C_13
REMARK    7  A    between atoms: C_13  and  N_14
REMARK    8  A    between atoms: N_14  and  C_15
REMARK    9  A    between atoms: S_21  and  N_24
REMARK                            x       y       z     vdW  Elec       q    Type
REMARK                         _______ _______ _______ _____ _____    ______ ____
ROOT
ATOM      1  N   UNL     1      -1.544  -1.274  -1.371  0.00  0.00    -0.295 N 
ATOM      2  C   UNL     1      -2.565  -2.121  -1.611  0.00  0.00    +0.300 C 
ATOM      3  O   UNL     1      -3.162  -2.632  -0.684  0.00  0.00    -0.253 OA
ATOM      4  N   UNL     1      -2.922  -2.402  -2.880  0.00  0.00    -0.299 N 
ATOM      5  H   UNL     1      -1.067  -0.867  -2.111  0.00  0.00    +0.151 HD
ATOM      6  H   UNL     1      -2.445  -1.994  -3.620  0.00  0.00    +0.150 HD
ENDROOT
BRANCH   1   7
ATOM      7  C   UNL     1      -1.155  -0.969   0.008  0.00  0.00    +0.148 C 
BRANCH   7  12
ATOM      8  C   UNL     1      -0.016   1.351   0.009  0.00  0.00    +0.015 A 
ATOM      9  C   UNL     1       1.183   2.038   0.002  0.00  0.00    +0.037 A 
ATOM     10  C   UNL     1       2.343   1.336  -0.013  0.00  0.00    +0.143 A 
ATOM     11  S   UNL     1       1.754  -0.349  -0.017  0.00  0.00    -0.072 S 
ATOM     12  C   UNL     1       0.002  -0.004   0.002  0.00  0.00    +0.009 A 
BRANCH  10  13
ATOM     13  S   UNL     1       4.001   1.932  -0.026  0.00  0.00    +0.067 S 
ATOM     14  O   UNL     1       4.799   0.900  -0.590  0.00  0.00    -0.152 OA
ATOM     15  O   UNL     1       3.957   3.244  -0.570  0.00  0.00    -0.152 OA
BRANCH  13  16
ATOM     16  N   UNL     1       4.477   2.089   1.552  0.00  0.00    -0.176 NA
ATOM     17  C   UNL     1       4.259   3.348   2.277  0.00  0.00    +0.109 C 
ATOM     18  C   UNL     1       3.505   3.045   3.576  0.00  0.00    +0.017 C 
ATOM     19  C   UNL     1       4.272   1.986   4.371  0.00  0.00    +0.003 C 
ATOM     20  C   UNL     1       4.361   0.696   3.552  0.00  0.00    +0.017 C 
ATOM     21  C   UNL     1       5.120   0.971   2.255  0.00  0.00    +0.109 C 
ENDBRANCH  13  16
ENDBRANCH  10  13
ENDBRANCH   7  12
ENDBRANCH   1   7
BRANCH   4  22
ATOM     22  C   UNL     1      -4.031  -3.323  -3.142  0.00  0.00    +0.104 C 
BRANCH  22  23
ATOM     23  C   UNL     1      -4.229  -3.467  -4.652  0.00  0.00    -0.000 C 
BRANCH  23  24
ATOM     24  C   UNL     1      -5.387  -4.428  -4.926  0.00  0.00    -0.081 C 
BRANCH  24  25
ATOM     25  N   UNL     1      -5.577  -4.567  -6.376  0.00  0.00    +0.381 N 
ATOM     26  H   UNL     1      -5.788  -3.665  -6.775  0.00  0.00    -0.086 HD
ATOM     27  H   UNL     1      -4.733  -4.930  -6.792  0.00  0.00    -0.086 HD
BRANCH  25  28
ATOM     28  C   UNL     1      -6.689  -5.490  -6.638  0.00  0.00    -0.072 C 
ATOM     29  C   UNL     1      -6.318  -6.889  -6.143  0.00  0.00    -0.016 C 
ATOM     30  C   UNL     1      -7.476  -7.851  -6.416  0.00  0.00    -0.002 C 
ATOM     31  C   UNL     1      -7.755  -7.899  -7.920  0.00  0.00    -0.000 C 
ATOM     32  C   UNL     1      -8.126  -6.500  -8.415  0.00  0.00    -0.002 C 
ATOM     33  C   UNL     1      -6.968  -5.538  -8.142  0.00  0.00    -0.016 C 
ENDBRANCH  25  28
ENDBRANCH  24  25
ENDBRANCH  23  24
ENDBRANCH  22  23
ENDBRANCH   4  22
TORSDOF 9
