REMARK  Name = ZINC36801832
REMARK  8 active torsions:
REMARK  status: ('A' for Active; 'I' for Inactive)
REMARK    1  A    between atoms: C_1  and  C_2
REMARK    2  A    between atoms: C_2  and  C_4
REMARK    3  A    between atoms: C_2  and  S_16
REMARK    4  A    between atoms: N_6  and  C_7
REMARK    5  A    between atoms: S_16  and  C_17
REMARK    6  A    between atoms: N_22  and  C_23
REMARK    7  A    between atoms: C_26  and  S_29
REMARK    8  A    between atoms: S_29  and  C_30
REMARK                            x       y       z     vdW  Elec       q    Type
REMARK                         _______ _______ _______ _____ _____    ______ ____
ROOT
ATOM      1  C   UNL     1       0.355  -0.208   2.882  0.00  0.00    +0.161 A 
ATOM      2  N   UNL     1      -0.767   0.477   2.988  0.00  0.00    -0.133 NA
ATOM      3  N   UNL     1      -1.280   0.763   4.232  0.00  0.00    -0.125 NA
ATOM      4  C   UNL     1      -0.647   0.350   5.313  0.00  0.00    +0.187 A 
ATOM      5  S   UNL     1       0.752  -0.500   4.599  0.00  0.00    -0.024 S 
ATOM      6  N   UNL     1      -0.982   0.526   6.651  0.00  0.00    -0.292 N 
ATOM      7  H   UNL     1      -0.373   0.231   7.346  0.00  0.00    +0.154 HD
ENDROOT
BRANCH   6   8
ATOM      8  C   UNL     1      -2.198   1.129   6.995  0.00  0.00    +0.033 A 
ATOM      9  C   UNL     1      -2.331   1.776   8.217  0.00  0.00    +0.024 A 
ATOM     10  C   UNL     1      -3.530   2.370   8.556  0.00  0.00    +0.017 A 
ATOM     11  C   UNL     1      -4.603   2.321   7.675  0.00  0.00    +0.013 A 
ATOM     12  C   UNL     1      -4.470   1.674   6.453  0.00  0.00    +0.017 A 
ATOM     13  C   UNL     1      -3.269   1.084   6.112  0.00  0.00    +0.024 A 
BRANCH  11  14
ATOM     14  S   UNL     1      -6.134   3.079   8.108  0.00  0.00    -0.056 S 
BRANCH  14  15
ATOM     15  C   UNL     1      -7.202   2.759   6.678  0.00  0.00    +0.404 C 
ATOM     16  F   UNL     1      -6.635   3.333   5.535  0.00  0.00    -0.197 F 
ATOM     17  F   UNL     1      -7.332   1.379   6.492  0.00  0.00    -0.197 F 
ENDBRANCH  14  15
ENDBRANCH  11  14
ENDBRANCH   6   8
BRANCH   1  18
ATOM     18  S   UNL     1       1.226  -0.708   1.434  0.00  0.00    -0.084 S 
BRANCH  18  20
ATOM     19  C   UNL     1       0.236   1.477   0.120  0.00  0.00    +0.029 C 
ATOM     20  C   UNL     1       0.224  -0.052   0.071  0.00  0.00    +0.136 C 
BRANCH  20  21
ATOM     21  C   UNL     1       0.797  -0.517  -1.242  0.00  0.00    +0.230 C 
ATOM     22  O   UNL     1       1.947  -0.899  -1.302  0.00  0.00    -0.274 OA
ATOM     23  N   UNL     1       0.032  -0.509  -2.352  0.00  0.00    -0.282 N 
ATOM     24  H   UNL     1      -0.905  -0.264  -2.293  0.00  0.00    +0.155 HD
BRANCH  23  25
ATOM     25  C   UNL     1       0.590  -0.855  -3.590  0.00  0.00    +0.072 A 
ATOM     26  C   UNL     1       1.578  -1.827  -3.660  0.00  0.00    +0.029 A 
ATOM     27  C   UNL     1       2.128  -2.167  -4.881  0.00  0.00    +0.043 A 
ATOM     28  C   UNL     1       1.694  -1.540  -6.037  0.00  0.00    +0.161 A 
ATOM     29  C   UNL     1       0.707  -0.569  -5.972  0.00  0.00    +0.195 A 
ATOM     30  C   UNL     1       0.149  -0.229  -4.751  0.00  0.00    +0.182 A 
ATOM     31  F   UNL     1      -0.817   0.713  -4.686  0.00  0.00    -0.200 F 
ATOM     32  F   UNL     1       0.285   0.043  -7.101  0.00  0.00    -0.199 F 
ATOM     33  F   UNL     1       2.234  -1.875  -7.229  0.00  0.00    -0.202 F 
ENDBRANCH  23  25
ENDBRANCH  20  21
ENDBRANCH  18  20
ENDBRANCH   1  18
TORSDOF 7
