REMARK  Name = ZINC40267702
REMARK  4 active torsions:
REMARK  status: ('A' for Active; 'I' for Inactive)
REMARK    1  A    between atoms: C_1  and  C_2
REMARK    2  A    between atoms: C_2  and  C_3
REMARK    3  A    between atoms: C_2  and  N_4
REMARK    4  A    between atoms: C_7  and  C_10
REMARK                            x       y       z     vdW  Elec       q    Type
REMARK                         _______ _______ _______ _____ _____    ______ ____
ROOT
ATOM      1  C   UNL     1       0.207  -1.593   5.913  0.00  0.00    +0.269 C 
ATOM      2  O   UNL     1      -0.532  -1.665   6.876  0.00  0.00    -0.268 OA
ATOM      3  N   UNL     1       1.505  -1.937   6.032  0.00  0.00    -0.259 N 
ATOM      4  C   UNL     1       1.997  -2.372   7.251  0.00  0.00    +0.166 A 
ATOM      5  N   UNL     1       1.361  -2.521   8.390  0.00  0.00    -0.225 NA
ATOM      6  C   UNL     1       1.973  -2.959   9.511  0.00  0.00    +0.080 A 
ATOM      7  C   UNL     1       1.409  -3.161  10.792  0.00  0.00    +0.029 A 
ATOM      8  C   UNL     1       2.177  -3.615  11.832  0.00  0.00    +0.002 A 
ATOM      9  C   UNL     1       3.527  -3.890  11.669  0.00  0.00    +0.001 A 
ATOM     10  C   UNL     1       4.112  -3.704  10.431  0.00  0.00    +0.017 A 
ATOM     11  C   UNL     1       3.350  -3.250   9.383  0.00  0.00    +0.041 A 
ATOM     12  S   UNL     1       3.657  -2.881   7.672  0.00  0.00    -0.052 S 
ATOM     13  H   UNL     1       2.094  -1.880   5.264  0.00  0.00    +0.157 HD
ENDROOT
BRANCH   1  17
ATOM     14  N   UNL     1       0.711  -0.489   1.189  0.00  0.00    -0.321 N 
ATOM     15  C   UNL     1       0.033  -0.637   2.387  0.00  0.00    +0.159 A 
ATOM     16  N   UNL     1       0.487  -1.049   3.554  0.00  0.00    -0.220 NA
ATOM     17  C   UNL     1      -0.315  -1.131   4.618  0.00  0.00    +0.135 A 
ATOM     18  C   UNL     1      -1.635  -0.779   4.485  0.00  0.00    +0.081 A 
ATOM     19  S   UNL     1      -1.684  -0.313   2.760  0.00  0.00    -0.060 S 
ATOM     20  H   UNL     1       1.654  -0.707   1.135  0.00  0.00    +0.148 HD
BRANCH  14  22
ATOM     21  C   UNL     1      -0.019   1.526   0.010  0.00  0.00    +0.027 C 
ATOM     22  C   UNL     1       0.002  -0.004   0.002  0.00  0.00    +0.066 C 
ATOM     23  C   UNL     1       0.718  -0.497  -1.257  0.00  0.00    +0.027 C 
ENDBRANCH  14  22
ENDBRANCH   1  17
TORSDOF 2
