REMARK  Name = ZINC21084529
REMARK  6 active torsions:
REMARK  status: ('A' for Active; 'I' for Inactive)
REMARK    1  A    between atoms: C_6  and  N_7
REMARK    2  A    between atoms: C_8  and  C_10
REMARK    3  A    between atoms: C_10  and  C_11
REMARK    4  A    between atoms: C_11  and  S_12
REMARK    5  A    between atoms: S_12  and  C_13
REMARK    6  A    between atoms: N_19  and  N_20
REMARK                            x       y       z     vdW  Elec       q    Type
REMARK                         _______ _______ _______ _____ _____    ______ ____
ROOT
ATOM      1  C   UNL     1      -3.236  -6.928  -0.560  0.00  0.00    +0.190 A 
ATOM      2  N   UNL     1      -4.063  -8.010  -0.672  0.00  0.00    -0.303 N 
ATOM      3  H   UNL     1      -5.032  -7.986  -0.696  0.00  0.00    +0.171 HD
ATOM      4  C   UNL     1      -3.284  -9.131  -0.744  0.00  0.00    +0.235 A 
ATOM      5  N   UNL     1      -2.029  -8.757  -0.680  0.00  0.00    -0.111 NA
ATOM      6  N   UNL     1      -1.998  -7.361  -0.569  0.00  0.00    -0.121 NA
ATOM      7  N   UNL     1      -3.742 -10.436  -0.865  0.00  0.00    -0.205 N 
ATOM      8  H   UNL     1      -4.694 -10.614  -0.905  0.00  0.00    +0.177 HD
ENDROOT
BRANCH   7   9
ATOM      9  N   UNL     1      -2.828 -11.496  -0.928  0.00  0.00    -0.189 NA
ATOM     10  C   UNL     1      -3.244 -12.688  -1.140  0.00  0.00    +0.037 C 
ATOM     11  C   UNL     1      -4.724 -12.989  -1.230  0.00  0.00    +0.052 C 
ATOM     12  C   UNL     1      -4.984 -13.773  -2.520  0.00  0.00    +0.006 C 
ATOM     13  C   UNL     1      -4.086 -15.011  -2.553  0.00  0.00    +0.001 C 
ATOM     14  C   UNL     1      -2.618 -14.585  -2.595  0.00  0.00    +0.006 C 
ATOM     15  C   UNL     1      -2.268 -13.831  -1.314  0.00  0.00    +0.052 C 
ENDBRANCH   7   9
BRANCH   1  16
ATOM     16  S   UNL     1      -3.743  -5.245  -0.434  0.00  0.00    -0.086 S 
BRANCH  16  17
ATOM     17  C   UNL     1      -2.185  -4.324  -0.324  0.00  0.00    +0.086 C 
BRANCH  17  18
ATOM     18  C   UNL     1      -2.484  -2.828  -0.209  0.00  0.00    +0.107 C 
BRANCH  18  20
ATOM     19  N   UNL     1      -1.206  -0.719  -0.009  0.00  0.00    -0.285 N 
ATOM     20  C   UNL     1      -1.189  -2.062  -0.118  0.00  0.00    +0.218 C 
ATOM     21  O   UNL     1      -0.131  -2.655  -0.143  0.00  0.00    -0.275 OA
ATOM     22  H   UNL     1      -2.050  -0.251   0.086  0.00  0.00    +0.155 HD
BRANCH  19  28
ATOM     23  C   UNL     1       1.060  -0.449  -0.801  0.00  0.00    +0.024 A 
ATOM     24  C   UNL     1       2.243   0.263  -0.822  0.00  0.00    +0.016 A 
ATOM     25  C   UNL     1       2.367   1.423  -0.080  0.00  0.00    +0.013 A 
ATOM     26  C   UNL     1       1.307   1.874   0.686  0.00  0.00    +0.016 A 
ATOM     27  C   UNL     1       0.121   1.166   0.712  0.00  0.00    +0.024 A 
ATOM     28  C   UNL     1      -0.006   0.001  -0.033  0.00  0.00    +0.033 A 
ATOM     29  I   UNL     1       4.163   2.500  -0.115  0.00  0.00    -0.044 I 
ENDBRANCH  19  28
ENDBRANCH  18  20
ENDBRANCH  17  18
ENDBRANCH  16  17
ENDBRANCH   1  16
TORSDOF 6
