REMARK  Name = ZINC12629817
REMARK  12 active torsions:
REMARK  status: ('A' for Active; 'I' for Inactive)
REMARK    1  A    between atoms: C_1  and  O_2
REMARK    2  A    between atoms: O_2  and  C_3
REMARK    3  A    between atoms: C_3  and  C_4
REMARK    4  A    between atoms: C_4  and  N_5
REMARK    5  A    between atoms: C_9  and  S_28
REMARK    6  A    between atoms: N_14  and  C_15
REMARK    7  A    between atoms: C_15  and  C_17
REMARK    8  A    between atoms: C_17  and  C_18
REMARK    9  A    between atoms: C_18  and  C_19
REMARK   10  A    between atoms: C_19  and  S_20
REMARK   11  A    between atoms: S_20  and  C_21
REMARK   12  A    between atoms: S_28  and  N_31
REMARK                            x       y       z     vdW  Elec       q    Type
REMARK                         _______ _______ _______ _____ _____    ______ ____
ROOT
ATOM      1  N   UNL     1      -0.532   1.426   7.352  0.00  0.00    -0.319 N 
ATOM      2  C   UNL     1      -1.321   1.926   8.372  0.00  0.00    +0.058 A 
ATOM      3  C   UNL     1      -1.152   1.774   9.758  0.00  0.00    +0.029 A 
ATOM      4  C   UNL     1      -2.042   2.339  10.640  0.00  0.00    +0.030 A 
ATOM      5  C   UNL     1      -3.128   3.072  10.194  0.00  0.00    +0.106 A 
ATOM      6  C   UNL     1      -3.319   3.237   8.833  0.00  0.00    +0.045 A 
ATOM      7  C   UNL     1      -2.430   2.673   7.950  0.00  0.00    +0.041 A 
ATOM      8  S   UNL     1      -2.295   2.635   6.180  0.00  0.00    -0.052 S 
ATOM      9  C   UNL     1      -0.852   1.682   6.056  0.00  0.00    +0.166 A 
ATOM     10  N   UNL     1      -0.213   1.290   4.956  0.00  0.00    -0.156 NA
ENDROOT
BRANCH   5  11
ATOM     11  S   UNL     1      -4.255   3.786  11.345  0.00  0.00    +0.056 S 
ATOM     12  O   UNL     1      -5.485   3.960  10.654  0.00  0.00    -0.153 OA
ATOM     13  O   UNL     1      -4.154   3.023  12.539  0.00  0.00    -0.153 OA
BRANCH  11  14
ATOM     14  N   UNL     1      -3.695   5.303  11.702  0.00  0.00    -0.204 NA
ATOM     15  H   UNL     1      -2.880   5.629  11.289  0.00  0.00    +0.144 HD
ATOM     16  H   UNL     1      -4.181   5.865  12.325  0.00  0.00    +0.144 HD
ENDBRANCH  11  14
ENDBRANCH   5  11
BRANCH  10  17
ATOM     17  C   UNL     1      -0.679   1.633   3.760  0.00  0.00    +0.238 C 
ATOM     18  O   UNL     1      -1.688   2.305   3.670  0.00  0.00    -0.274 OA
BRANCH  17  19
ATOM     19  C   UNL     1       0.044   1.190   2.514  0.00  0.00    +0.099 C 
BRANCH  19  20
ATOM     20  C   UNL     1      -0.694   1.715   1.281  0.00  0.00    +0.020 C 
BRANCH  20  21
ATOM     21  C   UNL     1       0.040   1.265   0.017  0.00  0.00    +0.075 C 
BRANCH  21  22
ATOM     22  S   UNL     1      -0.836   1.888  -1.445  0.00  0.00    -0.125 S 
BRANCH  22  23
ATOM     23  C   UNL     1       0.120   1.293  -2.800  0.00  0.00    +0.008 A 
ATOM     24  C   UNL     1       1.262   0.536  -2.568  0.00  0.00    +0.016 A 
ATOM     25  C   UNL     1       2.007   0.067  -3.632  0.00  0.00    +0.021 A 
ATOM     26  C   UNL     1       1.623   0.359  -4.929  0.00  0.00    +0.041 A 
ATOM     27  C   UNL     1       0.488   1.117  -5.164  0.00  0.00    +0.021 A 
ATOM     28  C   UNL     1      -0.263   1.584  -4.104  0.00  0.00    +0.016 A 
ATOM     29 CL   UNL     1       2.565  -0.226  -6.264  0.00  0.00    -0.084 Cl
ENDBRANCH  22  23
ENDBRANCH  21  22
ENDBRANCH  20  21
ENDBRANCH  19  20
ENDBRANCH  17  19
ENDBRANCH  10  17
BRANCH   1  30
ATOM     30  C   UNL     1       0.652   0.624   7.669  0.00  0.00    +0.152 C 
BRANCH  30  31
ATOM     31  C   UNL     1       0.807  -0.488   6.630  0.00  0.00    +0.181 C 
BRANCH  31  33
ATOM     32  C   UNL     1       2.111  -2.429   6.103  0.00  0.00    +0.194 C 
ATOM     33  O   UNL     1       1.881  -1.351   7.012  0.00  0.00    -0.381 OA
ENDBRANCH  31  33
ENDBRANCH  30  31
ENDBRANCH   1  30
TORSDOF 11
