REMARK  Name = ZINC63467918
REMARK  6 active torsions:
REMARK  status: ('A' for Active; 'I' for Inactive)
REMARK    1  A    between atoms: C_1  and  C_2
REMARK    2  A    between atoms: C_4  and  N_8
REMARK    3  A    between atoms: C_9  and  C_11
REMARK    4  A    between atoms: C_11  and  S_12
REMARK    5  A    between atoms: S_12  and  C_13
REMARK    6  A    between atoms: C_23  and  C_28
REMARK                            x       y       z     vdW  Elec       q    Type
REMARK                         _______ _______ _______ _____ _____    ______ ____
ROOT
ATOM      1  C   UNL     1      -2.847  -7.332   3.398  0.00  0.00    +0.169 C 
ATOM      2  N   UNL     1      -2.722  -6.626   4.490  0.00  0.00    -0.225 NA
ATOM      3  C   UNL     1      -3.052  -7.119   5.710  0.00  0.00    +0.077 A 
ATOM      4  C   UNL     1      -2.912  -6.347   6.867  0.00  0.00    +0.028 A 
ATOM      5  C   UNL     1      -3.257  -6.881   8.089  0.00  0.00    +0.002 A 
ATOM      6  C   UNL     1      -3.743  -8.177   8.187  0.00  0.00    +0.001 A 
ATOM      7  C   UNL     1      -3.890  -8.956   7.059  0.00  0.00    +0.013 A 
ATOM      8  C   UNL     1      -3.547  -8.435   5.816  0.00  0.00    +0.041 A 
ATOM      9  C   UNL     1      -3.687  -9.233   4.578  0.00  0.00    +0.139 C 
ATOM     10  N   UNL     1      -4.112 -10.453   4.404  0.00  0.00    -0.250 NA
ATOM     11  C   UNL     1      -4.045 -10.751   2.966  0.00  0.00    +0.224 C 
ATOM     12  C   UNL     1      -3.504  -9.478   2.353  0.00  0.00    +0.256 C 
ATOM     13  O   UNL     1      -3.282  -9.265   1.180  0.00  0.00    -0.272 OA
ATOM     14  N   UNL     1      -3.325  -8.625   3.388  0.00  0.00    -0.200 N 
ENDROOT
BRANCH  11  15
ATOM     15  C   UNL     1      -3.110 -11.904   2.709  0.00  0.00    -0.014 A 
ATOM     16  C   UNL     1      -1.944 -12.024   3.441  0.00  0.00    +0.006 A 
ATOM     17  C   UNL     1      -1.086 -13.082   3.205  0.00  0.00    +0.000 A 
ATOM     18  C   UNL     1      -1.395 -14.021   2.238  0.00  0.00    +0.000 A 
ATOM     19  C   UNL     1      -2.562 -13.901   1.507  0.00  0.00    +0.000 A 
ATOM     20  C   UNL     1      -3.422 -12.845   1.746  0.00  0.00    +0.006 A 
ENDBRANCH  11  15
BRANCH   1  21
ATOM     21  S   UNL     1      -2.389  -6.593   1.865  0.00  0.00    -0.080 S 
BRANCH  21  22
ATOM     22  C   UNL     1      -1.828  -4.931   2.329  0.00  0.00    +0.172 C 
BRANCH  22  24
ATOM     23  N   UNL     1      -0.946  -2.918   1.194  0.00  0.00    -0.288 N 
ATOM     24  C   UNL     1      -1.402  -4.182   1.093  0.00  0.00    +0.225 C 
ATOM     25  O   UNL     1      -1.470  -4.717   0.006  0.00  0.00    -0.275 OA
ATOM     26  H   UNL     1      -0.891  -2.491   2.063  0.00  0.00    +0.151 HD
BRANCH  23  30
ATOM     27  C   UNL     1      -0.018   1.503   0.010  0.00  0.00    +0.067 C 
ATOM     28  C   UNL     1       0.002  -0.004   0.002  0.00  0.00    +0.060 C 
ATOM     29  C   UNL     1      -1.086  -0.777   0.003  0.00  0.00    +0.045 C 
ATOM     30  C   UNL     1      -0.531  -2.190  -0.007  0.00  0.00    +0.239 C 
ATOM     31  N   UNL     1       0.926  -1.973  -0.013  0.00  0.00    -0.160 NA
ATOM     32  N   UNL     1       1.125  -0.756  -0.013  0.00  0.00    -0.157 NA
ENDBRANCH  23  30
ENDBRANCH  22  24
ENDBRANCH  21  22
ENDBRANCH   1  21
TORSDOF 5
