REMARK  Name = ZINC14095870
REMARK  9 active torsions:
REMARK  status: ('A' for Active; 'I' for Inactive)
REMARK    1  A    between atoms: C_1  and  C_2
REMARK    2  A    between atoms: C_2  and  C_4
REMARK    3  A    between atoms: C_2  and  N_56
REMARK    4  A    between atoms: N_6  and  C_7
REMARK    5  A    between atoms: C_7  and  C_8
REMARK    6  A    between atoms: C_17  and  C_18
REMARK    7  A    between atoms: C_17  and  N_56
REMARK    8  A    between atoms: C_18  and  C_20
REMARK    9  A    between atoms: C_18  and  C_25
REMARK                            x       y       z     vdW  Elec       q    Type
REMARK                         _______ _______ _______ _____ _____    ______ ____
ROOT
ATOM      1  N   UNL     1       5.738   4.268   1.275  0.00  0.00    +0.387 N 
ATOM      2  H   UNL     1       5.850   3.248   1.306  0.00  0.00    -0.085 HD
ATOM      3  H   UNL     1       6.194   4.637   0.432  0.00  0.00    -0.085 HD
ENDROOT
BRANCH   1   5
ATOM      4  C   UNL     1       6.183   3.926   3.664  0.00  0.00    -0.004 C 
ATOM      5  C   UNL     1       6.367   4.863   2.469  0.00  0.00    +0.013 C 
BRANCH   5   6
ATOM      6  C   UNL     1       7.838   5.059   2.207  0.00  0.00    +0.199 C 
ATOM      7  O   UNL     1       8.311   4.739   1.137  0.00  0.00    -0.278 OA
ATOM      8  N   UNL     1       8.628   5.589   3.161  0.00  0.00    -0.313 N 
ATOM      9  H   UNL     1       8.250   5.845   4.017  0.00  0.00    +0.149 HD
BRANCH   8  10
ATOM     10  C   UNL     1      10.058   5.780   2.906  0.00  0.00    +0.139 C 
BRANCH  10  11
ATOM     11  C   UNL     1      10.709   6.384   4.123  0.00  0.00    -0.027 A 
ATOM     12  C   UNL     1      10.790   7.758   4.252  0.00  0.00    +0.009 A 
ATOM     13  C   UNL     1      11.382   8.318   5.369  0.00  0.00    +0.050 A 
ATOM     14  C   UNL     1      11.906   7.501   6.358  0.00  0.00    +0.166 A 
ATOM     15  C   UNL     1      11.829   6.117   6.226  0.00  0.00    +0.167 A 
ATOM     16  C   UNL     1      11.230   5.563   5.107  0.00  0.00    +0.054 A 
ATOM     17  O   UNL     1      12.410   5.541   7.320  0.00  0.00    -0.453 OA
ATOM     18  C   UNL     1      13.204   6.579   7.924  0.00  0.00    +0.466 C 
ATOM     19  O   UNL     1      12.534   7.793   7.534  0.00  0.00    -0.453 OA
ENDBRANCH  10  11
ENDBRANCH   8  10
ENDBRANCH   5   6
ENDBRANCH   1   5
BRANCH   1  20
ATOM     20  C   UNL     1       4.301   4.598   1.235  0.00  0.00    -0.068 C 
BRANCH  20  21
ATOM     21  C   UNL     1       3.676   3.969  -0.011  0.00  0.00    +0.041 C 
BRANCH  21  22
ATOM     22  C   UNL     1       2.186   4.197   0.004  0.00  0.00    -0.016 A 
ATOM     23  C   UNL     1       1.560   5.385   0.016  0.00  0.00    +0.087 A 
ATOM     24  N   UNL     1       0.205   5.198   0.028  0.00  0.00    -0.360 N 
ATOM     25  H   UNL     1      -0.455   5.909   0.038  0.00  0.00    +0.165 HD
ATOM     26  C   UNL     1      -0.082   3.852   0.024  0.00  0.00    +0.047 A 
ATOM     27  C   UNL     1       1.147   3.166   0.008  0.00  0.00    +0.003 A 
ATOM     28  C   UNL     1       1.165   1.770   0.000  0.00  0.00    +0.010 A 
ATOM     29  C   UNL     1      -0.013   1.076   0.008  0.00  0.00    +0.001 A 
ATOM     30  C   UNL     1      -1.227   1.748   0.017  0.00  0.00    +0.002 A 
ATOM     31  C   UNL     1      -1.268   3.125   0.031  0.00  0.00    +0.026 A 
ENDBRANCH  21  22
BRANCH  21  32
ATOM     32  C   UNL     1       4.268   4.602  -1.244  0.00  0.00    -0.005 A 
ATOM     33  C   UNL     1       4.959   4.019  -2.255  0.00  0.00    +0.012 A 
ATOM     34  C   UNL     1       5.413   4.805  -3.297  0.00  0.00    +0.008 A 
ATOM     35  C   UNL     1       5.154   6.135  -3.278  0.00  0.00    +0.045 A 
ATOM     36  S   UNL     1       4.237   6.311  -1.757  0.00  0.00    -0.101 S 
ENDBRANCH  21  32
ENDBRANCH  20  21
ENDBRANCH   1  20
TORSDOF 8
