REMARK  Name = ZINC22923196
REMARK  14 active torsions:
REMARK  status: ('A' for Active; 'I' for Inactive)
REMARK    1  A    between atoms: C_1  and  C_2
REMARK    2  A    between atoms: C_2  and  C_3
REMARK    3  A    between atoms: C_3  and  C_4
REMARK    4  A    between atoms: C_7  and  C_10
REMARK    5  A    between atoms: C_10  and  C_12
REMARK    6  A    between atoms: C_10  and  N_13
REMARK    7  A    between atoms: C_14  and  C_16
REMARK    8  A    between atoms: C_16  and  N_17
REMARK    9  A    between atoms: N_20  and  C_23
REMARK   10  A    between atoms: C_23  and  C_24
REMARK   11  A    between atoms: C_27  and  C_30
REMARK   12  A    between atoms: C_30  and  C_31
REMARK   13  A    between atoms: C_30  and  C_32
REMARK   14  A    between atoms: C_30  and  C_33
REMARK                            x       y       z     vdW  Elec       q    Type
REMARK                         _______ _______ _______ _____ _____    ______ ____
ROOT
ATOM      1  N   UNL     1       0.772  -9.815  -4.619  0.00  0.00    +0.387 N 
ATOM      2  C   UNL     1       2.232  -9.726  -4.744  0.00  0.00    -0.063 C 
ATOM      3  C   UNL     1       2.810 -11.122  -4.987  0.00  0.00    +0.066 C 
ATOM      4  N   UNL     1       2.229 -11.681  -6.216  0.00  0.00    -0.302 NA
ATOM      5  C   UNL     1       0.765 -11.754  -6.115  0.00  0.00    +0.066 C 
ATOM      6  C   UNL     1       0.204 -10.353  -5.862  0.00  0.00    -0.063 C 
ATOM      7  H   UNL     1       0.537 -10.426  -3.850  0.00  0.00    -0.081 HD
ENDROOT
BRANCH   1   8
ATOM      8  C   UNL     1       0.219  -8.478  -4.367  0.00  0.00    +0.019 C 
BRANCH   8  10
ATOM      9  N   UNL     1       0.324  -6.763  -2.587  0.00  0.00    -0.310 N 
ATOM     10  C   UNL     1       0.705  -7.977  -3.031  0.00  0.00    +0.197 C 
ATOM     11  O   UNL     1       1.440  -8.666  -2.356  0.00  0.00    -0.278 OA
ATOM     12  H   UNL     1      -0.263  -6.211  -3.127  0.00  0.00    +0.149 HD
BRANCH   9  13
ATOM     13  C   UNL     1       0.797  -6.276  -1.289  0.00  0.00    +0.100 C 
ATOM     14  C   UNL     1      -0.117  -6.805  -0.182  0.00  0.00    +0.033 C 
BRANCH  13  18
ATOM     15  C   UNL     1       0.739  -2.004  -1.265  0.00  0.00    -0.047 A 
ATOM     16  C   UNL     1       1.788  -2.685  -0.675  0.00  0.00    +0.004 A 
ATOM     17  C   UNL     1       1.806  -4.067  -0.683  0.00  0.00    +0.006 A 
ATOM     18  C   UNL     1       0.776  -4.769  -1.280  0.00  0.00    -0.027 A 
ATOM     19  C   UNL     1      -0.273  -4.088  -1.869  0.00  0.00    +0.006 A 
ATOM     20  C   UNL     1      -0.294  -2.706  -1.858  0.00  0.00    +0.004 A 
BRANCH  15  21
ATOM     21  C   UNL     1       0.718  -0.497  -1.257  0.00  0.00    +0.035 C 
BRANCH  21  23
ATOM     22  C   UNL     1      -0.019   1.526   0.010  0.00  0.00    +0.004 C 
ATOM     23  C   UNL     1       0.002  -0.004   0.002  0.00  0.00    +0.001 C 
ENDBRANCH  21  23
ENDBRANCH  15  21
ENDBRANCH  13  18
ENDBRANCH   9  13
ENDBRANCH   8  10
ENDBRANCH   1   8
BRANCH   4  24
ATOM     24  C   UNL     1       2.803 -13.001  -6.516  0.00  0.00    +0.119 C 
BRANCH  24  25
ATOM     25  C   UNL     1       2.374 -13.433  -7.894  0.00  0.00    -0.033 A 
ATOM     26  C   UNL     1       1.206 -14.153  -8.061  0.00  0.00    +0.005 A 
ATOM     27  C   UNL     1       0.814 -14.549  -9.326  0.00  0.00    +0.004 A 
ATOM     28  C   UNL     1       1.589 -14.225 -10.424  0.00  0.00    -0.042 A 
ATOM     29  C   UNL     1       2.756 -13.504 -10.257  0.00  0.00    +0.004 A 
ATOM     30  C   UNL     1       3.147 -13.104  -8.993  0.00  0.00    +0.005 A 
BRANCH  28  31
ATOM     31  C   UNL     1       1.161 -14.658 -11.803  0.00  0.00    -0.013 C 
ATOM     32  C   UNL     1      -0.207 -14.055 -12.125  0.00  0.00    +0.015 C 
ATOM     33  C   UNL     1       2.187 -14.175 -12.830  0.00  0.00    +0.015 C 
ATOM     34  C   UNL     1       1.070 -16.185 -11.852  0.00  0.00    +0.015 C 
ENDBRANCH  28  31
ENDBRANCH  24  25
ENDBRANCH   4  24
TORSDOF 9
