REMARK  Name = ZINC21078639
REMARK  13 active torsions:
REMARK  status: ('A' for Active; 'I' for Inactive)
REMARK    1  A    between atoms: C_1  and  C_2
REMARK    2  A    between atoms: C_2  and  C_3
REMARK    3  A    between atoms: C_3  and  C_5
REMARK    4  A    between atoms: C_3  and  S_6
REMARK    5  A    between atoms: S_6  and  C_7
REMARK    6  A    between atoms: C_13  and  C_15
REMARK    7  A    between atoms: C_15  and  S_16
REMARK    8  A    between atoms: S_16  and  C_17
REMARK    9  A    between atoms: N_22  and  N_23
REMARK   10  A    between atoms: C_24  and  C_25
REMARK   11  A    between atoms: C_28  and  O_32
REMARK   12  A    between atoms: C_29  and  O_31
REMARK   13  A    between atoms: O_32  and  C_33
REMARK                            x       y       z     vdW  Elec       q    Type
REMARK                         _______ _______ _______ _____ _____    ______ ____
ROOT
ATOM      1  C   UNL     1      -0.016   1.362   0.009  0.00  0.00    +0.211 A 
ATOM      2  N   UNL     1       0.002  -0.004   0.002  0.00  0.00    -0.186 NA
ATOM      3  C   UNL     1       1.308  -0.409  -0.013  0.00  0.00    +0.232 A 
ATOM      4  N   UNL     1       2.064   0.662  -0.014  0.00  0.00    -0.245 N 
ATOM      5  N   UNL     1       1.225   1.784  -0.000  0.00  0.00    -0.144 NA
ATOM      6  N   UNL     1       1.754  -1.722  -0.023  0.00  0.00    -0.205 N 
ATOM      7  H   UNL     1       1.030  -2.550  -0.020  0.00  0.00    +0.177 HD
ATOM      8  H   UNL     1       3.159   0.562  -0.025  0.00  0.00    +0.192 HD
ENDROOT
BRANCH   6   9
ATOM      9  N   UNL     1       3.129  -1.995  -0.038  0.00  0.00    -0.188 NA
ATOM     10  C   UNL     1       3.546  -3.225  -0.048  0.00  0.00    +0.138 C 
BRANCH  10  11
ATOM     11  C   UNL     1       4.992  -3.511  -0.063  0.00  0.00    -0.002 A 
ATOM     12  C   UNL     1       5.915  -2.462  -0.073  0.00  0.00    +0.013 A 
ATOM     13  C   UNL     1       7.267  -2.733  -0.083  0.00  0.00    +0.050 A 
ATOM     14  C   UNL     1       7.715  -4.045  -0.093  0.00  0.00    +0.161 A 
ATOM     15  C   UNL     1       6.801  -5.097  -0.089  0.00  0.00    +0.159 A 
ATOM     16  C   UNL     1       5.444  -4.834  -0.074  0.00  0.00    +0.058 A 
BRANCH  15  17
ATOM     17  O   UNL     1       7.244  -6.383  -0.099  0.00  0.00    -0.503 OA
ATOM     18  H   UNL     1       6.523  -7.213  -0.096  0.00  0.00    +0.292 HD
ENDBRANCH  15  17
BRANCH  14  19
ATOM     19  O   UNL     1       9.049  -4.307  -0.108  0.00  0.00    -0.491 OA
ATOM     20  C   UNL     1       9.930  -3.182  -0.112  0.00  0.00    +0.277 C 
ENDBRANCH  14  19
ENDBRANCH  10  11
ENDBRANCH   6   9
BRANCH   1  21
ATOM     21  S   UNL     1      -1.456   2.378   0.022  0.00  0.00    -0.075 S 
BRANCH  21  22
ATOM     22  C   UNL     1      -0.799   4.069   0.028  0.00  0.00    +0.173 C 
BRANCH  22  29
ATOM     23  C   UNL     1      -4.504   9.286   0.075  0.00  0.00    +0.160 A 
ATOM     24  N   UNL     1      -4.886   8.017   0.070  0.00  0.00    -0.133 NA
ATOM     25  N   UNL     1      -4.053   7.070   0.055  0.00  0.00    -0.125 NA
ATOM     26  C   UNL     1      -2.748   7.284   0.055  0.00  0.00    +0.189 A 
ATOM     27  S   UNL     1      -2.726   9.074   0.065  0.00  0.00    -0.024 S 
ATOM     28  N   UNL     1      -1.692   6.376   0.045  0.00  0.00    -0.263 N 
ATOM     29  C   UNL     1      -1.942   5.051   0.039  0.00  0.00    +0.229 C 
ATOM     30  O   UNL     1      -3.087   4.650   0.043  0.00  0.00    -0.275 OA
ATOM     31  H   UNL     1      -0.654   6.739   0.042  0.00  0.00    +0.157 HD
BRANCH  23  32
ATOM     32  S   UNL     1      -5.470  10.759   0.088  0.00  0.00    -0.094 S 
BRANCH  32  33
ATOM     33  C   UNL     1      -7.182  10.162   0.093  0.00  0.00    +0.050 C 
ATOM     34  C   UNL     1      -7.457   9.411   1.398  0.00  0.00    +0.019 C 
BRANCH  33  36
ATOM     35  C   UNL     1      -7.949  12.028  -1.381  0.00  0.00    +0.005 C 
ATOM     36  C   UNL     1      -8.138  11.351  -0.022  0.00  0.00    +0.011 C 
ENDBRANCH  33  36
ENDBRANCH  32  33
ENDBRANCH  23  32
ENDBRANCH  22  29
ENDBRANCH  21  22
ENDBRANCH   1  21
TORSDOF 10
