REMARK  Name = ZINC02953111
REMARK  8 active torsions:
REMARK  status: ('A' for Active; 'I' for Inactive)
REMARK    1  A    between atoms: C_1  and  C_2
REMARK    2  A    between atoms: C_2  and  C_3
REMARK    3  A    between atoms: C_6  and  N_9
REMARK    4  A    between atoms: C_11  and  C_23
REMARK    5  A    between atoms: C_14  and  C_21
REMARK    6  A    between atoms: C_17  and  C_20
REMARK    7  A    between atoms: C_21  and  O_22
REMARK    8  A    between atoms: N_25  and  C_26
REMARK                            x       y       z     vdW  Elec       q    Type
REMARK                         _______ _______ _______ _____ _____    ______ ____
ROOT
ATOM      1  N   UNL     1      -6.114  -1.688   0.841  0.00  0.00    -0.325 N 
ATOM      2  C   UNL     1      -6.294  -1.346  -0.416  0.00  0.00    +0.212 A 
ATOM      3  C   UNL     1      -7.212  -2.108  -1.286  0.00  0.00    +0.098 A 
ATOM      4  C   UNL     1      -7.783  -1.435  -2.344  0.00  0.00    +0.030 A 
ATOM      5  C   UNL     1      -7.426  -0.025  -2.514  0.00  0.00    +0.027 A 
ATOM      6  C   UNL     1      -8.134   0.814  -3.382  0.00  0.00    +0.007 A 
ATOM      7  C   UNL     1      -7.742   2.132  -3.488  0.00  0.00    +0.117 A 
ATOM      8  N   UNL     1      -6.723   2.601  -2.790  0.00  0.00    -0.256 NA
ATOM      9  C   UNL     1      -6.026   1.851  -1.961  0.00  0.00    +0.081 A 
ATOM     10  C   UNL     1      -6.345   0.511  -1.790  0.00  0.00    +0.159 A 
ATOM     11  O   UNL     1      -5.644  -0.278  -0.947  0.00  0.00    -0.437 OA
ATOM     12  C   UNL     1      -4.875   2.451  -1.195  0.00  0.00    +0.069 C 
ATOM     13  H   UNL     1      -6.665  -2.381   1.238  0.00  0.00    +0.169 HD
ENDROOT
BRANCH   1  17
ATOM     14  C   UNL     1      -3.198   0.186   3.099  0.00  0.00    -0.047 A 
ATOM     15  C   UNL     1      -4.458  -0.016   3.633  0.00  0.00    +0.005 A 
ATOM     16  C   UNL     1      -5.436  -0.640   2.886  0.00  0.00    +0.026 A 
ATOM     17  C   UNL     1      -5.150  -1.069   1.587  0.00  0.00    +0.042 A 
ATOM     18  C   UNL     1      -3.875  -0.861   1.055  0.00  0.00    +0.026 A 
ATOM     19  C   UNL     1      -2.910  -0.231   1.812  0.00  0.00    +0.005 A 
BRANCH  14  21
ATOM     20  C   UNL     1      -2.204   2.379   3.691  0.00  0.00    +0.009 C 
ATOM     21  C   UNL     1      -2.136   0.869   3.922  0.00  0.00    +0.032 C 
ENDBRANCH  14  21
ENDBRANCH   1  17
BRANCH   3  22
ATOM     22  C   UNL     1      -7.505  -3.530  -1.032  0.00  0.00    +0.253 C 
ATOM     23  O   UNL     1      -8.358  -4.101  -1.685  0.00  0.00    -0.270 OA
ATOM     24  N   UNL     1      -6.828  -4.199  -0.077  0.00  0.00    -0.281 N 
ATOM     25  H   UNL     1      -6.187  -3.731   0.480  0.00  0.00    +0.155 HD
BRANCH  24  26
ATOM     26  C   UNL     1      -7.051  -5.566   0.110  0.00  0.00    +0.034 A 
ATOM     27  C   UNL     1      -8.320  -6.097  -0.079  0.00  0.00    +0.023 A 
ATOM     28  C   UNL     1      -8.537  -7.449   0.107  0.00  0.00    +0.002 A 
ATOM     29  C   UNL     1      -7.491  -8.273   0.482  0.00  0.00    +0.000 A 
ATOM     30  C   UNL     1      -6.226  -7.747   0.671  0.00  0.00    +0.002 A 
ATOM     31  C   UNL     1      -6.002  -6.398   0.481  0.00  0.00    +0.023 A 
ENDBRANCH  24  26
ENDBRANCH   3  22
BRANCH   6  32
ATOM     32  C   UNL     1      -9.298   0.290  -4.183  0.00  0.00    +0.193 C 
BRANCH  32  33
ATOM     33  O   UNL     1      -9.840   1.344  -4.982  0.00  0.00    -0.390 OA
ATOM     34  H   UNL     1     -10.594   1.077  -5.525  0.00  0.00    +0.210 HD
ENDBRANCH  32  33
ENDBRANCH   6  32
TORSDOF 6
