REMARK  Name = ZINC66925607
REMARK  9 active torsions:
REMARK  status: ('A' for Active; 'I' for Inactive)
REMARK    1  A    between atoms: C_1  and  C_2
REMARK    2  A    between atoms: C_3  and  C_9
REMARK    3  A    between atoms: C_4  and  C_8
REMARK    4  A    between atoms: N_5  and  C_7
REMARK    5  A    between atoms: C_9  and  C_11
REMARK    6  A    between atoms: C_9  and  N_12
REMARK    7  A    between atoms: N_15  and  C_16
REMARK    8  A    between atoms: C_16  and  C_17
REMARK    9  A    between atoms: C_17  and  O_27
REMARK                            x       y       z     vdW  Elec       q    Type
REMARK                         _______ _______ _______ _____ _____    ______ ____
ROOT
ATOM      1  N   UNL     1       1.391   0.446  -2.628  0.00  0.00    -0.293 N 
ATOM      2  C   UNL     1       1.814   0.779  -3.864  0.00  0.00    +0.300 C 
ATOM      3  O   UNL     1       1.572   0.050  -4.806  0.00  0.00    -0.253 OA
ATOM      4  N   UNL     1       2.504   1.921  -4.055  0.00  0.00    -0.296 N 
ATOM      5  H   UNL     1       1.583   1.028  -1.876  0.00  0.00    +0.151 HD
ATOM      6  H   UNL     1       2.696   2.503  -3.303  0.00  0.00    +0.150 HD
ENDROOT
BRANCH   1   7
ATOM      7  C   UNL     1       0.641  -0.795  -2.420  0.00  0.00    +0.105 C 
ATOM      8  C   UNL     1      -0.843  -0.548  -2.702  0.00  0.00    +0.033 C 
BRANCH   7  11
ATOM      9  C   UNL     1       0.452   1.035   0.160  0.00  0.00    +0.068 C 
ATOM     10  C   UNL     1       0.729  -0.446   0.144  0.00  0.00    +0.065 A 
ATOM     11  C   UNL     1       0.812  -1.253  -0.995  0.00  0.00    +0.016 A 
ATOM     12  C   UNL     1       1.073  -2.518  -0.591  0.00  0.00    +0.041 A 
ATOM     13  N   UNL     1       1.152  -2.511   0.756  0.00  0.00    -0.271 N 
ATOM     14  N   UNL     1       0.938  -1.198   1.194  0.00  0.00    -0.176 NA
ATOM     15  C   UNL     1       1.421  -3.672   1.609  0.00  0.00    +0.172 C 
ATOM     16  C   UNL     1       1.245  -3.719  -1.485  0.00  0.00    +0.065 C 
ENDBRANCH   7  11
ENDBRANCH   1   7
BRANCH   4  17
ATOM     17  C   UNL     1       2.963   2.283  -5.398  0.00  0.00    +0.145 C 
BRANCH  17  18
ATOM     18  C   UNL     1       3.829   3.542  -5.319  0.00  0.00    +0.107 C 
ATOM     19  C   UNL     1       4.999   3.289  -4.370  0.00  0.00    +0.041 C 
ATOM     20  C   UNL     1       5.968   4.474  -4.471  0.00  0.00    +0.008 C 
ATOM     21  C   UNL     1       6.647   4.425  -5.838  0.00  0.00    +0.035 C 
ATOM     22  C   UNL     1       5.622   4.298  -6.935  0.00  0.00    -0.041 A 
ATOM     23  C   UNL     1       4.329   3.889  -6.697  0.00  0.00    -0.011 A 
ATOM     24  C   UNL     1       3.435   3.786  -7.754  0.00  0.00    +0.007 A 
ATOM     25  C   UNL     1       3.830   4.094  -9.040  0.00  0.00    +0.000 A 
ATOM     26  C   UNL     1       5.127   4.508  -9.278  0.00  0.00    +0.000 A 
ATOM     27  C   UNL     1       6.018   4.609  -8.229  0.00  0.00    +0.004 A 
BRANCH  18  28
ATOM     28  O   UNL     1       3.042   4.624  -4.817  0.00  0.00    -0.382 OA
ATOM     29  H   UNL     1       2.273   4.838  -5.364  0.00  0.00    +0.211 HD
ENDBRANCH  18  28
ENDBRANCH  17  18
ENDBRANCH   4  17
TORSDOF 5
