REMARK  Name = ZINC11669232
REMARK  8 active torsions:
REMARK  status: ('A' for Active; 'I' for Inactive)
REMARK    1  A    between atoms: C_4  and  C_7
REMARK    2  A    between atoms: C_9  and  N_18
REMARK    3  A    between atoms: N_10  and  C_12
REMARK    4  A    between atoms: C_19  and  C_21
REMARK    5  A    between atoms: C_21  and  S_22
REMARK    6  A    between atoms: S_22  and  C_23
REMARK    7  A    between atoms: C_26  and  C_29
REMARK    8  A    between atoms: N_27  and  N_28
REMARK                            x       y       z     vdW  Elec       q    Type
REMARK                         _______ _______ _______ _____ _____    ______ ____
ROOT
ATOM      1  N   UNL     1      -0.017   1.390   0.010  0.00  0.00    -0.270 N 
ATOM      2  C   UNL     1       1.141   2.080   0.002  0.00  0.00    +0.229 C 
ATOM      3  O   UNL     1       2.200   1.488  -0.011  0.00  0.00    -0.275 OA
ATOM      4  H   UNL     1      -0.863   1.864   0.016  0.00  0.00    +0.156 HD
ENDROOT
BRANCH   1   7
ATOM      5  C   UNL     1       0.685  -2.133  -0.015  0.00  0.00    +0.095 A 
ATOM      6  C   UNL     1       1.110  -0.791  -0.012  0.00  0.00    +0.074 A 
ATOM      7  C   UNL     1       0.002  -0.004   0.002  0.00  0.00    +0.129 A 
ATOM      8  N   UNL     1      -1.086  -0.823   0.013  0.00  0.00    -0.218 N 
ATOM      9  N   UNL     1      -0.632  -2.147  -0.003  0.00  0.00    -0.165 NA
BRANCH   5  13
ATOM     10  C   UNL     1       3.216  -5.550  -0.056  0.00  0.00    +0.000 A 
ATOM     11  C   UNL     1       1.842  -5.710  -0.044  0.00  0.00    +0.001 A 
ATOM     12  C   UNL     1       1.016  -4.604  -0.031  0.00  0.00    +0.010 A 
ATOM     13  C   UNL     1       1.568  -3.325  -0.029  0.00  0.00    +0.002 A 
ATOM     14  C   UNL     1       2.953  -3.170  -0.047  0.00  0.00    +0.010 A 
ATOM     15  C   UNL     1       3.769  -4.282  -0.055  0.00  0.00    +0.001 A 
ENDBRANCH   5  13
BRANCH   8  16
ATOM     16  C   UNL     1      -2.425  -0.412   0.035  0.00  0.00    +0.067 A 
ATOM     17  C   UNL     1      -2.793   0.727   0.740  0.00  0.00    +0.028 A 
ATOM     18  C   UNL     1      -4.113   1.133   0.754  0.00  0.00    +0.002 A 
ATOM     19  C   UNL     1      -5.070   0.400   0.076  0.00  0.00    +0.000 A 
ATOM     20  C   UNL     1      -4.708  -0.738  -0.622  0.00  0.00    +0.002 A 
ATOM     21  C   UNL     1      -3.389  -1.145  -0.645  0.00  0.00    +0.028 A 
ENDBRANCH   8  16
ENDBRANCH   1   7
BRANCH   2  22
ATOM     22  C   UNL     1       1.121   3.587   0.011  0.00  0.00    +0.173 C 
BRANCH  22  23
ATOM     23  S   UNL     1       2.819   4.213  -0.002  0.00  0.00    -0.075 S 
BRANCH  23  24
ATOM     24  C   UNL     1       2.505   5.947   0.010  0.00  0.00    +0.209 A 
ATOM     25  N   UNL     1       1.325   6.526   0.025  0.00  0.00    -0.120 NA
ATOM     26  N   UNL     1       1.459   7.804   0.031  0.00  0.00    -0.123 NA
ATOM     27  C   UNL     1       2.735   8.121   0.020  0.00  0.00    +0.217 A 
ATOM     28  N   UNL     1       3.444   6.941   0.012  0.00  0.00    -0.221 N 
BRANCH  27  29
ATOM     29  C   UNL     1       3.298   9.480   0.022  0.00  0.00    +0.173 A 
ATOM     30  C   UNL     1       2.622  10.627   0.315  0.00  0.00    +0.053 A 
ATOM     31  C   UNL     1       3.545  11.684   0.197  0.00  0.00    +0.042 A 
ATOM     32  C   UNL     1       4.724  11.140  -0.166  0.00  0.00    +0.196 A 
ATOM     33  O   UNL     1       4.572   9.810  -0.271  0.00  0.00    -0.460 OA
ENDBRANCH  27  29
BRANCH  28  34
ATOM     34  N   UNL     1       4.802   6.793   0.004  0.00  0.00    -0.294 N 
ATOM     35  H   UNL     1       5.157   6.760  -0.940  0.00  0.00    +0.163 HD
ATOM     36  H   UNL     1       5.249   7.527   0.533  0.00  0.00    +0.163 HD
ENDBRANCH  28  34
ENDBRANCH  23  24
ENDBRANCH  22  23
ENDBRANCH   2  22
TORSDOF 8
