REMARK  Name = ZINC14579296
REMARK  11 active torsions:
REMARK  status: ('A' for Active; 'I' for Inactive)
REMARK    1  A    between atoms: C_1  and  C_2
REMARK    2  A    between atoms: C_2  and  C_3
REMARK    3  A    between atoms: C_2  and  C_4
REMARK    4  A    between atoms: C_4  and  C_5
REMARK    5  A    between atoms: C_5  and  N_6
REMARK    6  A    between atoms: N_6  and  C_7
REMARK    7  A    between atoms: C_8  and  N_23
REMARK    8  A    between atoms: N_9  and  C_16
REMARK    9  A    between atoms: C_16  and  C_17
REMARK   10  A    between atoms: C_24  and  C_26
REMARK   11  A    between atoms: C_26  and  C_27
REMARK                            x       y       z     vdW  Elec       q    Type
REMARK                         _______ _______ _______ _____ _____    ______ ____
ROOT
ATOM      1  C   UNL     1       3.357   2.711   1.142  0.00  0.00    +0.140 A 
ATOM      2  C   UNL     1       3.697   1.645   0.334  0.00  0.00    +0.128 A 
ATOM      3  N   UNL     1       3.001   1.439  -0.834  0.00  0.00    -0.276 N 
ATOM      4  C   UNL     1       1.994   2.261  -1.180  0.00  0.00    +0.331 A 
ATOM      5  O   UNL     1       1.388   2.060  -2.215  0.00  0.00    -0.246 OA
ATOM      6  N   UNL     1       1.646   3.302  -0.403  0.00  0.00    -0.273 N 
ATOM      7  H   UNL     1       0.893   3.898  -0.684  0.00  0.00    +0.173 HD
ATOM      8  C   UNL     1       2.299   3.551   0.749  0.00  0.00    +0.277 A 
ATOM      9  O   UNL     1       1.975   4.497   1.446  0.00  0.00    -0.266 OA
ENDROOT
BRANCH   1  10
ATOM     10  N   UNL     1       4.056   2.951   2.344  0.00  0.00    -0.264 N 
ATOM     11  C   UNL     1       3.424   2.821   3.529  0.00  0.00    +0.224 C 
ATOM     12  O   UNL     1       2.234   2.587   3.559  0.00  0.00    -0.275 OA
BRANCH  10  13
ATOM     13  C   UNL     1       5.467   3.342   2.305  0.00  0.00    +0.114 C 
BRANCH  13  14
ATOM     14  C   UNL     1       5.576   4.867   2.372  0.00  0.00    +0.022 C 
BRANCH  14  16
ATOM     15  C   UNL     1       7.155   6.800   2.272  0.00  0.00    +0.007 C 
ATOM     16  C   UNL     1       7.050   5.275   2.332  0.00  0.00    -0.016 C 
ATOM     17  C   UNL     1       7.755   4.764   3.589  0.00  0.00    +0.007 C 
ENDBRANCH  14  16
ENDBRANCH  13  14
ENDBRANCH  10  13
BRANCH  11  18
ATOM     18  C   UNL     1       4.196   2.967   4.815  0.00  0.00    +0.131 C 
BRANCH  18  19
ATOM     19  C   UNL     1       3.265   2.779   5.984  0.00  0.00    -0.039 A 
ATOM     20  C   UNL     1       2.611   3.868   6.530  0.00  0.00    +0.005 A 
ATOM     21  C   UNL     1       1.753   3.694   7.600  0.00  0.00    +0.015 A 
ATOM     22  C   UNL     1       1.556   2.433   8.131  0.00  0.00    +0.018 A 
ATOM     23  C   UNL     1       2.215   1.344   7.588  0.00  0.00    +0.015 A 
ATOM     24  C   UNL     1       3.069   1.517   6.515  0.00  0.00    +0.005 A 
ATOM     25 BR   UNL     1       0.388   2.196   9.599  0.00  0.00    -0.050 Br
ENDBRANCH  18  19
ENDBRANCH  11  18
ENDBRANCH   1  10
BRANCH   2  26
ATOM     26  N   UNL     1       4.722   0.801   0.691  0.00  0.00    -0.343 N 
ATOM     27  H   UNL     1       5.015   0.109   0.078  0.00  0.00    +0.144 HD
ATOM     28  H   UNL     1       5.152   0.899   1.554  0.00  0.00    +0.144 HD
ENDBRANCH   2  26
BRANCH   3  29
ATOM     29  C   UNL     1       3.354   0.314  -1.704  0.00  0.00    +0.163 C 
BRANCH  29  30
ATOM     30  C   UNL     1       4.392   0.757  -2.702  0.00  0.00    -0.028 A 
ATOM     31  C   UNL     1       4.001   1.271  -3.924  0.00  0.00    +0.005 A 
ATOM     32  C   UNL     1       4.954   1.682  -4.837  0.00  0.00    +0.000 A 
ATOM     33  C   UNL     1       6.298   1.569  -4.533  0.00  0.00    +0.000 A 
ATOM     34  C   UNL     1       6.689   1.049  -3.313  0.00  0.00    +0.000 A 
ATOM     35  C   UNL     1       5.736   0.643  -2.397  0.00  0.00    +0.005 A 
ENDBRANCH  29  30
ENDBRANCH   3  29
TORSDOF 9
