REMARK  Name = ZINC39948195
REMARK  7 active torsions:
REMARK  status: ('A' for Active; 'I' for Inactive)
REMARK    1  A    between atoms: C_4  and  C_7
REMARK    2  A    between atoms: C_7  and  C_8
REMARK    3  A    between atoms: C_14  and  C_16
REMARK    4  A    between atoms: C_16  and  S_17
REMARK    5  A    between atoms: S_17  and  C_18
REMARK    6  A    between atoms: C_22  and  C_30
REMARK    7  A    between atoms: N_23  and  C_24
REMARK                            x       y       z     vdW  Elec       q    Type
REMARK                         _______ _______ _______ _____ _____    ______ ____
ROOT
ATOM      1  C   UNL     1      10.497  -2.065   4.878  0.00  0.00    +0.241 C 
ATOM      2  N   UNL     1      10.441  -3.408   5.481  0.00  0.00    -0.237 N 
ATOM      3  N   UNL     1      10.988  -4.287   4.539  0.00  0.00    -0.167 NA
ATOM      4  C   UNL     1      11.361  -3.660   3.466  0.00  0.00    +0.171 C 
ATOM      5  N   UNL     1      11.110  -2.287   3.558  0.00  0.00    -0.253 N 
ATOM      6  H   UNL     1      10.094  -3.637   6.357  0.00  0.00    +0.171 HD
ENDROOT
BRANCH   4   7
ATOM      7  C   UNL     1      11.971  -4.311   2.300  0.00  0.00    +0.108 A 
ATOM      8  C   UNL     1      12.142  -5.688   2.115  0.00  0.00    +0.030 A 
ATOM      9  C   UNL     1      11.839  -6.833   2.872  0.00  0.00    +0.012 A 
ATOM     10  C   UNL     1      12.151  -8.062   2.382  0.00  0.00    +0.001 A 
ATOM     11  C   UNL     1      12.769  -8.221   1.141  0.00  0.00    +0.002 A 
ATOM     12  C   UNL     1      13.089  -7.157   0.361  0.00  0.00    +0.030 A 
ATOM     13  C   UNL     1      12.792  -5.851   0.808  0.00  0.00    +0.093 A 
ATOM     14  N   UNL     1      12.966  -4.640   0.308  0.00  0.00    -0.173 NA
ATOM     15  N   UNL     1      12.464  -3.691   1.205  0.00  0.00    -0.273 N 
ATOM     16  H   UNL     1      12.472  -2.731   1.063  0.00  0.00    +0.189 HD
ENDBRANCH   4   7
BRANCH   5  17
ATOM     17  C   UNL     1      11.386  -1.318   2.591  0.00  0.00    +0.038 A 
ATOM     18  C   UNL     1      10.487  -1.092   1.556  0.00  0.00    +0.023 A 
ATOM     19  C   UNL     1      10.762  -0.133   0.601  0.00  0.00    +0.002 A 
ATOM     20  C   UNL     1      11.932   0.602   0.674  0.00  0.00    +0.000 A 
ATOM     21  C   UNL     1      12.829   0.380   1.703  0.00  0.00    +0.002 A 
ATOM     22  C   UNL     1      12.557  -0.574   2.664  0.00  0.00    +0.023 A 
ENDBRANCH   5  17
BRANCH   1  23
ATOM     23  S   UNL     1       8.828  -1.380   4.696  0.00  0.00    -0.108 S 
BRANCH  23  24
ATOM     24  C   UNL     1       7.952  -2.615   3.697  0.00  0.00    +0.168 C 
BRANCH  24  31
ATOM     25  C   UNL     1       4.357  -3.907   0.453  0.00  0.00    -0.004 C 
ATOM     26  C   UNL     1       4.026  -2.521   1.010  0.00  0.00    +0.023 C 
ATOM     27  C   UNL     1       4.303  -2.501   2.517  0.00  0.00    +0.108 C 
ATOM     28  N   UNL     1       5.690  -2.928   2.748  0.00  0.00    -0.301 N 
ATOM     29  C   UNL     1       6.140  -4.205   2.178  0.00  0.00    +0.108 C 
ATOM     30  C   UNL     1       5.841  -4.207   0.675  0.00  0.00    +0.023 C 
ATOM     31  C   UNL     1       6.533  -2.163   3.469  0.00  0.00    +0.226 C 
ATOM     32  O   UNL     1       6.150  -1.111   3.934  0.00  0.00    -0.275 OA
BRANCH  25  33
ATOM     33  C   UNL     1       4.048  -3.942  -1.045  0.00  0.00    +0.038 C 
BRANCH  33  37
ATOM     34  C   UNL     1      -0.152  -3.453  -1.647  0.00  0.00    +0.000 A 
ATOM     35  C   UNL     1       0.674  -2.345  -1.606  0.00  0.00    +0.000 A 
ATOM     36  C   UNL     1       2.033  -2.503  -1.411  0.00  0.00    +0.003 A 
ATOM     37  C   UNL     1       2.566  -3.769  -1.257  0.00  0.00    -0.047 A 
ATOM     38  C   UNL     1       1.740  -4.877  -1.297  0.00  0.00    +0.003 A 
ATOM     39  C   UNL     1       0.381  -4.719  -1.493  0.00  0.00    +0.000 A 
ENDBRANCH  33  37
ENDBRANCH  25  33
ENDBRANCH  24  31
ENDBRANCH  23  24
ENDBRANCH   1  23
TORSDOF 7
