REMARK  Name = ZINC65074765
REMARK  5 active torsions:
REMARK  status: ('A' for Active; 'I' for Inactive)
REMARK    1  A    between atoms: C_3  and  S_6
REMARK    2  A    between atoms: S_6  and  N_9
REMARK    3  A    between atoms: N_20  and  C_21
REMARK    4  A    between atoms: C_21  and  C_22
REMARK    5  A    between atoms: C_25  and  C_28
REMARK                            x       y       z     vdW  Elec       q    Type
REMARK                         _______ _______ _______ _____ _____    ______ ____
ROOT
ATOM      1  N   UNL     1       4.477   2.089   1.552  0.00  0.00    -0.176 NA
ATOM      2  C   UNL     1       4.259   3.348   2.278  0.00  0.00    +0.112 C 
ATOM      3  C   UNL     1       5.593   3.813   2.870  0.00  0.00    +0.047 C 
ATOM      4  C   UNL     1       6.185   2.690   3.727  0.00  0.00    +0.075 C 
ATOM      5  C   UNL     1       6.449   1.464   2.847  0.00  0.00    +0.047 C 
ATOM      6  C   UNL     1       5.120   0.971   2.256  0.00  0.00    +0.112 C 
ATOM      7  C   UNL     1       7.476   3.154   4.341  0.00  0.00    +0.089 C 
ATOM      8  N   UNL     1       7.590   3.505   5.566  0.00  0.00    -0.374 N 
ATOM      9  C   UNL     1       6.487   3.489   6.520  0.00  0.00    +0.129 C 
ATOM     10  C   UNL     1       5.151   3.415   5.778  0.00  0.00    +0.102 C 
ATOM     11  N   UNL     1       5.229   2.331   4.784  0.00  0.00    -0.303 NA
ATOM     12  N   UNL     1       8.591   3.204   3.546  0.00  0.00    -0.329 N 
ATOM     13  H   UNL     1       4.319   2.131   4.395  0.00  0.00    +0.123 HD
ATOM     14  H   UNL     1       8.533   2.943   2.613  0.00  0.00    +0.147 HD
ATOM     15  H   UNL     1       8.460   3.799   5.878  0.00  0.00    +0.161 HD
ENDROOT
BRANCH   1  16
ATOM     16  S   UNL     1       4.001   1.932  -0.026  0.00  0.00    +0.067 S 
ATOM     17  O   UNL     1       4.799   0.900  -0.590  0.00  0.00    -0.152 OA
ATOM     18  O   UNL     1       3.957   3.244  -0.570  0.00  0.00    -0.152 OA
BRANCH  16  21
ATOM     19  C   UNL     1      -0.016   1.351   0.009  0.00  0.00    +0.010 A 
ATOM     20  C   UNL     1       1.183   2.038   0.002  0.00  0.00    +0.036 A 
ATOM     21  C   UNL     1       2.343   1.336  -0.013  0.00  0.00    +0.143 A 
ATOM     22  S   UNL     1       1.754  -0.349  -0.017  0.00  0.00    -0.077 S 
ATOM     23  C   UNL     1       0.002  -0.004   0.002  0.00  0.00    +0.047 A 
ENDBRANCH  16  21
ENDBRANCH   1  16
BRANCH  12  24
ATOM     24  C   UNL     1       9.869   3.651   4.104  0.00  0.00    +0.138 C 
BRANCH  24  25
ATOM     25  C   UNL     1      10.926   3.614   3.032  0.00  0.00    -0.030 A 
ATOM     26  C   UNL     1      11.671   2.466   2.835  0.00  0.00    +0.006 A 
ATOM     27  C   UNL     1      12.642   2.432   1.851  0.00  0.00    +0.013 A 
ATOM     28  C   UNL     1      12.866   3.545   1.063  0.00  0.00    +0.055 A 
ATOM     29  C   UNL     1      12.121   4.692   1.259  0.00  0.00    +0.013 A 
ATOM     30  C   UNL     1      11.148   4.725   2.240  0.00  0.00    +0.006 A 
BRANCH  28  31
ATOM     31  C   UNL     1      13.925   3.508  -0.009  0.00  0.00    +0.417 C 
ATOM     32  F   UNL     1      13.358   3.063  -1.209  0.00  0.00    -0.166 F 
ATOM     33  F   UNL     1      14.450   4.792  -0.190  0.00  0.00    -0.166 F 
ATOM     34  F   UNL     1      14.948   2.635   0.375  0.00  0.00    -0.166 F 
ENDBRANCH  28  31
ENDBRANCH  24  25
ENDBRANCH  12  24
TORSDOF 5
