REMARK  Name = ZINC12478649
REMARK  13 active torsions:
REMARK  status: ('A' for Active; 'I' for Inactive)
REMARK    1  A    between atoms: C_1  and  C_2
REMARK    2  A    between atoms: C_5  and  C_8
REMARK    3  A    between atoms: N_11  and  C_13
REMARK    4  A    between atoms: C_13  and  C_14
REMARK    5  A    between atoms: N_16  and  C_17
REMARK    6  A    between atoms: N_16  and  C_25
REMARK    7  A    between atoms: C_17  and  C_18
REMARK    8  A    between atoms: C_25  and  C_27
REMARK    9  A    between atoms: C_25  and  C_32
REMARK   10  A    between atoms: N_34  and  C_35
REMARK   11  A    between atoms: C_35  and  C_36
REMARK   12  A    between atoms: C_35  and  C_37
REMARK   13  A    between atoms: C_35  and  C_38
REMARK                            x       y       z     vdW  Elec       q    Type
REMARK                         _______ _______ _______ _____ _____    ______ ____
ROOT
ATOM      1  C   UNL     1      -5.145   1.144  -1.547  0.00  0.00    +0.240 C 
ATOM      2  O   UNL     1      -5.063   0.539  -2.594  0.00  0.00    -0.273 OA
ATOM      3  N   UNL     1      -4.104   1.152  -0.690  0.00  0.00    -0.279 N 
ENDROOT
BRANCH   1   4
ATOM      4  C   UNL     1      -6.409   1.889  -1.203  0.00  0.00    +0.264 C 
BRANCH   4   8
ATOM      5  C   UNL     1      -8.649   1.680  -3.922  0.00  0.00    +0.205 A 
ATOM      6  N   UNL     1      -9.045   0.645  -3.168  0.00  0.00    -0.108 NA
ATOM      7  N   UNL     1      -8.286   0.618  -2.125  0.00  0.00    -0.045 NA
ATOM      8  N   UNL     1      -7.440   1.586  -2.199  0.00  0.00    -0.154 N 
ATOM      9  N   UNL     1      -7.646   2.250  -3.284  0.00  0.00    -0.130 NA
BRANCH   5  14
ATOM     10  C   UNL     1     -10.907   3.331  -8.957  0.00  0.00    +0.044 C 
ATOM     11  C   UNL     1     -10.316   2.899  -7.640  0.00  0.00    -0.050 A 
ATOM     12  C   UNL     1     -10.837   1.802  -6.977  0.00  0.00    +0.004 A 
ATOM     13  C   UNL     1     -10.300   1.402  -5.770  0.00  0.00    +0.012 A 
ATOM     14  C   UNL     1      -9.231   2.105  -5.220  0.00  0.00    +0.023 A 
ATOM     15  C   UNL     1      -8.713   3.212  -5.889  0.00  0.00    +0.012 A 
ATOM     16  C   UNL     1      -9.255   3.600  -7.098  0.00  0.00    +0.004 A 
ENDBRANCH   5  14
ENDBRANCH   4   8
ENDBRANCH   1   4
BRANCH   3  17
ATOM     17  C   UNL     1      -4.220   1.843   0.597  0.00  0.00    +0.147 C 
BRANCH  17  18
ATOM     18  C   UNL     1      -3.400   3.107   0.563  0.00  0.00    +0.005 A 
ATOM     19  C   UNL     1      -2.266   3.216   1.345  0.00  0.00    +0.008 A 
ATOM     20  C   UNL     1      -1.510   4.373   1.311  0.00  0.00    +0.000 A 
ATOM     21  C   UNL     1      -1.895   5.427   0.503  0.00  0.00    +0.003 A 
ATOM     22  C   UNL     1      -3.032   5.323  -0.276  0.00  0.00    +0.038 A 
ATOM     23  C   UNL     1      -3.787   4.162  -0.246  0.00  0.00    +0.128 A 
ATOM     24  F   UNL     1      -4.899   4.059  -1.006  0.00  0.00    -0.205 F 
ENDBRANCH  17  18
ENDBRANCH   3  17
BRANCH   3  25
ATOM     25  C   UNL     1      -2.858   0.469  -1.045  0.00  0.00    +0.199 C 
BRANCH  25  26
ATOM     26  C   UNL     1      -2.477  -0.487   0.056  0.00  0.00    +0.019 A 
ATOM     27  C   UNL     1      -2.240  -1.819  -0.015  0.00  0.00    +0.013 A 
ATOM     28  C   UNL     1      -1.900  -2.502   1.138  0.00  0.00    +0.008 A 
ATOM     29  C   UNL     1      -1.815  -1.819   2.305  0.00  0.00    +0.045 A 
ATOM     30  S   UNL     1      -2.215  -0.157   1.791  0.00  0.00    -0.099 S 
ENDBRANCH  25  26
BRANCH  25  31
ATOM     31  C   UNL     1      -1.762   1.487  -1.228  0.00  0.00    +0.239 C 
ATOM     32  O   UNL     1      -2.027   2.671  -1.223  0.00  0.00    -0.273 OA
ATOM     33  N   UNL     1      -0.487   1.083  -1.396  0.00  0.00    -0.309 N 
ATOM     34  H   UNL     1      -0.283   0.136  -1.455  0.00  0.00    +0.149 HD
BRANCH  33  35
ATOM     35  C   UNL     1       0.589   2.072  -1.494  0.00  0.00    +0.026 C 
ATOM     36  C   UNL     1       0.676   2.862  -0.187  0.00  0.00    +0.031 C 
ATOM     37  C   UNL     1       1.917   1.357  -1.748  0.00  0.00    +0.031 C 
ATOM     38  C   UNL     1       0.295   3.030  -2.651  0.00  0.00    +0.031 C 
ENDBRANCH  33  35
ENDBRANCH  25  31
ENDBRANCH   3  25
TORSDOF 9
