REMARK  Name = ZINC01079320
REMARK  9 active torsions:
REMARK  status: ('A' for Active; 'I' for Inactive)
REMARK    1  A    between atoms: C_1  and  C_2
REMARK    2  A    between atoms: C_3  and  C_23
REMARK    3  A    between atoms: C_12  and  N_16
REMARK    4  A    between atoms: C_13  and  C_14
REMARK    5  A    between atoms: N_19  and  C_20
REMARK    6  A    between atoms: C_20  and  C_21
REMARK    7  A    between atoms: C_23  and  O_25
REMARK    8  A    between atoms: O_25  and  C_26
REMARK    9  A    between atoms: C_26  and  C_27
REMARK                            x       y       z     vdW  Elec       q    Type
REMARK                         _______ _______ _______ _____ _____    ______ ____
ROOT
ATOM      1  C   UNL     1       1.659   4.495   0.011  0.00  0.00    +0.061 C 
ATOM      2  C   UNL     1       0.682   3.348   0.014  0.00  0.00    +0.022 C 
ATOM      3  C   UNL     1      -0.657   3.501   0.028  0.00  0.00    +0.078 C 
ATOM      4  C   UNL     1      -1.233   2.103   0.018  0.00  0.00    +0.148 C 
ATOM      5  C   UNL     1      -2.045   1.867   1.260  0.00  0.00    +0.020 A 
ATOM      6  C   UNL     1      -1.409   1.688   2.474  0.00  0.00    +0.009 A 
ATOM      7  C   UNL     1      -2.149   1.469   3.621  0.00  0.00    +0.001 A 
ATOM      8  C   UNL     1      -3.530   1.428   3.556  0.00  0.00    +0.004 A 
ATOM      9  C   UNL     1      -4.170   1.607   2.347  0.00  0.00    +0.046 A 
ATOM     10  C   UNL     1      -3.430   1.828   1.192  0.00  0.00    +0.135 A 
ATOM     11  O   UNL     1      -4.072   2.003   0.011  0.00  0.00    -0.441 OA
ATOM     12  C   UNL     1      -3.412   1.843  -1.149  0.00  0.00    +0.199 C 
ATOM     13  C   UNL     1      -2.058   1.881  -1.213  0.00  0.00    +0.110 C 
ATOM     14  C   UNL     1      -0.014   1.208   0.009  0.00  0.00    +0.240 C 
ATOM     15  O   UNL     1       0.002  -0.004   0.002  0.00  0.00    -0.274 OA
ATOM     16  N   UNL     1       1.050   2.035   0.003  0.00  0.00    -0.270 N 
ENDROOT
BRANCH  12  17
ATOM     17  N   UNL     1      -4.129   1.635  -2.300  0.00  0.00    -0.328 N 
ATOM     18  H   UNL     1      -5.098   1.606  -2.270  0.00  0.00    +0.145 HD
ATOM     19  H   UNL     1      -3.667   1.518  -3.145  0.00  0.00    +0.145 HD
ENDBRANCH  12  17
BRANCH  13  20
ATOM     20  C   UNL     1      -1.407   1.706  -2.477  0.00  0.00    +0.102 C 
ATOM     21  N   UNL     1      -0.891   1.568  -3.479  0.00  0.00    -0.191 NA
ENDBRANCH  13  20
BRANCH   3  22
ATOM     22  C   UNL     1      -1.376   4.719   0.042  0.00  0.00    +0.339 C 
ATOM     23  O   UNL     1      -0.778   5.779   0.042  0.00  0.00    -0.245 OA
BRANCH  22  24
ATOM     24  O   UNL     1      -2.725   4.706   0.054  0.00  0.00    -0.457 OA
BRANCH  24  25
ATOM     25  C   UNL     1      -3.386   5.973   0.068  0.00  0.00    +0.268 C 
BRANCH  25  26
ATOM     26  C   UNL     1      -4.878   5.761   0.081  0.00  0.00    -0.010 A 
ATOM     27  C   UNL     1      -5.575   5.677  -1.111  0.00  0.00    +0.007 A 
ATOM     28  C   UNL     1      -6.943   5.478  -1.099  0.00  0.00    +0.000 A 
ATOM     29  C   UNL     1      -7.616   5.373   0.104  0.00  0.00    +0.000 A 
ATOM     30  C   UNL     1      -6.920   5.462   1.295  0.00  0.00    +0.000 A 
ATOM     31  C   UNL     1      -5.551   5.657   1.283  0.00  0.00    +0.007 A 
ENDBRANCH  25  26
ENDBRANCH  24  25
ENDBRANCH  22  24
ENDBRANCH   3  22
BRANCH  16  32
ATOM     32  C   UNL     1       2.441   1.577  -0.014  0.00  0.00    +0.140 C 
BRANCH  32  33
ATOM     33  C   UNL     1       2.904   1.427  -1.440  0.00  0.00    -0.015 C 
ATOM     34  C   UNL     1       3.981   2.052  -1.848  0.00  0.00    +0.005 C 
ENDBRANCH  32  33
ENDBRANCH  16  32
TORSDOF 8
