REMARK  Name = ZINC64408455
REMARK  9 active torsions:
REMARK  status: ('A' for Active; 'I' for Inactive)
REMARK    1  A    between atoms: C_7  and  C_10
REMARK    2  A    between atoms: C_10  and  C_11
REMARK    3  A    between atoms: C_11  and  N_12
REMARK    4  A    between atoms: C_13  and  C_15
REMARK    5  A    between atoms: C_15  and  C_16
REMARK    6  A    between atoms: C_16  and  C_17
REMARK    7  A    between atoms: C_20  and  N_23
REMARK    8  A    between atoms: N_23  and  S_24
REMARK    9  A    between atoms: S_24  and  C_27
REMARK                            x       y       z     vdW  Elec       q    Type
REMARK                         _______ _______ _______ _____ _____    ______ ____
ROOT
ATOM      1  C   UNL     1      -1.986  -7.025  -4.059  0.00  0.00    +0.060 C 
ENDROOT
BRANCH   1   2
ATOM      2  C   UNL     1      -2.927  -8.202  -4.058  0.00  0.00    +0.027 C 
ATOM      3  C   UNL     1      -3.335  -8.871  -5.363  0.00  0.00    +0.123 C 
ATOM      4  S   UNL     1      -4.075 -10.430  -4.702  0.00  0.00    -0.112 S 
ATOM      5  C   UNL     1      -4.313  -9.804  -2.981  0.00  0.00    +0.251 C 
ATOM      6  N   UNL     1      -3.386  -8.654  -2.979  0.00  0.00    -0.261 NA
BRANCH   5   7
ATOM      7  N   UNL     1      -3.909 -10.807  -1.993  0.00  0.00    -0.157 NA
ATOM      8  H   UNL     1      -2.990 -10.844  -1.686  0.00  0.00    +0.151 HD
BRANCH   7   9
ATOM      9  S   UNL     1      -5.023 -11.880  -1.399  0.00  0.00    +0.061 S 
ATOM     10  O   UNL     1      -4.328 -12.727  -0.495  0.00  0.00    -0.153 OA
ATOM     11  O   UNL     1      -6.155 -11.115  -1.010  0.00  0.00    -0.153 OA
BRANCH   9  12
ATOM     12  C   UNL     1      -5.539 -12.893  -2.745  0.00  0.00    +0.106 A 
ATOM     13  C   UNL     1      -6.616 -12.512  -3.523  0.00  0.00    +0.031 A 
ATOM     14  C   UNL     1      -7.021 -13.306  -4.579  0.00  0.00    +0.040 A 
ATOM     15  C   UNL     1      -6.348 -14.484  -4.858  0.00  0.00    +0.124 A 
ATOM     16  C   UNL     1      -5.269 -14.864  -4.077  0.00  0.00    +0.040 A 
ATOM     17  C   UNL     1      -4.863 -14.066  -3.025  0.00  0.00    +0.031 A 
ATOM     18  F   UNL     1      -6.744 -15.261  -5.889  0.00  0.00    -0.205 F 
ENDBRANCH   9  12
ENDBRANCH   7   9
ENDBRANCH   5   7
ENDBRANCH   1   2
BRANCH   1  19
ATOM     19  C   UNL     1      -1.752  -6.557  -2.622  0.00  0.00    +0.101 C 
BRANCH  19  21
ATOM     20  N   UNL     1      -0.458  -4.798  -1.460  0.00  0.00    -0.315 N 
ATOM     21  C   UNL     1      -0.811  -5.380  -2.623  0.00  0.00    +0.213 C 
ATOM     22  O   UNL     1      -0.371  -4.957  -3.671  0.00  0.00    -0.276 OA
ATOM     23  H   UNL     1      -0.810  -5.136  -0.622  0.00  0.00    +0.149 HD
BRANCH  20  24
ATOM     24  C   UNL     1       0.457  -3.653  -1.462  0.00  0.00    +0.108 C 
BRANCH  24  25
ATOM     25  C   UNL     1       0.691  -3.186  -0.024  0.00  0.00    +0.052 C 
BRANCH  25  32
ATOM     26  C   UNL     1      -0.016   1.348   0.009  0.00  0.00    +0.001 A 
ATOM     27  C   UNL     1       1.166   2.101   0.002  0.00  0.00    +0.002 A 
ATOM     28  C   UNL     1       2.391   1.535  -0.013  0.00  0.00    +0.026 A 
ATOM     29  C   UNL     1       2.529   0.120  -0.022  0.00  0.00    +0.043 A 
ATOM     30  N   UNL     1       3.587  -0.654  -0.037  0.00  0.00    -0.380 N 
ATOM     31  C   UNL     1       3.143  -2.053  -0.041  0.00  0.00    +0.144 C 
ATOM     32  C   UNL     1       1.631  -2.008  -0.025  0.00  0.00    -0.040 C 
ATOM     33  C   UNL     1       1.295  -0.698  -0.014  0.00  0.00    -0.001 A 
ATOM     34  C   UNL     1       0.002  -0.004   0.002  0.00  0.00    +0.010 A 
ATOM     35  H   UNL     1       4.509  -0.353  -0.045  0.00  0.00    +0.160 HD
ENDBRANCH  25  32
ENDBRANCH  24  25
ENDBRANCH  20  24
ENDBRANCH  19  21
ENDBRANCH   1  19
TORSDOF 9
