REMARK  Name = ZINC14472556
REMARK  7 active torsions:
REMARK  status: ('A' for Active; 'I' for Inactive)
REMARK    1  A    between atoms: C_4  and  C_7
REMARK    2  A    between atoms: C_7  and  C_8
REMARK    3  A    between atoms: C_8  and  N_9
REMARK    4  A    between atoms: N_9  and  S_10
REMARK    5  A    between atoms: S_10  and  C_13
REMARK    6  A    between atoms: C_26  and  C_29
REMARK    7  A    between atoms: C_31  and  N_36
REMARK                            x       y       z     vdW  Elec       q    Type
REMARK                         _______ _______ _______ _____ _____    ______ ____
ROOT
ATOM      1  C   UNL     1       2.840   6.972   4.057  0.00  0.00    +0.106 A 
ATOM      2  C   UNL     1       4.041   7.585   4.364  0.00  0.00    +0.030 A 
ATOM      3  C   UNL     1       4.866   7.033   5.323  0.00  0.00    +0.025 A 
ATOM      4  C   UNL     1       4.489   5.866   5.976  0.00  0.00    +0.031 A 
ATOM      5  C   UNL     1       3.287   5.247   5.670  0.00  0.00    -0.018 A 
ATOM      6  C   UNL     1       2.463   5.815   4.708  0.00  0.00    +0.034 A 
ATOM      7  C   UNL     1       2.841   3.988   6.344  0.00  0.00    +0.049 C 
ATOM      8  C   UNL     1       1.752   4.257   7.354  0.00  0.00    -0.023 C 
ATOM      9  C   UNL     1       1.891   3.469   8.392  0.00  0.00    -0.030 C 
ATOM     10  C   UNL     1       3.092   2.561   8.212  0.00  0.00    +0.033 C 
ATOM     11  C   UNL     1       3.955   3.327   7.179  0.00  0.00    +0.029 C 
ATOM     12  C   UNL     1       4.741   4.399   7.939  0.00  0.00    +0.106 C 
ATOM     13  N   UNL     1       5.333   5.322   6.950  0.00  0.00    -0.336 N 
ATOM     14  H   UNL     1       6.272   5.561   6.983  0.00  0.00    +0.147 HD
ENDROOT
BRANCH  12  15
ATOM     15  C   UNL     1       3.816   5.137   8.873  0.00  0.00    -0.007 A 
ATOM     16  C   UNL     1       3.086   6.216   8.412  0.00  0.00    +0.039 A 
ATOM     17  C   UNL     1       2.234   6.890   9.266  0.00  0.00    +0.127 A 
ATOM     18  C   UNL     1       2.119   6.492  10.585  0.00  0.00    +0.034 A 
ATOM     19  C   UNL     1       2.852   5.416  11.048  0.00  0.00    +0.022 A 
ATOM     20  C   UNL     1       3.702   4.737  10.192  0.00  0.00    +0.046 A 
ATOM     21 CL   UNL     1       4.624   3.386  10.774  0.00  0.00    -0.083 Cl
BRANCH  17  22
ATOM     22  N   UNL     1       1.448   8.042   8.770  0.00  0.00    +0.056 N 
ATOM     23  O   UNL     1       0.701   8.639   9.524  0.00  0.00    -0.126 OA
ATOM     24  O   UNL     1       1.549   8.394   7.609  0.00  0.00    -0.126 OA
ENDBRANCH  17  22
ENDBRANCH  12  15
BRANCH   1  25
ATOM     25  S   UNL     1       1.783   7.675   2.835  0.00  0.00    +0.058 S 
ATOM     26  O   UNL     1       2.106   9.057   2.764  0.00  0.00    -0.153 OA
ATOM     27  O   UNL     1       0.469   7.213   3.119  0.00  0.00    -0.153 OA
BRANCH  25  28
ATOM     28  N   UNL     1       2.211   7.013   1.378  0.00  0.00    -0.190 NA
ATOM     29  H   UNL     1       2.586   7.575   0.682  0.00  0.00    +0.148 HD
BRANCH  28  30
ATOM     30  C   UNL     1       2.025   5.580   1.141  0.00  0.00    +0.110 C 
BRANCH  30  31
ATOM     31  C   UNL     1       2.136   5.292  -0.357  0.00  0.00    +0.052 C 
BRANCH  31  35
ATOM     32  C   UNL     1       1.592   1.112  -1.049  0.00  0.00    +0.000 A 
ATOM     33  C   UNL     1       0.501   1.961  -1.057  0.00  0.00    +0.000 A 
ATOM     34  C   UNL     1       0.677   3.314  -0.833  0.00  0.00    +0.003 A 
ATOM     35  C   UNL     1       1.944   3.817  -0.601  0.00  0.00    -0.046 A 
ATOM     36  C   UNL     1       3.034   2.968  -0.593  0.00  0.00    +0.003 A 
ATOM     37  C   UNL     1       2.858   1.615  -0.817  0.00  0.00    +0.000 A 
ENDBRANCH  31  35
ENDBRANCH  30  31
ENDBRANCH  28  30
ENDBRANCH  25  28
ENDBRANCH   1  25
TORSDOF 7
