REMARK  Name = ZINC04023879
REMARK  14 active torsions:
REMARK  status: ('A' for Active; 'I' for Inactive)
REMARK    1  A    between atoms: C_1  and  C_2
REMARK    2  A    between atoms: C_2  and  O_3
REMARK    3  A    between atoms: O_3  and  C_4
REMARK    4  A    between atoms: C_4  and  C_6
REMARK    5  A    between atoms: C_7  and  N_31
REMARK    6  A    between atoms: C_11  and  C_13
REMARK    7  A    between atoms: C_15  and  O_23
REMARK    8  A    between atoms: C_16  and  O_21
REMARK    9  A    between atoms: C_17  and  O_19
REMARK   10  A    between atoms: O_19  and  C_20
REMARK   11  A    between atoms: O_21  and  C_22
REMARK   12  A    between atoms: O_23  and  C_24
REMARK   13  A    between atoms: C_27  and  C_29
REMARK   14  A    between atoms: C_27  and  C_30
REMARK                            x       y       z     vdW  Elec       q    Type
REMARK                         _______ _______ _______ _____ _____    ______ ____
ROOT
ATOM      1  C   UNL     1       0.470   1.494   4.936  0.00  0.00    +0.105 C 
ATOM      2  C   UNL     1      -0.359   1.462   6.016  0.00  0.00    +0.195 C 
ATOM      3  O   UNL     1      -0.137   0.589   7.008  0.00  0.00    -0.446 OA
ATOM      4  C   UNL     1       0.570  -0.554   6.780  0.00  0.00    +0.108 C 
ATOM      5  C   UNL     1       1.417  -0.633   5.786  0.00  0.00    -0.019 C 
ATOM      6  C   UNL     1       1.637   0.550   4.867  0.00  0.00    +0.090 C 
ATOM      7  C   UNL     1       2.212  -1.879   5.478  0.00  0.00    +0.035 C 
ATOM      8  C   UNL     1       2.241  -2.821   6.678  0.00  0.00    +0.011 C 
ATOM      9  C   UNL     1       0.797  -3.017   7.159  0.00  0.00    -0.028 C 
ATOM     10  C   UNL     1       0.312  -1.691   7.739  0.00  0.00    +0.080 C 
ATOM     11  C   UNL     1       0.753  -4.101   8.238  0.00  0.00    +0.011 C 
ATOM     12  C   UNL     1      -0.091  -3.423   5.981  0.00  0.00    +0.011 C 
ENDROOT
BRANCH   6  13
ATOM     13  C   UNL     1       2.890   1.277   5.282  0.00  0.00    -0.028 A 
ATOM     14  C   UNL     1       2.976   1.836   6.544  0.00  0.00    +0.054 A 
ATOM     15  C   UNL     1       4.129   2.501   6.932  0.00  0.00    +0.165 A 
ATOM     16  C   UNL     1       5.195   2.615   6.047  0.00  0.00    +0.204 A 
ATOM     17  C   UNL     1       5.102   2.056   4.778  0.00  0.00    +0.165 A 
ATOM     18  C   UNL     1       3.947   1.388   4.399  0.00  0.00    +0.054 A 
BRANCH  17  19
ATOM     19  O   UNL     1       6.142   2.165   3.908  0.00  0.00    -0.491 OA
ATOM     20  C   UNL     1       5.976   1.567   2.621  0.00  0.00    +0.277 C 
ENDBRANCH  17  19
BRANCH  16  21
ATOM     21  O   UNL     1       6.326   3.272   6.422  0.00  0.00    -0.488 OA
ATOM     22  C   UNL     1       6.380   4.675   6.157  0.00  0.00    +0.277 C 
ENDBRANCH  16  21
BRANCH  15  23
ATOM     23  O   UNL     1       4.215   3.046   8.175  0.00  0.00    -0.491 OA
ATOM     24  C   UNL     1       3.082   2.890   9.031  0.00  0.00    +0.277 C 
ENDBRANCH  15  23
ENDBRANCH   6  13
BRANCH   2  25
ATOM     25  N   UNL     1      -1.424   2.320   6.085  0.00  0.00    -0.329 N 
ATOM     26  H   UNL     1      -1.908   2.559   5.279  0.00  0.00    +0.145 HD
ATOM     27  H   UNL     1      -1.695   2.689   6.941  0.00  0.00    +0.145 HD
ENDBRANCH   2  25
BRANCH   1  28
ATOM     28  C   UNL     1       0.240   2.407   3.897  0.00  0.00    +0.341 C 
ATOM     29  O   UNL     1      -0.746   3.123   3.922  0.00  0.00    -0.245 OA
BRANCH  28  30
ATOM     30  O   UNL     1       1.111   2.493   2.868  0.00  0.00    -0.462 OA
BRANCH  30  32
ATOM     31  C   UNL     1       1.905   3.398   0.773  0.00  0.00    +0.048 C 
ATOM     32  C   UNL     1       0.814   3.445   1.845  0.00  0.00    +0.229 C 
ENDBRANCH  30  32
ENDBRANCH  28  30
ENDBRANCH   1  28
TORSDOF 8
