REMARK  Name = ZINC13174911
REMARK  7 active torsions:
REMARK  status: ('A' for Active; 'I' for Inactive)
REMARK    1  A    between atoms: C_4  and  S_8
REMARK    2  A    between atoms: S_8  and  N_11
REMARK    3  A    between atoms: C_14  and  C_17
REMARK    4  A    between atoms: N_19  and  C_20
REMARK    5  A    between atoms: C_20  and  C_22
REMARK    6  A    between atoms: C_20  and  C_25
REMARK    7  A    between atoms: C_22  and  C_23
REMARK                            x       y       z     vdW  Elec       q    Type
REMARK                         _______ _______ _______ _____ _____    ______ ____
ROOT
ATOM      1  N   UNL     1      -1.834  -4.461  -3.668  0.00  0.00    -0.176 NA
ATOM      2  C   UNL     1      -0.465  -4.030  -3.352  0.00  0.00    +0.110 C 
ATOM      3  C   UNL     1      -0.505  -3.127  -2.115  0.00  0.00    +0.030 C 
ATOM      4  C   UNL     1      -1.485  -1.977  -2.360  0.00  0.00    +0.077 C 
ATOM      5  C   UNL     1      -2.888  -2.541  -2.592  0.00  0.00    +0.030 C 
ATOM      6  C   UNL     1      -2.875  -3.438  -3.834  0.00  0.00    +0.110 C 
ENDROOT
BRANCH   4   7
ATOM      7  C   UNL     1      -1.502  -1.067  -1.159  0.00  0.00    +0.217 C 
ATOM      8  O   UNL     1      -0.799  -1.315  -0.201  0.00  0.00    -0.275 OA
ATOM      9  N   UNL     1      -2.297   0.021  -1.149  0.00  0.00    -0.308 N 
ATOM     10  H   UNL     1      -2.803   0.259  -1.941  0.00  0.00    +0.149 HD
BRANCH   9  11
ATOM     11  C   UNL     1      -2.396   0.844   0.059  0.00  0.00    +0.114 C 
BRANCH  11  12
ATOM     12  C   UNL     1      -3.707   1.588   0.053  0.00  0.00    -0.027 A 
ATOM     13  C   UNL     1      -4.187   2.133  -1.123  0.00  0.00    +0.007 A 
ATOM     14  C   UNL     1      -5.391   2.811  -1.130  0.00  0.00    +0.020 A 
ATOM     15  C   UNL     1      -6.112   2.953   0.043  0.00  0.00    +0.041 A 
ATOM     16  C   UNL     1      -5.628   2.412   1.221  0.00  0.00    +0.020 A 
ATOM     17  C   UNL     1      -4.426   1.730   1.226  0.00  0.00    +0.007 A 
ATOM     18 CL   UNL     1      -7.621   3.811   0.036  0.00  0.00    -0.084 Cl
ENDBRANCH  11  12
BRANCH  11  19
ATOM     19  C   UNL     1      -1.241   1.846   0.090  0.00  0.00    +0.152 C 
BRANCH  19  20
ATOM     20  C   UNL     1      -1.249   2.582   1.405  0.00  0.00    +0.358 C 
ATOM     21  O   UNL     1      -2.014   2.249   2.279  0.00  0.00    -0.246 OA
ATOM     22  O   UNL     1      -0.402   3.603   1.609  0.00  0.00    -0.246 OA
ENDBRANCH  19  20
ENDBRANCH  11  19
ENDBRANCH   9  11
ENDBRANCH   4   7
BRANCH   1  23
ATOM     23  S   UNL     1      -2.196  -6.068  -3.833  0.00  0.00    +0.064 S 
ATOM     24  O   UNL     1      -3.357  -6.141  -4.650  0.00  0.00    -0.153 OA
ATOM     25  O   UNL     1      -0.983  -6.725  -4.174  0.00  0.00    -0.153 OA
BRANCH  23  29
ATOM     26  C   UNL     1      -3.393  -7.598   0.257  0.00  0.00    +0.003 A 
ATOM     27  C   UNL     1      -4.318  -7.571  -0.770  0.00  0.00    +0.002 A 
ATOM     28  C   UNL     1      -3.954  -7.098  -2.017  0.00  0.00    +0.031 A 
ATOM     29  C   UNL     1      -2.661  -6.663  -2.242  0.00  0.00    +0.140 A 
ATOM     30  C   UNL     1      -1.734  -6.690  -1.214  0.00  0.00    +0.150 A 
ATOM     31  C   UNL     1      -2.102  -7.159   0.036  0.00  0.00    +0.040 A 
ATOM     32  F   UNL     1      -0.472  -6.260  -1.431  0.00  0.00    -0.203 F 
ENDBRANCH  23  29
ENDBRANCH   1  23
TORSDOF 7
