REMARK  Name = ZINC43757537
REMARK  6 active torsions:
REMARK  status: ('A' for Active; 'I' for Inactive)
REMARK    1  A    between atoms: C_1  and  C_2
REMARK    2  A    between atoms: C_2  and  C_4
REMARK    3  A    between atoms: C_10  and  C_31
REMARK    4  A    between atoms: C_12  and  O_30
REMARK    5  A    between atoms: C_22  and  C_29
REMARK    6  A    between atoms: C_25  and  O_28
REMARK                            x       y       z     vdW  Elec       q    Type
REMARK                         _______ _______ _______ _____ _____    ______ ____
ROOT
ATOM      1  C   UNL     1      -1.312  -0.792  -0.026  0.00  0.00    +0.061 C 
ATOM      2  C   UNL     1      -1.810  -1.109  -1.460  0.00  0.00    +0.012 C 
ATOM      3  C   UNL     1      -2.154  -2.627  -1.476  0.00  0.00    +0.005 C 
ATOM      4  C   UNL     1      -2.276  -2.944   0.025  0.00  0.00    -0.001 C 
ATOM      5  C   UNL     1      -1.053  -2.189   0.587  0.00  0.00    -0.017 C 
ATOM      6  C   UNL     1      -1.034  -2.223   2.088  0.00  0.00    +0.039 C 
ATOM      7  C   UNL     1      -1.435  -3.601   2.640  0.00  0.00    +0.119 C 
ATOM      8  C   UNL     1      -1.371  -4.683   1.582  0.00  0.00    +0.027 C 
ATOM      9  C   UNL     1      -2.314  -4.386   0.418  0.00  0.00    -0.001 C 
ATOM     10  C   UNL     1      -2.000  -5.345  -0.729  0.00  0.00    +0.004 C 
ATOM     11  C   UNL     1      -2.283  -6.769  -0.234  0.00  0.00    +0.004 C 
ATOM     12  C   UNL     1      -1.405  -7.090   0.974  0.00  0.00    -0.002 C 
ATOM     13  C   UNL     1      -1.644  -6.094   2.114  0.00  0.00    -0.024 C 
ATOM     14  C   UNL     1      -3.067  -6.224   2.637  0.00  0.00    +0.010 C 
ATOM     15  C   UNL     1      -3.362  -7.657   3.084  0.00  0.00    +0.032 C 
ATOM     16  C   UNL     1      -3.130  -8.632   1.933  0.00  0.00    +0.115 C 
ATOM     17  C   UNL     1      -1.689  -8.518   1.437  0.00  0.00    +0.035 C 
ATOM     18  C   UNL     1      -0.646  -6.391   3.243  0.00  0.00    +0.012 C 
ATOM     19  C   UNL     1       0.271  -2.682   0.002  0.00  0.00    +0.012 C 
ENDROOT
BRANCH   1  21
ATOM     20  C   UNL     1       0.402   0.793   1.131  0.00  0.00    +0.086 C 
ATOM     21  C   UNL     1      -0.031  -0.009  -0.069  0.00  0.00    +0.134 C 
ATOM     22  O   UNL     1       0.651  -0.021  -1.066  0.00  0.00    -0.297 OA
ENDBRANCH   1  21
BRANCH  16  23
ATOM     23  O   UNL     1      -3.368  -9.967   2.389  0.00  0.00    -0.392 OA
ATOM     24  H   UNL     1      -4.266 -10.117   2.715  0.00  0.00    +0.210 HD
ENDBRANCH  16  23
BRANCH   7  25
ATOM     25  O   UNL     1      -2.770  -3.497   3.159  0.00  0.00    -0.391 OA
ATOM     26  H   UNL     1      -2.865  -2.850   3.872  0.00  0.00    +0.210 HD
ENDBRANCH   7  25
TORSDOF 3
