REMARK  Name = ZINC40987006
REMARK  11 active torsions:
REMARK  status: ('A' for Active; 'I' for Inactive)
REMARK    1  A    between atoms: C_1  and  C_2
REMARK    2  A    between atoms: C_2  and  C_3
REMARK    3  A    between atoms: C_3  and  C_4
REMARK    4  A    between atoms: C_4  and  S_5
REMARK    5  A    between atoms: S_5  and  C_6
REMARK    6  A    between atoms: C_11  and  C_20
REMARK    7  A    between atoms: C_13  and  C_17
REMARK    8  A    between atoms: C_14  and  C_16
REMARK    9  A    between atoms: C_25  and  O_26
REMARK   10  A    between atoms: O_26  and  C_27
REMARK   11  A    between atoms: C_27  and  C_28
REMARK                            x       y       z     vdW  Elec       q    Type
REMARK                         _______ _______ _______ _____ _____    ______ ____
ROOT
ATOM      1  C   UNL     1      -2.722  -4.452   0.434  0.00  0.00    +0.210 A 
ATOM      2  N   UNL     1      -1.595  -5.175   0.353  0.00  0.00    -0.187 NA
ATOM      3  C   UNL     1      -1.896  -6.432   0.168  0.00  0.00    +0.219 A 
ATOM      4  N   UNL     1      -3.247  -6.541   0.131  0.00  0.00    -0.220 N 
ATOM      5  N   UNL     1      -3.757  -5.255   0.306  0.00  0.00    -0.141 NA
ATOM      6  C   UNL     1      -3.951  -7.807  -0.052  0.00  0.00    +0.181 C 
ATOM      7  C   UNL     1      -2.972  -8.868  -0.480  0.00  0.00    +0.060 C 
ATOM      8  C   UNL     1      -1.642  -8.701  -0.425  0.00  0.00    +0.018 C 
ATOM      9  N   UNL     1      -1.068  -7.536   0.021  0.00  0.00    -0.287 N 
ATOM     10  C   UNL     1      -0.748  -9.831  -0.867  0.00  0.00    +0.061 C 
ATOM     11  H   UNL     1      -0.121  -7.487   0.225  0.00  0.00    +0.155 HD
ENDROOT
BRANCH   6  12
ATOM     12  C   UNL     1      -4.597  -8.215   1.248  0.00  0.00    +0.023 A 
ATOM     13  C   UNL     1      -3.820  -8.419   2.372  0.00  0.00    +0.009 A 
ATOM     14  C   UNL     1      -4.412  -8.794   3.564  0.00  0.00    +0.001 A 
ATOM     15  C   UNL     1      -5.782  -8.965   3.634  0.00  0.00    +0.004 A 
ATOM     16  C   UNL     1      -6.563  -8.762   2.513  0.00  0.00    +0.046 A 
ATOM     17  C   UNL     1      -5.972  -8.381   1.317  0.00  0.00    +0.127 A 
BRANCH  17  18
ATOM     18  O   UNL     1      -6.739  -8.175   0.214  0.00  0.00    -0.487 OA
BRANCH  18  19
ATOM     19  C   UNL     1      -8.148  -8.364   0.359  0.00  0.00    +0.266 C 
BRANCH  19  20
ATOM     20  C   UNL     1      -8.829  -8.093  -0.957  0.00  0.00    +0.008 A 
ATOM     21  C   UNL     1      -8.081  -7.730  -2.061  0.00  0.00    +0.010 A 
ATOM     22  C   UNL     1      -8.705  -7.481  -3.269  0.00  0.00    +0.020 A 
ATOM     23  C   UNL     1     -10.080  -7.596  -3.374  0.00  0.00    +0.042 A 
ATOM     24  C   UNL     1     -10.829  -7.959  -2.270  0.00  0.00    +0.040 A 
ATOM     25  C   UNL     1     -10.204  -8.212  -1.062  0.00  0.00    +0.049 A 
ATOM     26 CL   UNL     1     -11.143  -8.674   0.323  0.00  0.00    -0.083 Cl
ATOM     27 CL   UNL     1     -10.864  -7.283  -4.891  0.00  0.00    -0.083 Cl
ENDBRANCH  19  20
ENDBRANCH  18  19
ENDBRANCH  17  18
ENDBRANCH   6  12
BRANCH   7  28
ATOM     28  C   UNL     1      -3.478 -10.097  -0.964  0.00  0.00    +0.241 C 
ATOM     29  O   UNL     1      -3.858 -10.188  -2.117  0.00  0.00    -0.271 OA
ATOM     30  N   UNL     1      -3.540 -11.168  -0.147  0.00  0.00    -0.325 N 
ATOM     31  H   UNL     1      -3.237 -11.096   0.771  0.00  0.00    +0.145 HD
ATOM     32  H   UNL     1      -3.887 -12.011  -0.479  0.00  0.00    +0.145 HD
ENDBRANCH   7  28
BRANCH   1  33
ATOM     33  S   UNL     1      -2.804  -2.709   0.679  0.00  0.00    -0.084 S 
BRANCH  33  34
ATOM     34  C   UNL     1      -1.066  -2.197   0.775  0.00  0.00    +0.077 C 
BRANCH  34  35
ATOM     35  C   UNL     1      -0.992  -0.684   0.990  0.00  0.00    +0.011 C 
BRANCH  35  37
ATOM     36  C   UNL     1       0.549   1.260   1.286  0.00  0.00    +0.004 C 
ATOM     37  C   UNL     1       0.474  -0.253   1.071  0.00  0.00    -0.003 C 
ENDBRANCH  35  37
ENDBRANCH  34  35
ENDBRANCH  33  34
ENDBRANCH   1  33
TORSDOF 9
