REMARK  Name = ZINC33863525
REMARK  5 active torsions:
REMARK  status: ('A' for Active; 'I' for Inactive)
REMARK    1  A    between atoms: C_1  and  C_2
REMARK    2  A    between atoms: C_2  and  C_4
REMARK    3  A    between atoms: C_2  and  N_7
REMARK    4  A    between atoms: C_8  and  C_21
REMARK    5  A    between atoms: N_17  and  C_20
REMARK                            x       y       z     vdW  Elec       q    Type
REMARK                         _______ _______ _______ _____ _____    ______ ____
ROOT
ATOM      1  N   UNL     1       0.178  -0.508  -1.366  0.00  0.00    -0.167 NA
ATOM      2  C   UNL     1       0.035  -1.997  -1.412  0.00  0.00    +0.131 C 
ATOM      3  C   UNL     1      -0.991  -2.223  -2.514  0.00  0.00    +0.139 C 
ATOM      4  C   UNL     1      -1.826  -0.901  -2.313  0.00  0.00    +0.241 C 
ATOM      5  O   UNL     1      -0.853   0.065  -2.286  0.00  0.00    -0.282 OA
ATOM      6  C   UNL     1      -3.049  -1.228  -3.024  0.00  0.00    +0.253 C 
ATOM      7  O   UNL     1      -3.760  -0.473  -3.651  0.00  0.00    -0.272 OA
ATOM      8  N   UNL     1      -3.227  -2.574  -2.836  0.00  0.00    -0.243 N 
ATOM      9  C   UNL     1      -2.109  -3.201  -2.335  0.00  0.00    +0.230 C 
ATOM     10  O   UNL     1      -2.039  -4.308  -1.847  0.00  0.00    -0.275 OA
ATOM     11  C   UNL     1      -4.475  -3.277  -3.145  0.00  0.00    +0.141 C 
ENDROOT
BRANCH   2  12
ATOM     12  C   UNL     1       1.348  -2.646  -1.765  0.00  0.00    -0.012 A 
ATOM     13  C   UNL     1       2.143  -2.115  -2.779  0.00  0.00    -0.011 A 
ATOM     14  C   UNL     1       1.740  -0.966  -3.494  0.00  0.00    +0.009 A 
ATOM     15  C   UNL     1       2.538  -0.474  -4.475  0.00  0.00    +0.001 A 
ATOM     16  C   UNL     1       3.755  -1.075  -4.802  0.00  0.00    +0.001 A 
ATOM     17  C   UNL     1       4.200  -2.181  -4.155  0.00  0.00    +0.010 A 
ATOM     18  C   UNL     1       3.421  -2.746  -3.123  0.00  0.00    +0.001 A 
ATOM     19  C   UNL     1       3.849  -3.882  -2.437  0.00  0.00    +0.056 A 
ATOM     20  C   UNL     1       3.053  -4.414  -1.423  0.00  0.00    +0.001 A 
ATOM     21  C   UNL     1       1.778  -3.779  -1.075  0.00  0.00    -0.011 A 
ATOM     22  C   UNL     1       1.001  -4.340  -0.039  0.00  0.00    +0.009 A 
ATOM     23  C   UNL     1       1.450  -5.442   0.613  0.00  0.00    +0.001 A 
ATOM     24  C   UNL     1       2.666  -6.043   0.287  0.00  0.00    +0.001 A 
ATOM     25  C   UNL     1       3.455  -5.563  -0.708  0.00  0.00    +0.010 A 
ATOM     26 CL   UNL     1       5.362  -4.630  -2.843  0.00  0.00    -0.082 Cl
ENDBRANCH   2  12
BRANCH   1  28
ATOM     27  C   UNL     1       1.117  -0.552   0.895  0.00  0.00    +0.036 C 
ATOM     28  C   UNL     1       0.002  -0.004   0.002  0.00  0.00    +0.167 C 
BRANCH  28  29
ATOM     29  C   UNL     1       0.059   1.502  -0.006  0.00  0.00    +0.230 C 
ATOM     30  O   UNL     1       0.671   2.081  -0.879  0.00  0.00    -0.274 OA
ATOM     31  N   UNL     1      -0.570   2.205   0.956  0.00  0.00    -0.328 N 
ATOM     32  H   UNL     1      -1.059   1.742   1.654  0.00  0.00    +0.145 HD
ATOM     33  H   UNL     1      -0.533   3.175   0.951  0.00  0.00    +0.145 HD
ENDBRANCH  28  29
ENDBRANCH   1  28
TORSDOF 3
