REMARK  Name = ZINC38653740
REMARK  9 active torsions:
REMARK  status: ('A' for Active; 'I' for Inactive)
REMARK    1  A    between atoms: C_1  and  C_2
REMARK    2  A    between atoms: C_11  and  C_31
REMARK    3  A    between atoms: C_19  and  O_27
REMARK    4  A    between atoms: C_21  and  C_26
REMARK    5  A    between atoms: O_27  and  C_28
REMARK    6  A    between atoms: C_28  and  C_30
REMARK    7  A    between atoms: C_36  and  C_40
REMARK    8  A    between atoms: C_40  and  C_41
REMARK    9  A    between atoms: C_41  and  C_43
REMARK                            x       y       z     vdW  Elec       q    Type
REMARK                         _______ _______ _______ _____ _____    ______ ____
ROOT
ATOM      1  C   UNL     1      -0.532   1.504   0.011  0.00  0.00    +0.009 C 
ATOM      2  C   UNL     1      -0.459  -0.025   0.013  0.00  0.00    +0.006 C 
ATOM      3  C   UNL     1       0.432  -0.514  -1.111  0.00  0.00    +0.028 C 
ATOM      4  C   UNL     1       1.047  -1.785  -0.403  0.00  0.00    +0.121 C 
ATOM      5  C   UNL     1       1.838  -2.462  -1.484  0.00  0.00    +0.036 C 
ATOM      6  C   UNL     1       1.248  -1.901  -2.792  0.00  0.00    +0.002 C 
ATOM      7  C   UNL     1      -0.059  -1.162  -2.385  0.00  0.00    -0.023 C 
ATOM      8  C   UNL     1      -0.457  -0.212  -3.498  0.00  0.00    +0.007 C 
ATOM      9  C   UNL     1       0.013  -0.759  -4.859  0.00  0.00    +0.005 C 
ATOM     10  C   UNL     1      -0.049  -2.278  -4.863  0.00  0.00    +0.003 C 
ATOM     11  C   UNL     1       1.052  -2.830  -3.938  0.00  0.00    +0.004 C 
ATOM     12  C   UNL     1       0.683  -4.276  -3.628  0.00  0.00    +0.078 C 
ATOM     13  C   UNL     1       0.691  -4.995  -4.961  0.00  0.00    +0.109 C 
ATOM     14  C   UNL     1       0.433  -4.395  -6.090  0.00  0.00    -0.025 C 
ATOM     15  C   UNL     1       0.068  -2.932  -6.220  0.00  0.00    -0.005 C 
ATOM     16  C   UNL     1       1.080  -2.260  -7.137  0.00  0.00    +0.011 C 
ATOM     17  C   UNL     1       1.150  -2.999  -8.475  0.00  0.00    +0.001 C 
ATOM     18  C   UNL     1       1.520  -4.467  -8.281  0.00  0.00    +0.004 C 
ATOM     19  C   UNL     1       0.486  -5.176  -7.394  0.00  0.00    +0.034 C 
ATOM     20  C   UNL     1      -1.316  -2.846  -6.871  0.00  0.00    +0.016 C 
ATOM     21  C   UNL     1      -1.213  -2.108  -2.067  0.00  0.00    +0.012 C 
ATOM     22  O   UNL     1       1.472  -1.237   0.813  0.00  0.00    -0.388 OA
ATOM     23  C   UNL     1       0.248  -0.580   1.277  0.00  0.00    +0.040 C 
ATOM     24  C   UNL     1       0.619   0.522   2.256  0.00  0.00    +0.016 C 
ATOM     25  C   UNL     1       1.315  -0.095   3.478  0.00  0.00    +0.003 C 
ATOM     26  C   UNL     1       0.408  -1.164   4.092  0.00  0.00    -0.021 C 
ATOM     27  C   UNL     1       0.081  -2.216   3.030  0.00  0.00    -0.075 C 
ATOM     28  N   UNL     1      -0.621  -1.570   1.914  0.00  0.00    +0.399 N 
ATOM     29  H   UNL     1      -1.445  -1.102   2.268  0.00  0.00    -0.082 HD
ATOM     30  H   UNL     1      -0.903  -2.264   1.242  0.00  0.00    -0.082 HD
ENDROOT
BRANCH  13  31
ATOM     31  O   UNL     1       0.979  -6.320  -4.964  0.00  0.00    -0.430 OA
BRANCH  31  32
ATOM     32  C   UNL     1       0.115  -7.154  -4.365  0.00  0.00    +0.309 C 
ATOM     33  O   UNL     1      -0.929  -6.731  -3.928  0.00  0.00    -0.251 OA
ATOM     34  C   UNL     1       0.446  -8.619  -4.237  0.00  0.00    +0.136 C 
ENDBRANCH  31  32
ENDBRANCH  13  31
BRANCH  26  35
ATOM     35  C   UNL     1       1.126  -1.833   5.266  0.00  0.00    +0.075 C 
BRANCH  35  36
ATOM     36  C   UNL     1       0.187  -2.796   5.945  0.00  0.00    +0.131 C 
ATOM     37  O   UNL     1      -0.939  -2.934   5.533  0.00  0.00    -0.298 OA
ATOM     38  C   UNL     1       0.655  -3.588   7.139  0.00  0.00    +0.086 C 
ENDBRANCH  35  36
ENDBRANCH  26  35
TORSDOF 4
