REMARK  Name = ZINC43876153
REMARK  7 active torsions:
REMARK  status: ('A' for Active; 'I' for Inactive)
REMARK    1  A    between atoms: C_1  and  C_2
REMARK    2  A    between atoms: C_2  and  C_4
REMARK    3  A    between atoms: C_2  and  N_13
REMARK    4  A    between atoms: N_16  and  C_17
REMARK    5  A    between atoms: N_16  and  C_18
REMARK    6  A    between atoms: C_18  and  C_19
REMARK    7  A    between atoms: N_22  and  C_24
REMARK                            x       y       z     vdW  Elec       q    Type
REMARK                         _______ _______ _______ _____ _____    ______ ____
ROOT
ATOM      1  N   UNL     1      -1.372  -0.511   0.012  0.00  0.00    -0.290 N 
ATOM      2  C   UNL     1      -2.051  -0.643  -1.145  0.00  0.00    +0.303 C 
ATOM      3  O   UNL     1      -1.522  -0.341  -2.197  0.00  0.00    -0.253 OA
ATOM      4  N   UNL     1      -3.315  -1.109  -1.135  0.00  0.00    -0.284 N 
ATOM      5  C   UNL     1      -3.952  -1.473   0.133  0.00  0.00    +0.134 C 
ATOM      6  H   UNL     1      -1.794  -0.752   0.852  0.00  0.00    +0.151 HD
ENDROOT
BRANCH   1   8
ATOM      7  C   UNL     1      -0.019   1.526   0.010  0.00  0.00    +0.036 C 
ATOM      8  C   UNL     1       0.002  -0.004   0.002  0.00  0.00    +0.137 C 
BRANCH   8   9
ATOM      9  C   UNL     1       0.731  -0.503   1.223  0.00  0.00    +0.126 A 
ATOM     10  C   UNL     1       2.005  -0.917   1.240  0.00  0.00    +0.055 A 
ATOM     11  C   UNL     1       2.290  -1.308   2.626  0.00  0.00    +0.020 A 
ATOM     12  C   UNL     1       3.410  -1.812   3.286  0.00  0.00    +0.011 A 
ATOM     13  C   UNL     1       3.343  -2.081   4.625  0.00  0.00    +0.001 A 
ATOM     14  C   UNL     1       2.169  -1.856   5.329  0.00  0.00    +0.004 A 
ATOM     15  C   UNL     1       1.052  -1.359   4.693  0.00  0.00    +0.047 A 
ATOM     16  C   UNL     1       1.098  -1.078   3.333  0.00  0.00    +0.135 A 
ATOM     17  O   UNL     1       0.199  -0.593   2.454  0.00  0.00    -0.458 OA
ENDBRANCH   8   9
ENDBRANCH   1   8
BRANCH   4  18
ATOM     18  C   UNL     1      -4.053  -1.252  -2.393  0.00  0.00    +0.147 C 
BRANCH  18  19
ATOM     19  C   UNL     1      -3.817  -2.628  -2.960  0.00  0.00    +0.008 A 
ATOM     20  C   UNL     1      -2.788  -2.993  -3.835  0.00  0.00    +0.140 A 
ATOM     21  N   UNL     1      -2.911  -4.268  -4.104  0.00  0.00    -0.174 NA
ATOM     22  N   UNL     1      -4.024  -4.757  -3.408  0.00  0.00    -0.240 N 
ATOM     23  C   UNL     1      -4.560  -3.731  -2.708  0.00  0.00    +0.119 A 
BRANCH  22  24
ATOM     24  C   UNL     1      -4.496  -6.077  -3.429  0.00  0.00    +0.065 A 
ATOM     25  C   UNL     1      -5.620  -6.425  -2.693  0.00  0.00    +0.028 A 
ATOM     26  C   UNL     1      -6.083  -7.726  -2.716  0.00  0.00    +0.002 A 
ATOM     27  C   UNL     1      -5.428  -8.681  -3.471  0.00  0.00    +0.000 A 
ATOM     28  C   UNL     1      -4.308  -8.337  -4.206  0.00  0.00    +0.002 A 
ATOM     29  C   UNL     1      -3.844  -7.037  -4.191  0.00  0.00    +0.028 A 
ENDBRANCH  22  24
ENDBRANCH  18  19
ENDBRANCH   4  18
TORSDOF 5
