REMARK  Name = ZINC13005079
REMARK  3 active torsions:
REMARK  status: ('A' for Active; 'I' for Inactive)
REMARK    1  A    between atoms: C_9  and  C_11
REMARK    2  A    between atoms: C_14  and  N_17
REMARK    3  A    between atoms: C_18  and  C_19
REMARK                            x       y       z     vdW  Elec       q    Type
REMARK                         _______ _______ _______ _____ _____    ______ ____
ROOT
ATOM      1  C   UNL     1       3.746  -3.301  -0.054  0.00  0.00    +0.017 A 
ATOM      2  C   UNL     1       3.110  -4.546  -0.061  0.00  0.00    +0.013 A 
ATOM      3  C   UNL     1       3.852  -5.692  -0.075  0.00  0.00    +0.028 A 
ATOM      4  C   UNL     1       5.249  -5.621  -0.083  0.00  0.00    +0.064 A 
ATOM      5  C   UNL     1       5.885  -4.375  -0.076  0.00  0.00    +0.028 A 
ATOM      6  C   UNL     1       5.142  -3.229  -0.067  0.00  0.00    +0.013 A 
ENDROOT
BRANCH   1  15
ATOM      7  C   UNL     1      -0.017   1.375   0.010  0.00  0.00    +0.002 A 
ATOM      8  C   UNL     1       1.170   2.095   0.002  0.00  0.00    +0.002 A 
ATOM      9  C   UNL     1       2.375   1.452  -0.013  0.00  0.00    +0.030 A 
ATOM     10  C   UNL     1       2.419   0.054  -0.021  0.00  0.00    +0.089 A 
ATOM     11  C   UNL     1       1.217  -0.676  -0.013  0.00  0.00    +0.066 A 
ATOM     12  C   UNL     1       0.002  -0.004   0.002  0.00  0.00    +0.028 A 
ATOM     13  N   UNL     1       1.574  -2.010  -0.024  0.00  0.00    -0.338 N 
ATOM     14  H   UNL     1       0.969  -2.768  -0.023  0.00  0.00    +0.167 HD
ATOM     15  C   UNL     1       2.943  -2.062  -0.038  0.00  0.00    +0.139 A 
ATOM     16  N   UNL     1       3.433  -0.846  -0.036  0.00  0.00    -0.228 NA
ENDBRANCH   1  15
BRANCH   4  17
ATOM     17  N   UNL     1       5.991  -6.766  -0.097  0.00  0.00    -0.254 NA
ATOM     18  C   UNL     1       7.015  -6.873  -0.905  0.00  0.00    +0.126 C 
BRANCH  18  19
ATOM     19  C   UNL     1       7.785  -8.062  -0.920  0.00  0.00    +0.030 A 
ATOM     20  C   UNL     1       8.900  -8.374  -1.688  0.00  0.00    +0.017 A 
ATOM     21  C   UNL     1       9.439  -9.621  -1.476  0.00  0.00    +0.008 A 
ATOM     22  C   UNL     1       8.865 -10.441  -0.561  0.00  0.00    +0.046 A 
ATOM     23  S   UNL     1       7.581  -9.545   0.048  0.00  0.00    -0.096 S 
ENDBRANCH  18  19
ENDBRANCH   4  17
TORSDOF 3
