REMARK  Name = ZINC39596306
REMARK  9 active torsions:
REMARK  status: ('A' for Active; 'I' for Inactive)
REMARK    1  A    between atoms: C_1  and  C_2
REMARK    2  A    between atoms: C_2  and  C_4
REMARK    3  A    between atoms: C_2  and  O_34
REMARK    4  A    between atoms: C_4  and  N_5
REMARK    5  A    between atoms: C_6  and  C_8
REMARK    6  A    between atoms: C_19  and  C_21
REMARK    7  A    between atoms: C_26  and  O_27
REMARK    8  A    between atoms: O_27  and  C_28
REMARK    9  A    between atoms: O_34  and  C_35
REMARK                            x       y       z     vdW  Elec       q    Type
REMARK                         _______ _______ _______ _____ _____    ______ ____
ROOT
ATOM      1  C   UNL     1       0.450  -3.648   1.810  0.00  0.00    +0.100 C 
ATOM      2  C   UNL     1       1.129  -4.202   0.537  0.00  0.00    +0.121 C 
ATOM      3  N   UNL     1       2.521  -4.495   0.953  0.00  0.00    -0.296 N 
ATOM      4  C   UNL     1       2.388  -5.055   2.319  0.00  0.00    +0.115 C 
ATOM      5  C   UNL     1       1.278  -4.213   2.977  0.00  0.00    -0.004 C 
ATOM      6  C   UNL     1       1.891  -3.076   3.789  0.00  0.00    -0.010 C 
ATOM      7  C   UNL     1       2.661  -3.660   4.976  0.00  0.00    -0.082 C 
ATOM      8  N   UNL     1       1.750  -4.450   5.812  0.00  0.00    +0.379 N 
ATOM      9  C   UNL     1       1.236  -5.595   5.051  0.00  0.00    -0.082 C 
ATOM     10  C   UNL     1       0.405  -5.092   3.867  0.00  0.00    -0.010 C 
ATOM     11  C   UNL     1       3.652  -4.296   0.247  0.00  0.00    +0.252 C 
ATOM     12  O   UNL     1       4.722  -4.652   0.702  0.00  0.00    -0.270 OA
ATOM     13  H   UNL     1       2.245  -4.784   6.625  0.00  0.00    -0.086 HD
ATOM     14  H   UNL     1       0.978  -3.870   6.106  0.00  0.00    -0.086 HD
ENDROOT
BRANCH  11  15
ATOM     15  C   UNL     1       3.592  -3.647  -1.076  0.00  0.00    +0.099 A 
ATOM     16  C   UNL     1       2.515  -3.885  -1.938  0.00  0.00    +0.020 A 
ATOM     17  C   UNL     1       2.506  -3.252  -3.168  0.00  0.00    +0.021 A 
ATOM     18  C   UNL     1       3.550  -2.411  -3.508  0.00  0.00    +0.114 A 
ATOM     19  N   UNL     1       4.555  -2.201  -2.681  0.00  0.00    -0.220 NA
ATOM     20  C   UNL     1       4.611  -2.776  -1.491  0.00  0.00    +0.233 A 
BRANCH  20  21
ATOM     21  O   UNL     1       5.659  -2.528  -0.672  0.00  0.00    -0.437 OA
BRANCH  21  22
ATOM     22  C   UNL     1       6.571  -1.599  -1.065  0.00  0.00    +0.130 A 
ATOM     23  C   UNL     1       7.809  -2.001  -1.546  0.00  0.00    +0.046 A 
ATOM     24  C   UNL     1       8.733  -1.056  -1.946  0.00  0.00    +0.004 A 
ATOM     25  C   UNL     1       8.425   0.290  -1.867  0.00  0.00    +0.000 A 
ATOM     26  C   UNL     1       7.193   0.693  -1.387  0.00  0.00    +0.004 A 
ATOM     27  C   UNL     1       6.263  -0.249  -0.992  0.00  0.00    +0.046 A 
ENDBRANCH  21  22
ENDBRANCH  20  21
ENDBRANCH  11  15
BRANCH   1  29
ATOM     28  N   UNL     1      -0.370  -1.444   2.577  0.00  0.00    -0.312 N 
ATOM     29  C   UNL     1       0.496  -2.142   1.815  0.00  0.00    +0.218 C 
ATOM     30  O   UNL     1       1.312  -1.557   1.134  0.00  0.00    -0.275 OA
ATOM     31  H   UNL     1      -1.022  -1.911   3.122  0.00  0.00    +0.149 HD
BRANCH  28  32
ATOM     32  C   UNL     1      -0.325   0.021   2.582  0.00  0.00    +0.148 C 
BRANCH  32  34
ATOM     33  C   UNL     1      -1.359   2.090   3.527  0.00  0.00    +0.053 C 
ATOM     34  C   UNL     1      -1.405   0.560   3.522  0.00  0.00    +0.187 C 
BRANCH  34  35
ATOM     35  O   UNL     1      -2.690   0.124   3.072  0.00  0.00    -0.488 OA
BRANCH  35  36
ATOM     36  C   UNL     1      -3.622  -0.137   4.027  0.00  0.00    +0.121 A 
ATOM     37  C   UNL     1      -4.845  -0.685   3.671  0.00  0.00    +0.048 A 
ATOM     38  C   UNL     1      -5.791  -0.951   4.642  0.00  0.00    +0.042 A 
ATOM     39  C   UNL     1      -5.519  -0.669   5.970  0.00  0.00    +0.124 A 
ATOM     40  C   UNL     1      -4.298  -0.121   6.327  0.00  0.00    +0.042 A 
ATOM     41  C   UNL     1      -3.348   0.139   5.358  0.00  0.00    +0.048 A 
ATOM     42  F   UNL     1      -6.445  -0.928   6.918  0.00  0.00    -0.205 F 
ENDBRANCH  35  36
ENDBRANCH  34  35
ENDBRANCH  32  34
ENDBRANCH  28  32
ENDBRANCH   1  29
TORSDOF 8
