REMARK  Name = ZINC51044720
REMARK  6 active torsions:
REMARK  status: ('A' for Active; 'I' for Inactive)
REMARK    1  A    between atoms: C_1  and  C_2
REMARK    2  A    between atoms: C_2  and  C_4
REMARK    3  A    between atoms: C_2  and  N_16
REMARK    4  A    between atoms: C_4  and  N_6
REMARK    5  A    between atoms: C_20  and  C_23
REMARK    6  A    between atoms: N_25  and  C_26
REMARK                            x       y       z     vdW  Elec       q    Type
REMARK                         _______ _______ _______ _____ _____    ______ ____
ROOT
ATOM      1  C   UNL     1       0.098   1.362   0.753  0.00  0.00    -0.004 C 
ATOM      2  C   UNL     1       0.022   0.033  -0.002  0.00  0.00    +0.018 C 
ENDROOT
BRANCH   2   3
ATOM      3  N   UNL     1       0.987  -0.913   0.574  0.00  0.00    +0.388 N 
ATOM      4  C   UNL     1       2.332  -0.330   0.523  0.00  0.00    -0.078 C 
ATOM      5  C   UNL     1       3.329  -1.277   1.195  0.00  0.00    -0.018 C 
ATOM      6  C   UNL     1       3.325  -2.620   0.459  0.00  0.00    +0.009 C 
ATOM      7  C   UNL     1       1.901  -3.183   0.454  0.00  0.00    +0.058 C 
ATOM      8  C   UNL     1       0.957  -2.166  -0.190  0.00  0.00    -0.065 C 
ATOM      9  H   UNL     1       0.740  -1.101   1.534  0.00  0.00    -0.081 HD
BRANCH   7  10
ATOM     10  C   UNL     1       1.871  -4.468  -0.334  0.00  0.00    +0.215 C 
ATOM     11  O   UNL     1       1.161  -4.563  -1.312  0.00  0.00    -0.276 OA
ATOM     12  N   UNL     1       2.632  -5.512   0.050  0.00  0.00    -0.312 N 
ATOM     13  H   UNL     1       3.200  -5.436   0.833  0.00  0.00    +0.149 HD
BRANCH  12  14
ATOM     14  C   UNL     1       2.603  -6.760  -0.716  0.00  0.00    +0.073 C 
ATOM     15  C   UNL     1       2.542  -8.071   0.072  0.00  0.00    +0.024 C 
ATOM     16  C   UNL     1       3.835  -7.665  -0.639  0.00  0.00    +0.024 C 
ENDBRANCH  12  14
ENDBRANCH   7  10
ENDBRANCH   2   3
BRANCH   2  17
ATOM     17  C   UNL     1      -1.370  -0.533   0.117  0.00  0.00    +0.225 C 
ATOM     18  O   UNL     1      -1.640  -1.296   1.025  0.00  0.00    -0.275 OA
BRANCH  17  19
ATOM     19  N   UNL     1      -2.301  -0.200  -0.770  0.00  0.00    -0.158 NA
ATOM     20  C   UNL     1      -3.554  -0.618  -0.609  0.00  0.00    +0.164 A 
ATOM     21  N   UNL     1      -4.032  -1.473   0.331  0.00  0.00    -0.335 N 
ATOM     22  C   UNL     1      -5.375  -1.796   0.347  0.00  0.00    +0.055 A 
ATOM     23  C   UNL     1      -6.071  -2.647   1.217  0.00  0.00    +0.027 A 
ATOM     24  C   UNL     1      -7.425  -2.845   1.070  0.00  0.00    +0.002 A 
ATOM     25  C   UNL     1      -8.136  -2.214   0.063  0.00  0.00    +0.001 A 
ATOM     26  C   UNL     1      -7.473  -1.369  -0.809  0.00  0.00    +0.017 A 
ATOM     27  C   UNL     1      -6.120  -1.170  -0.663  0.00  0.00    +0.039 A 
ATOM     28  S   UNL     1      -4.905  -0.203  -1.519  0.00  0.00    -0.052 S 
ATOM     29  H   UNL     1      -3.432  -1.855   0.990  0.00  0.00    +0.168 HD
ENDBRANCH  17  19
ENDBRANCH   2  17
TORSDOF 5
