REMARK  Name = ZINC40236132
REMARK  3 active torsions:
REMARK  status: ('A' for Active; 'I' for Inactive)
REMARK    1  A    between atoms: C_3  and  C_9
REMARK    2  A    between atoms: C_9  and  C_11
REMARK    3  A    between atoms: C_9  and  N_17
REMARK                            x       y       z     vdW  Elec       q    Type
REMARK                         _______ _______ _______ _____ _____    ______ ____
ROOT
ATOM      1  C   UNL     1       3.671   2.186  -0.021  0.00  0.00    +0.120 C 
ENDROOT
BRANCH   1   4
ATOM      2  C   UNL     1      -0.017   1.380   0.010  0.00  0.00    +0.039 A 
ATOM      3  C   UNL     1       1.171   2.087   0.002  0.00  0.00    +0.009 A 
ATOM      4  C   UNL     1       2.377   1.413  -0.013  0.00  0.00    -0.012 A 
ATOM      5  C   UNL     1       2.398   0.030  -0.021  0.00  0.00    +0.026 A 
ATOM      6  C   UNL     1       1.211  -0.679  -0.014  0.00  0.00    +0.054 A 
ATOM      7  C   UNL     1       0.002  -0.004   0.002  0.00  0.00    +0.124 A 
ATOM      8  F   UNL     1      -1.158  -0.696   0.009  0.00  0.00    -0.205 F 
ATOM      9 BR   UNL     1       4.049  -0.891  -0.043  0.00  0.00    -0.050 Br
ENDBRANCH   1   4
BRANCH   1  10
ATOM     10  C   UNL     1       4.242   2.224   1.373  0.00  0.00    +0.012 A 
ATOM     11  C   UNL     1       5.233   1.471   1.910  0.00  0.00    +0.014 A 
ATOM     12  C   UNL     1       5.597   1.682   3.227  0.00  0.00    +0.023 A 
ATOM     13  C   UNL     1       4.951   2.636   3.942  0.00  0.00    +0.055 A 
ATOM     14  S   UNL     1       3.795   3.278   2.743  0.00  0.00    -0.084 S 
ATOM     15 BR   UNL     1       5.213   3.158   5.741  0.00  0.00    -0.043 Br
ENDBRANCH   1  10
BRANCH   1  16
ATOM     16  N   UNL     1       3.420   3.557  -0.485  0.00  0.00    -0.320 NA
ATOM     17  H   UNL     1       2.766   4.029   0.120  0.00  0.00    +0.119 HD
ATOM     18  H   UNL     1       4.282   4.076  -0.561  0.00  0.00    +0.119 HD
ENDBRANCH   1  16
TORSDOF 3
