REMARK  Name = ZINC20065629
REMARK  12 active torsions:
REMARK  status: ('A' for Active; 'I' for Inactive)
REMARK    1  A    between atoms: C_1  and  C_2
REMARK    2  A    between atoms: C_6  and  N_8
REMARK    3  A    between atoms: C_9  and  C_11
REMARK    4  A    between atoms: C_11  and  S_12
REMARK    5  A    between atoms: S_12  and  C_13
REMARK    6  A    between atoms: C_14  and  C_34
REMARK    7  A    between atoms: C_15  and  C_27
REMARK    8  A    between atoms: C_17  and  C_21
REMARK    9  A    between atoms: C_18  and  C_20
REMARK   10  A    between atoms: C_21  and  O_23
REMARK   11  A    between atoms: O_23  and  C_24
REMARK   12  A    between atoms: C_24  and  C_25
REMARK                            x       y       z     vdW  Elec       q    Type
REMARK                         _______ _______ _______ _____ _____    ______ ____
ROOT
ATOM      1  C   UNL     1       2.468   9.800   0.426  0.00  0.00    +0.080 C 
ATOM      2  C   UNL     1       3.482  10.690   0.603  0.00  0.00    +0.069 C 
ATOM      3  C   UNL     1       3.208  12.155   0.793  0.00  0.00    +0.100 C 
ATOM      4  C   UNL     1       1.807  12.496   0.374  0.00  0.00    +0.066 C 
ATOM      5  C   UNL     1       0.869  11.548   0.208  0.00  0.00    +0.016 C 
ATOM      6  N   UNL     1       1.159  10.228   0.403  0.00  0.00    -0.312 N 
ATOM      7  C   UNL     1      -0.525  11.947  -0.204  0.00  0.00    +0.061 C 
ATOM      8  H   UNL     1       0.342   9.505   0.542  0.00  0.00    +0.152 HD
ENDROOT
BRANCH   3   9
ATOM      9  C   UNL     1       3.391  12.510   2.246  0.00  0.00    -0.035 A 
ATOM     10  C   UNL     1       2.612  11.898   3.210  0.00  0.00    +0.006 A 
ATOM     11  C   UNL     1       2.783  12.218   4.543  0.00  0.00    +0.020 A 
ATOM     12  C   UNL     1       3.727  13.160   4.912  0.00  0.00    +0.041 A 
ATOM     13  C   UNL     1       4.503  13.776   3.947  0.00  0.00    +0.020 A 
ATOM     14  C   UNL     1       4.334  13.451   2.614  0.00  0.00    +0.006 A 
ATOM     15 CL   UNL     1       3.938  13.568   6.587  0.00  0.00    -0.084 Cl
ENDBRANCH   3   9
BRANCH   4  16
ATOM     16  C   UNL     1       1.466  13.849   0.147  0.00  0.00    +0.338 C 
ATOM     17  O   UNL     1       0.312  14.154  -0.089  0.00  0.00    -0.245 OA
BRANCH  16  18
ATOM     18  O   UNL     1       2.420  14.802   0.194  0.00  0.00    -0.457 OA
BRANCH  18  19
ATOM     19  C   UNL     1       2.004  16.148  -0.045  0.00  0.00    +0.259 C 
BRANCH  19  20
ATOM     20  C   UNL     1       3.196  17.066   0.047  0.00  0.00    +0.006 C 
ATOM     21  C   UNL     1       3.377  17.997  -0.857  0.00  0.00    +0.007 C 
ENDBRANCH  19  20
ENDBRANCH  18  19
ENDBRANCH  16  18
ENDBRANCH   4  16
BRANCH   2  22
ATOM     22  C   UNL     1       4.835  10.221   0.609  0.00  0.00    +0.098 C 
ATOM     23  N   UNL     1       5.908   9.850   0.613  0.00  0.00    -0.191 NA
ENDBRANCH   2  22
BRANCH   1  24
ATOM     24  S   UNL     1       2.833   8.089   0.218  0.00  0.00    -0.100 S 
BRANCH  24  25
ATOM     25  C   UNL     1       1.157   7.430   0.035  0.00  0.00    +0.171 C 
BRANCH  25  27
ATOM     26  N   UNL     1       0.088   5.228  -0.320  0.00  0.00    -0.285 N 
ATOM     27  C   UNL     1       1.223   5.938  -0.161  0.00  0.00    +0.227 C 
ATOM     28  O   UNL     1       2.297   5.375  -0.175  0.00  0.00    -0.275 OA
ATOM     29  H   UNL     1      -0.879   5.747  -0.392  0.00  0.00    +0.155 HD
BRANCH  26  35
ATOM     30  C   UNL     1      -1.686   1.017  -2.133  0.00  0.00    +0.044 C 
ATOM     31  C   UNL     1      -0.708   1.765  -1.265  0.00  0.00    -0.049 A 
ATOM     32  C   UNL     1       0.243   1.071  -0.539  0.00  0.00    +0.003 A 
ATOM     33  C   UNL     1       1.146   1.754   0.254  0.00  0.00    +0.002 A 
ATOM     34  C   UNL     1       1.098   3.132   0.329  0.00  0.00    +0.023 A 
ATOM     35  C   UNL     1       0.141   3.832  -0.394  0.00  0.00    +0.034 A 
ATOM     36  C   UNL     1      -0.765   3.143  -1.191  0.00  0.00    +0.026 A 
ENDBRANCH  26  35
ENDBRANCH  25  27
ENDBRANCH  24  25
ENDBRANCH   1  24
TORSDOF 10
