REMARK  Name = ZINC02677913
REMARK  6 active torsions:
REMARK  status: ('A' for Active; 'I' for Inactive)
REMARK    1  A    between atoms: C_6  and  C_7
REMARK    2  A    between atoms: C_10  and  C_12
REMARK    3  A    between atoms: C_13  and  C_14
REMARK    4  A    between atoms: C_13  and  N_25
REMARK    5  A    between atoms: N_16  and  C_17
REMARK    6  A    between atoms: C_26  and  C_28
REMARK                            x       y       z     vdW  Elec       q    Type
REMARK                         _______ _______ _______ _____ _____    ______ ____
ROOT
ATOM      1  C   UNL     1      -4.748  -1.097   0.186  0.00  0.00    +0.074 C 
ATOM      2  C   UNL     1      -5.304   0.145   0.201  0.00  0.00    +0.100 C 
ENDROOT
BRANCH   1   6
ATOM      3  C   UNL     1      -1.202  -0.756   0.020  0.00  0.00    +0.136 A 
ATOM      4  C   UNL     1      -1.298  -2.114  -0.085  0.00  0.00    +0.050 A 
ATOM      5  C   UNL     1      -2.658  -2.435  -0.037  0.00  0.00    +0.050 A 
ATOM      6  C   UNL     1      -3.345  -1.242   0.098  0.00  0.00    +0.131 A 
ATOM      7  O   UNL     1      -2.440  -0.242   0.135  0.00  0.00    -0.455 OA
BRANCH   3  13
ATOM      8  C   UNL     1       0.016   1.416   0.035  0.00  0.00    +0.013 A 
ATOM      9  C   UNL     1       1.193   2.135   0.030  0.00  0.00    +0.021 A 
ATOM     10  C   UNL     1       2.411   1.475   0.006  0.00  0.00    +0.041 A 
ATOM     11  C   UNL     1       2.455   0.091  -0.015  0.00  0.00    +0.021 A 
ATOM     12  C   UNL     1       1.286  -0.639  -0.010  0.00  0.00    +0.013 A 
ATOM     13  C   UNL     1       0.054   0.020   0.015  0.00  0.00    +0.017 A 
ATOM     14 CL   UNL     1       3.888   2.388  -0.001  0.00  0.00    -0.084 Cl
ENDBRANCH   3  13
ENDBRANCH   1   6
BRANCH   2  15
ATOM     15  C   UNL     1      -4.463   1.327  -0.003  0.00  0.00    +0.259 C 
ATOM     16  O   UNL     1      -4.020   1.931   0.956  0.00  0.00    -0.269 OA
ATOM     17  N   UNL     1      -4.179   1.744  -1.253  0.00  0.00    -0.306 N 
ATOM     18  H   UNL     1      -4.585   1.303  -2.015  0.00  0.00    +0.149 HD
BRANCH  17  19
ATOM     19  C   UNL     1      -3.257   2.863  -1.459  0.00  0.00    +0.096 C 
ATOM     20  C   UNL     1      -4.005   4.194  -1.273  0.00  0.00    +0.046 C 
ATOM     21  C   UNL     1      -3.138   5.364  -1.796  0.00  0.00    +0.168 C 
ATOM     22  S   UNL     1      -2.116   4.561  -3.097  0.00  0.00    -0.029 S 
ATOM     23  O   UNL     1      -0.748   4.634  -2.722  0.00  0.00    -0.174 OA
ATOM     24  O   UNL     1      -2.520   5.049  -4.369  0.00  0.00    -0.174 OA
ATOM     25  C   UNL     1      -2.697   2.822  -2.910  0.00  0.00    +0.188 C 
ENDBRANCH  17  19
ENDBRANCH   2  15
BRANCH   2  26
ATOM     26  N   UNL     1      -6.679   0.293   0.411  0.00  0.00    -0.277 N 
ATOM     27  C   UNL     1      -7.248   1.512   0.317  0.00  0.00    +0.248 C 
ATOM     28  O   UNL     1      -6.587   2.465  -0.048  0.00  0.00    -0.270 OA
ATOM     29  H   UNL     1      -7.224  -0.481   0.625  0.00  0.00    +0.155 HD
BRANCH  27  30
ATOM     30  C   UNL     1      -8.675   1.689   0.656  0.00  0.00    +0.037 A 
ATOM     31  C   UNL     1      -9.436   0.598   1.081  0.00  0.00    +0.014 A 
ATOM     32  C   UNL     1     -10.767   0.770   1.397  0.00  0.00    +0.021 A 
ATOM     33  C   UNL     1     -11.350   2.022   1.294  0.00  0.00    +0.041 A 
ATOM     34  C   UNL     1     -10.600   3.109   0.873  0.00  0.00    +0.021 A 
ATOM     35  C   UNL     1      -9.267   2.950   0.560  0.00  0.00    +0.014 A 
ATOM     36 CL   UNL     1     -13.026   2.231   1.693  0.00  0.00    -0.084 Cl
ENDBRANCH  27  30
ENDBRANCH   2  26
TORSDOF 6
