REMARK  Name = ZINC24658467
REMARK  8 active torsions:
REMARK  status: ('A' for Active; 'I' for Inactive)
REMARK    1  A    between atoms: C_1  and  C_2
REMARK    2  A    between atoms: N_4  and  C_5
REMARK    3  A    between atoms: C_7  and  C_15
REMARK    4  A    between atoms: C_9  and  N_11
REMARK    5  A    between atoms: C_12  and  C_14
REMARK    6  A    between atoms: N_17  and  C_18
REMARK    7  A    between atoms: C_18  and  C_20
REMARK    8  A    between atoms: C_18  and  C_30
REMARK                            x       y       z     vdW  Elec       q    Type
REMARK                         _______ _______ _______ _____ _____    ______ ____
ROOT
ATOM      1  C   UNL     1      -8.032  -0.636   2.609  0.00  0.00    +0.245 C 
ATOM      2  O   UNL     1      -8.790  -0.480   1.672  0.00  0.00    -0.270 OA
ATOM      3  N   UNL     1      -6.940   0.146   2.730  0.00  0.00    -0.300 N 
ATOM      4  H   UNL     1      -6.254   0.005   3.577  0.00  0.00    +0.150 HD
ENDROOT
BRANCH   1   7
ATOM      5  C   UNL     1      -9.689  -3.474   4.440  0.00  0.00    +0.036 A 
ATOM      6  C   UNL     1      -9.435  -2.493   3.494  0.00  0.00    +0.036 A 
ATOM      7  C   UNL     1      -8.306  -1.683   3.617  0.00  0.00    +0.040 A 
ATOM      8  C   UNL     1      -7.433  -1.867   4.689  0.00  0.00    +0.036 A 
ATOM      9  C   UNL     1      -7.697  -2.846   5.635  0.00  0.00    +0.036 A 
ATOM     10  C   UNL     1      -8.821  -3.650   5.510  0.00  0.00    +0.046 A 
BRANCH   5  14
ATOM     11  C   UNL     1     -12.398  -5.635   2.970  0.00  0.00    +0.109 C 
ATOM     12  C   UNL     1     -11.243  -4.676   3.098  0.00  0.00    +0.214 C 
ATOM     13  O   UNL     1     -10.692  -4.255   2.103  0.00  0.00    -0.276 OA
ATOM     14  N   UNL     1     -10.822  -4.287   4.317  0.00  0.00    -0.286 N 
ATOM     15  H   UNL     1     -11.368  -4.608   5.216  0.00  0.00    +0.155 HD
ENDBRANCH   5  14
BRANCH   9  16
ATOM     16  N   UNL     1      -6.825  -3.027   6.715  0.00  0.00    -0.286 N 
ATOM     17  C   UNL     1      -6.179  -1.969   7.245  0.00  0.00    +0.214 C 
ATOM     18  O   UNL     1      -6.425  -0.849   6.850  0.00  0.00    -0.276 OA
ATOM     19  C   UNL     1      -5.154  -2.179   8.329  0.00  0.00    +0.109 C 
ATOM     20  H   UNL     1      -6.666  -4.033   7.130  0.00  0.00    +0.155 HD
ENDBRANCH   9  16
ENDBRANCH   1   7
BRANCH   3  21
ATOM     21  C   UNL     1      -6.668   1.183   1.731  0.00  0.00    +0.140 C 
BRANCH  21  22
ATOM     22  C   UNL     1      -5.191   1.481   1.706  0.00  0.00    -0.022 A 
ATOM     23  C   UNL     1      -4.474   1.536   2.886  0.00  0.00    +0.006 A 
ATOM     24  C   UNL     1      -3.123   1.812   2.855  0.00  0.00    +0.004 A 
ATOM     25  C   UNL     1      -2.476   2.035   1.646  0.00  0.00    -0.044 A 
ATOM     26  C   UNL     1      -3.189   1.976   0.470  0.00  0.00    -0.044 A 
ATOM     27  C   UNL     1      -4.550   1.699   0.504  0.00  0.00    +0.009 A 
ATOM     28  C   UNL     1      -2.552   2.198  -0.877  0.00  0.00    +0.035 C 
ATOM     29  C   UNL     1      -1.206   2.904  -0.724  0.00  0.00    +0.005 C 
ATOM     30  C   UNL     1      -0.373   2.137   0.310  0.00  0.00    +0.005 C 
ATOM     31  C   UNL     1      -1.002   2.344   1.686  0.00  0.00    +0.035 C 
ENDBRANCH  21  22
BRANCH  21  32
ATOM     32  C   UNL     1      -7.427   2.436   2.089  0.00  0.00    +0.014 A 
ATOM     33  C   UNL     1      -8.081   3.299   1.274  0.00  0.00    +0.013 A 
ATOM     34  C   UNL     1      -8.716   4.394   1.829  0.00  0.00    +0.008 A 
ATOM     35  C   UNL     1      -8.665   4.573   3.172  0.00  0.00    +0.045 A 
ATOM     36  S   UNL     1      -7.703   3.162   3.696  0.00  0.00    -0.099 S 
ENDBRANCH  21  32
ENDBRANCH   3  21
TORSDOF 6
