REMARK  Name = ZINC05273670
REMARK  11 active torsions:
REMARK  status: ('A' for Active; 'I' for Inactive)
REMARK    1  A    between atoms: CG2_1  and  CB_2
REMARK    2  A    between atoms: CB_2  and  CA_4
REMARK    3  A    between atoms: CB_2  and  OG1_32
REMARK    4  A    between atoms: CA_4  and  C_6
REMARK    5  A    between atoms: CA_4  and  N_24
REMARK    6  A    between atoms: CA_12  and  C_14
REMARK    7  A    between atoms: N_16  and  C_17
REMARK    8  A    between atoms: C_17  and  C_19
REMARK    9  A    between atoms: C_17  and  C_21
REMARK   10  A    between atoms: C_19  and  O_20
REMARK   11  A    between atoms: C_25  and  CA_27
REMARK                            x       y       z     vdW  Elec       q    Type
REMARK                         _______ _______ _______ _____ _____    ______ ____
ROOT
ATOM      1  C   PRO A   1       3.861   6.062   1.036  0.00  0.00    +0.239 C 
ATOM      2  O   PRO A   1       4.619   5.579   1.851  0.00  0.00    -0.273 OA
ATOM      3  N   PRO A   1       4.250   7.122   0.299  0.00  0.00    -0.288 N 
ATOM      4  CD  PRO A   1       3.480   7.736  -0.792  0.00  0.00    +0.109 C 
ATOM      5  CG  PRO A   1       4.329   8.895  -1.356  0.00  0.00    +0.021 C 
ATOM      6  CB  PRO A   1       5.770   8.512  -0.927  0.00  0.00    +0.033 C 
ATOM      7  CA  PRO A   1       5.516   7.861   0.458  0.00  0.00    +0.162 C 
ENDROOT
BRANCH   7   8
ATOM      8  C   PRO A   1       6.636   6.914   0.805  0.00  0.00    +0.234 C 
ATOM      9  O   PRO A   1       6.615   5.773   0.393  0.00  0.00    -0.274 OA
ATOM     10  N   UNK A   2       7.662   7.334   1.571  0.00  0.00    -0.301 N 
ATOM     11  H   UNK A   2       7.679   8.247   1.901  0.00  0.00    +0.150 HD
BRANCH  10  12
ATOM     12  C   UNK A   2       8.750   6.414   1.908  0.00  0.00    +0.184 C 
BRANCH  12  13
ATOM     13  C   UNK A   2       9.405   6.858   3.191  0.00  0.00    +0.233 C 
ATOM     14  O   UNK A   2       9.001   7.846   3.768  0.00  0.00    -0.274 OA
ATOM     15  N   UNK A   2      10.438   6.157   3.698  0.00  0.00    -0.328 N 
ATOM     16  H   UNK A   2      10.761   5.367   3.237  0.00  0.00    +0.145 HD
ATOM     17  H   UNK A   2      10.859   6.442   4.524  0.00  0.00    +0.145 HD
ENDBRANCH  12  13
BRANCH  12  18
ATOM     18  C   UNK A   2       9.785   6.414   0.781  0.00  0.00    +0.187 C 
BRANCH  18  19
ATOM     19  O   UNK A   2      10.394   7.704   0.694  0.00  0.00    -0.393 OA
ATOM     20  H   UNK A   2      11.062   7.777  -0.001  0.00  0.00    +0.209 HD
ENDBRANCH  18  19
ENDBRANCH  12  18
ENDBRANCH  10  12
ENDBRANCH   7   8
BRANCH   1  21
ATOM     21  CA  PRO A   1       2.485   5.478   0.847  0.00  0.00    +0.187 C 
BRANCH  21  22
ATOM     22  N   PRO A   1       1.980   4.992   2.133  0.00  0.00    -0.303 N 
ATOM     23  C   PRO A   1       0.652   4.899   2.344  0.00  0.00    +0.200 C 
ATOM     24  O   PRO A   1      -0.124   5.218   1.469  0.00  0.00    -0.278 OA
ATOM     25  H   PRO A   1       2.602   4.737   2.833  0.00  0.00    +0.149 HD
BRANCH  23  26
ATOM     26  CA  PRO A   1       0.133   4.399   3.668  0.00  0.00    +0.016 C 
ATOM     27  CB  PRO A   1       0.083   2.851   3.686  0.00  0.00    -0.009 C 
ATOM     28  CG  PRO A   1      -0.994   2.552   4.754  0.00  0.00    -0.020 C 
ATOM     29  CD  PRO A   1      -1.841   3.835   4.841  0.00  0.00    -0.082 C 
ATOM     30  N   PRO A   1      -1.276   4.768   3.864  0.00  0.00    +0.387 N 
ATOM     31  H1  PRO A   1      -1.785   4.697   2.975  0.00  0.00    -0.085 HD
ATOM     32  H2  PRO A   1      -1.341   5.729   4.220  0.00  0.00    -0.085 HD
ENDBRANCH  23  26
ENDBRANCH  21  22
BRANCH  21  34
ATOM     33  CG2 PRO A   1       1.183   3.652  -0.254  0.00  0.00    +0.040 C 
ATOM     34  CB  PRO A   1       2.557   4.315  -0.145  0.00  0.00    +0.141 C 
BRANCH  34  35
ATOM     35  OG1 PRO A   1       2.951   4.806  -1.428  0.00  0.00    -0.390 OA
ATOM     36  HG1 PRO A   1       2.300   5.387  -1.844  0.00  0.00    +0.210 HD
ENDBRANCH  34  35
ENDBRANCH  21  34
ENDBRANCH   1  21
TORSDOF 10
