REMARK  Name = ZINC38610882
REMARK  9 active torsions:
REMARK  status: ('A' for Active; 'I' for Inactive)
REMARK    1  A    between atoms: C_1  and  C_2
REMARK    2  A    between atoms: C_2  and  O_3
REMARK    3  A    between atoms: O_3  and  C_4
REMARK    4  A    between atoms: C_4  and  C_6
REMARK    5  A    between atoms: C_8  and  N_17
REMARK    6  A    between atoms: C_18  and  C_20
REMARK    7  A    between atoms: C_20  and  C_21
REMARK    8  A    between atoms: C_21  and  N_22
REMARK    9  A    between atoms: N_25  and  C_28
REMARK                            x       y       z     vdW  Elec       q    Type
REMARK                         _______ _______ _______ _____ _____    ______ ____
ROOT
ATOM      1  N   UNL     1       3.627  -1.228   2.214  0.00  0.00    -0.286 N 
ATOM      2  C   UNL     1       4.945  -1.274   1.938  0.00  0.00    +0.215 C 
ATOM      3  O   UNL     1       5.483  -2.339   1.722  0.00  0.00    -0.276 OA
ATOM      4  H   UNL     1       3.180  -0.372   2.303  0.00  0.00    +0.155 HD
ENDROOT
BRANCH   1   6
ATOM      5  C   UNL     1       3.478  -3.789   2.442  0.00  0.00    +0.234 C 
ATOM      6  C   UNL     1       2.922  -2.384   2.368  0.00  0.00    +0.053 C 
ATOM      7  C   UNL     1       1.550  -2.516   2.489  0.00  0.00    +0.019 A 
ATOM      8  C   UNL     1       0.496  -1.570   2.493  0.00  0.00    +0.026 A 
ATOM      9  C   UNL     1      -0.785  -1.993   2.631  0.00  0.00    +0.019 A 
ATOM     10  C   UNL     1      -1.099  -3.348   2.772  0.00  0.00    +0.017 A 
ATOM     11  C   UNL     1      -0.142  -4.307   2.776  0.00  0.00    +0.027 A 
ATOM     12  C   UNL     1       1.223  -3.944   2.636  0.00  0.00    +0.045 A 
ATOM     13  N   UNL     1       2.321  -4.674   2.609  0.00  0.00    -0.367 N 
ATOM     14 BR   UNL     1      -2.182  -0.718   2.635  0.00  0.00    -0.050 Br
ATOM     15  H   UNL     1       2.359  -5.640   2.687  0.00  0.00    +0.161 HD
BRANCH   5  16
ATOM     16  C   UNL     1       4.405  -3.918   3.623  0.00  0.00    +0.336 C 
ATOM     17  O   UNL     1       3.980  -4.305   4.686  0.00  0.00    -0.248 OA
BRANCH  16  18
ATOM     18  O   UNL     1       5.704  -3.603   3.495  0.00  0.00    -0.463 OA
BRANCH  18  20
ATOM     19  C   UNL     1       7.962  -3.346   4.317  0.00  0.00    +0.048 C 
ATOM     20  C   UNL     1       6.525  -3.749   4.655  0.00  0.00    +0.229 C 
ENDBRANCH  18  20
ENDBRANCH  16  18
ENDBRANCH   5  16
ENDBRANCH   1   6
BRANCH   2  21
ATOM     21  C   UNL     1       5.752  -0.001   1.897  0.00  0.00    +0.077 C 
BRANCH  21  22
ATOM     22  C   UNL     1       7.208  -0.331   1.565  0.00  0.00    -0.069 C 
BRANCH  22  23
ATOM     23  N   UNL     1       7.994   0.910   1.525  0.00  0.00    +0.382 N 
ATOM     24  C   UNL     1       7.516   1.756   0.424  0.00  0.00    -0.060 C 
ATOM     25  C   UNL     1       8.256   3.097   0.453  0.00  0.00    +0.086 C 
ATOM     26  N   UNL     1       9.703   2.831   0.430  0.00  0.00    -0.331 N 
ATOM     27  C   UNL     1      10.246   1.866   1.398  0.00  0.00    +0.086 C 
ATOM     28  C   UNL     1       9.412   0.583   1.325  0.00  0.00    -0.060 C 
ATOM     29  H   UNL     1       7.884   1.404   2.398  0.00  0.00    -0.082 HD
BRANCH  26  30
ATOM     30  C   UNL     1      10.538   3.478  -0.487  0.00  0.00    +0.065 A 
ATOM     31  C   UNL     1      11.134   4.686  -0.153  0.00  0.00    +0.026 A 
ATOM     32  C   UNL     1      11.959   5.323  -1.060  0.00  0.00    +0.002 A 
ATOM     33  C   UNL     1      12.191   4.758  -2.301  0.00  0.00    +0.003 A 
ATOM     34  C   UNL     1      11.600   3.554  -2.639  0.00  0.00    +0.040 A 
ATOM     35  C   UNL     1      10.778   2.909  -1.733  0.00  0.00    +0.144 A 
ATOM     36  F   UNL     1      10.205   1.730  -2.061  0.00  0.00    -0.204 F 
ENDBRANCH  26  30
ENDBRANCH  22  23
ENDBRANCH  21  22
ENDBRANCH   2  21
TORSDOF 8
