REMARK  Name = ZINC21248236
REMARK  13 active torsions:
REMARK  status: ('A' for Active; 'I' for Inactive)
REMARK    1  A    between atoms: C_1  and  C_2
REMARK    2  A    between atoms: C_2  and  C_3
REMARK    3  A    between atoms: C_3  and  C_5
REMARK    4  A    between atoms: C_3  and  O_6
REMARK    5  A    between atoms: O_6  and  C_7
REMARK    6  A    between atoms: C_12  and  C_13
REMARK    7  A    between atoms: C_18  and  C_23
REMARK    8  A    between atoms: C_26  and  O_31
REMARK    9  A    between atoms: C_27  and  O_29
REMARK   10  A    between atoms: O_29  and  C_30
REMARK   11  A    between atoms: O_31  and  C_32
REMARK   12  A    between atoms: C_32  and  C_33
REMARK   13  A    between atoms: C_32  and  C_34
REMARK                            x       y       z     vdW  Elec       q    Type
REMARK                         _______ _______ _______ _____ _____    ______ ____
ROOT
ATOM      1  C   UNL     1      10.433   1.700  -1.576  0.00  0.00    +0.139 C 
ATOM      2  C   UNL     1       9.027   1.850  -1.048  0.00  0.00    +0.037 C 
ATOM      3  C   UNL     1       8.669   1.862   0.248  0.00  0.00    +0.017 C 
ATOM      4  C   UNL     1       7.210   2.017   0.642  0.00  0.00    +0.059 C 
ATOM      5  C   UNL     1       6.484   2.892  -0.379  0.00  0.00    +0.032 C 
ATOM      6  C   UNL     1       6.597   2.206  -1.745  0.00  0.00    +0.088 C 
ATOM      7  C   UNL     1       8.049   2.000  -2.058  0.00  0.00    +0.163 C 
ATOM      8  O   UNL     1       8.397   1.960  -3.222  0.00  0.00    -0.292 OA
ATOM      9  N   UNL     1       9.529   1.729   1.290  0.00  0.00    -0.316 N 
ATOM     10  C   UNL     1      10.734   2.411   1.418  0.00  0.00    +0.052 A 
ATOM     11  C   UNL     1      10.962   3.329   2.428  0.00  0.00    +0.025 A 
ATOM     12  C   UNL     1      12.202   3.937   2.525  0.00  0.00    +0.002 A 
ATOM     13  C   UNL     1      13.204   3.626   1.623  0.00  0.00    +0.002 A 
ATOM     14  C   UNL     1      12.972   2.721   0.602  0.00  0.00    +0.025 A 
ATOM     15  C   UNL     1      11.725   2.128   0.489  0.00  0.00    +0.049 A 
ATOM     16  N   UNL     1      11.409   1.298  -0.585  0.00  0.00    -0.331 N 
ATOM     17  H   UNL     1       9.292   1.041   2.114  0.00  0.00    +0.152 HD
ATOM     18  H   UNL     1      11.914   0.325  -0.674  0.00  0.00    +0.147 HD
ENDROOT
BRANCH   1  24
ATOM     19  C   UNL     1      11.900   3.061  -3.087  0.00  0.00    +0.126 A 
ATOM     20  C   UNL     1      12.291   4.275  -3.631  0.00  0.00    +0.046 A 
ATOM     21  C   UNL     1      11.658   5.440  -3.244  0.00  0.00    +0.004 A 
ATOM     22  C   UNL     1      10.630   5.396  -2.321  0.00  0.00    +0.001 A 
ATOM     23  C   UNL     1      10.234   4.186  -1.782  0.00  0.00    +0.009 A 
ATOM     24  C   UNL     1      10.865   3.018  -2.165  0.00  0.00    +0.019 A 
BRANCH  19  25
ATOM     25  O   UNL     1      12.526   1.914  -3.461  0.00  0.00    -0.489 OA
BRANCH  25  26
ATOM     26  C   UNL     1      13.496   2.015  -4.505  0.00  0.00    +0.170 C 
ATOM     27  C   UNL     1      14.845   2.426  -3.910  0.00  0.00    +0.052 C 
BRANCH  26  29
ATOM     28  C   UNL     1      12.313   0.290  -5.870  0.00  0.00    +0.007 C 
ATOM     29  C   UNL     1      13.638   0.661  -5.203  0.00  0.00    +0.041 C 
ENDBRANCH  26  29
ENDBRANCH  25  26
ENDBRANCH  19  25
ENDBRANCH   1  24
BRANCH   5  30
ATOM     30  C   UNL     1       5.034   3.030   0.006  0.00  0.00    -0.040 A 
ATOM     31  C   UNL     1       4.236   1.906   0.102  0.00  0.00    +0.008 A 
ATOM     32  C   UNL     1       2.905   2.027   0.454  0.00  0.00    +0.050 A 
ATOM     33  C   UNL     1       2.367   3.278   0.711  0.00  0.00    +0.162 A 
ATOM     34  C   UNL     1       3.169   4.411   0.608  0.00  0.00    +0.162 A 
ATOM     35  C   UNL     1       4.504   4.282   0.261  0.00  0.00    +0.053 A 
BRANCH  34  36
ATOM     36  O   UNL     1       2.645   5.641   0.854  0.00  0.00    -0.491 OA
ATOM     37  C   UNL     1       3.527   6.759   0.730  0.00  0.00    +0.277 C 
ENDBRANCH  34  36
BRANCH  33  38
ATOM     38  O   UNL     1       1.058   3.400   1.057  0.00  0.00    -0.486 OA
BRANCH  38  39
ATOM     39  C   UNL     1       0.324   2.189   1.255  0.00  0.00    +0.167 C 
ATOM     40  C   UNL     1      -0.857   2.455   2.190  0.00  0.00    +0.051 C 
ATOM     41  C   UNL     1      -0.196   1.683  -0.092  0.00  0.00    +0.051 C 
ENDBRANCH  38  39
ENDBRANCH  33  38
ENDBRANCH   5  30
TORSDOF 8
