REMARK  Name = ZINC40010986
REMARK  13 active torsions:
REMARK  status: ('A' for Active; 'I' for Inactive)
REMARK    1  A    between atoms: C_1  and  C_2
REMARK    2  A    between atoms: C_6  and  C_15
REMARK    3  A    between atoms: C_13  and  C_14
REMARK    4  A    between atoms: C_19  and  O_35
REMARK    5  A    between atoms: C_20  and  O_33
REMARK    6  A    between atoms: N_25  and  C_26
REMARK    7  A    between atoms: C_26  and  N_28
REMARK    8  A    between atoms: N_28  and  C_29
REMARK    9  A    between atoms: C_29  and  C_30
REMARK   10  A    between atoms: C_30  and  O_31
REMARK   11  A    between atoms: O_31  and  C_32
REMARK   12  A    between atoms: O_33  and  C_34
REMARK   13  A    between atoms: O_35  and  C_36
REMARK                            x       y       z     vdW  Elec       q    Type
REMARK                         _______ _______ _______ _____ _____    ______ ____
ROOT
ATOM      1  C   UNL     1      -1.328  -4.858  -2.517  0.00  0.00    +0.121 C 
ATOM      2  C   UNL     1      -1.284  -6.349  -2.740  0.00  0.00    -0.019 A 
ATOM      3  C   UNL     1      -1.001  -7.157  -1.646  0.00  0.00    +0.055 A 
ATOM      4  C   UNL     1      -0.956  -8.532  -1.782  0.00  0.00    +0.162 A 
ATOM      5  C   UNL     1      -1.198  -9.108  -3.026  0.00  0.00    +0.162 A 
ATOM      6  C   UNL     1      -1.476  -8.299  -4.112  0.00  0.00    +0.053 A 
ATOM      7  C   UNL     1      -1.514  -6.916  -3.973  0.00  0.00    -0.037 A 
ATOM      8  C   UNL     1      -1.796  -6.101  -5.207  0.00  0.00    +0.054 C 
ATOM      9  C   UNL     1      -2.277  -4.699  -4.835  0.00  0.00    +0.112 C 
ATOM     10  N   UNL     1      -1.365  -4.167  -3.810  0.00  0.00    -0.304 N 
ENDROOT
BRANCH   1  16
ATOM     11  C   UNL     1       1.900  -7.886   3.089  0.00  0.00    +0.044 C 
ATOM     12  C   UNL     1       1.891  -7.245   1.725  0.00  0.00    -0.047 A 
ATOM     13  C   UNL     1       0.851  -6.446   1.373  0.00  0.00    +0.013 A 
ATOM     14  C   UNL     1       0.854  -5.829   0.046  0.00  0.00    -0.007 A 
ATOM     15  C   UNL     1      -0.169  -5.019  -0.350  0.00  0.00    -0.003 C 
ATOM     16  C   UNL     1      -0.083  -4.422  -1.742  0.00  0.00    +0.123 C 
ATOM     17  C   UNL     1       1.128  -4.774  -2.575  0.00  0.00    +0.226 C 
ATOM     18  O   UNL     1       1.248  -4.322  -3.699  0.00  0.00    -0.275 OA
ATOM     19  N   UNL     1       2.057  -5.573  -2.079  0.00  0.00    -0.284 N 
ATOM     20  C   UNL     1       1.986  -6.100  -0.856  0.00  0.00    +0.041 A 
ATOM     21  C   UNL     1       3.013  -6.943  -0.393  0.00  0.00    +0.027 A 
ATOM     22  C   UNL     1       2.954  -7.481   0.853  0.00  0.00    -0.046 A 
ATOM     23  C   UNL     1       4.079  -8.374   1.309  0.00  0.00    +0.044 C 
ATOM     24  H   UNL     1       2.826  -5.786  -2.630  0.00  0.00    +0.155 HD
ENDBRANCH   1  16
BRANCH  10  25
ATOM     25  C   UNL     1      -0.596  -3.086  -4.049  0.00  0.00    +0.133 C 
ATOM     26  S   UNL     1       0.496  -2.531  -2.853  0.00  0.00    -0.019 S 
BRANCH  25  27
ATOM     27  N   UNL     1      -0.687  -2.442  -5.229  0.00  0.00    -0.324 N 
ATOM     28  H   UNL     1      -1.248  -2.800  -5.935  0.00  0.00    +0.148 HD
BRANCH  27  29
ATOM     29  C   UNL     1       0.062  -1.202  -5.447  0.00  0.00    +0.131 C 
BRANCH  29  30
ATOM     30  C   UNL     1      -0.215  -0.679  -6.858  0.00  0.00    +0.178 C 
BRANCH  30  31
ATOM     31  O   UNL     1      -1.592  -0.314  -6.969  0.00  0.00    -0.381 OA
ATOM     32  C   UNL     1      -1.958   0.189  -8.255  0.00  0.00    +0.194 C 
ENDBRANCH  30  31
ENDBRANCH  29  30
ENDBRANCH  27  29
ENDBRANCH  25  27
ENDBRANCH  10  25
BRANCH   5  33
ATOM     33  O   UNL     1      -1.162 -10.460  -3.172  0.00  0.00    -0.491 OA
ATOM     34  C   UNL     1      -1.421 -10.978  -4.479  0.00  0.00    +0.277 C 
ENDBRANCH   5  33
BRANCH   4  35
ATOM     35  O   UNL     1      -0.676  -9.317  -0.707  0.00  0.00    -0.491 OA
ATOM     36  C   UNL     1      -0.592  -8.671   0.564  0.00  0.00    +0.277 C 
ENDBRANCH   4  35
TORSDOF 8
