REMARK  Name = ZINC48264764
REMARK  10 active torsions:
REMARK  status: ('A' for Active; 'I' for Inactive)
REMARK    1  A    between atoms: C_1  and  C_2
REMARK    2  A    between atoms: C_4  and  C_14
REMARK    3  A    between atoms: C_5  and  C_13
REMARK    4  A    between atoms: N_6  and  C_7
REMARK    5  A    between atoms: C_14  and  C_16
REMARK    6  A    between atoms: C_16  and  S_17
REMARK    7  A    between atoms: S_17  and  C_18
REMARK    8  A    between atoms: C_19  and  C_26
REMARK    9  A    between atoms: C_20  and  N_25
REMARK   10  A    between atoms: C_22  and  N_24
REMARK                            x       y       z     vdW  Elec       q    Type
REMARK                         _______ _______ _______ _____ _____    ______ ____
ROOT
ATOM      1  C   UNL     1       0.033  -3.266  -2.953  0.00  0.00    +0.155 C 
ENDROOT
BRANCH   1   2
ATOM      2  C   UNL     1       0.041  -3.378  -1.450  0.00  0.00    +0.175 C 
ATOM      3  O   UNL     1       0.058  -4.471  -0.923  0.00  0.00    -0.291 OA
BRANCH   2   7
ATOM      4  C   UNL     1      -0.018   1.503   0.010  0.00  0.00    +0.064 C 
ATOM      5  C   UNL     1       0.002  -0.004   0.002  0.00  0.00    +0.022 A 
ATOM      6  C   UNL     1       0.008  -0.777  -1.097  0.00  0.00    +0.034 A 
ATOM      7  C   UNL     1       0.029  -2.168  -0.626  0.00  0.00    +0.039 A 
ATOM      8  C   UNL     1       0.034  -2.101   0.755  0.00  0.00    +0.031 A 
ATOM      9  N   UNL     1       0.024  -0.802   1.112  0.00  0.00    -0.317 N 
ATOM     10  C   UNL     1       0.053  -3.277   1.697  0.00  0.00    +0.064 C 
BRANCH   9  11
ATOM     11  C   UNL     1       0.030  -0.336   2.433  0.00  0.00    +0.047 A 
ATOM     12  C   UNL     1       1.132  -0.562   3.246  0.00  0.00    +0.026 A 
ATOM     13  C   UNL     1       1.135  -0.101   4.548  0.00  0.00    +0.002 A 
ATOM     14  C   UNL     1       0.042   0.586   5.042  0.00  0.00    +0.000 A 
ATOM     15  C   UNL     1      -1.058   0.813   4.235  0.00  0.00    +0.002 A 
ATOM     16  C   UNL     1      -1.064   0.360   2.930  0.00  0.00    +0.026 A 
ENDBRANCH   9  11
ENDBRANCH   2   7
ENDBRANCH   1   2
BRANCH   1  17
ATOM     17  S   UNL     1       0.052  -4.927  -3.683  0.00  0.00    -0.097 S 
BRANCH  17  18
ATOM     18  C   UNL     1       0.040  -4.629  -5.420  0.00  0.00    +0.119 A 
ATOM     19  C   UNL     1       0.045  -5.714  -6.314  0.00  0.00    +0.104 A 
ATOM     20  C   UNL     1       0.035  -5.452  -7.700  0.00  0.00    +0.048 A 
ATOM     21  C   UNL     1       0.022  -4.127  -8.120  0.00  0.00    +0.067 A 
ATOM     22  C   UNL     1       0.018  -3.112  -7.172  0.00  0.00    +0.119 A 
ATOM     23  N   UNL     1       0.022  -3.385  -5.873  0.00  0.00    -0.225 NA
BRANCH  22  24
ATOM     24  N   UNL     1       0.005  -1.791  -7.590  0.00  0.00    -0.343 N 
ATOM     25  H   UNL     1      -0.001  -1.581  -8.537  0.00  0.00    +0.144 HD
ATOM     26  H   UNL     1       0.003  -1.075  -6.935  0.00  0.00    +0.144 HD
ENDBRANCH  22  24
BRANCH  20  27
ATOM     27  N   UNL     1       0.040  -6.490  -8.620  0.00  0.00    -0.357 N 
ATOM     28  H   UNL     1       0.050  -7.410  -8.313  0.00  0.00    +0.142 HD
ATOM     29  H   UNL     1       0.033  -6.295  -9.570  0.00  0.00    +0.142 HD
ENDBRANCH  20  27
BRANCH  19  30
ATOM     30  C   UNL     1       0.059  -7.060  -5.827  0.00  0.00    +0.104 C 
ATOM     31  N   UNL     1       0.071  -8.129  -5.440  0.00  0.00    -0.191 NA
ENDBRANCH  19  30
ENDBRANCH  17  18
ENDBRANCH   1  17
TORSDOF 8
