REMARK  Name = ZINC39228015
REMARK  10 active torsions:
REMARK  status: ('A' for Active; 'I' for Inactive)
REMARK    1  A    between atoms: C_1  and  C_2
REMARK    2  A    between atoms: C_2  and  C_3
REMARK    3  A    between atoms: C_2  and  C_4
REMARK    4  A    between atoms: C_7  and  C_10
REMARK    5  A    between atoms: C_10  and  N_11
REMARK    6  A    between atoms: C_24  and  C_26
REMARK    7  A    between atoms: C_28  and  O_34
REMARK    8  A    between atoms: C_31  and  O_32
REMARK    9  A    between atoms: O_32  and  C_33
REMARK   10  A    between atoms: O_34  and  C_35
REMARK                            x       y       z     vdW  Elec       q    Type
REMARK                         _______ _______ _______ _____ _____    ______ ____
ROOT
ATOM      1  N   UNL     1      -6.510  -0.730  -0.599  0.00  0.00    +0.391 N 
ATOM      2  C   UNL     1      -7.000   0.484   0.068  0.00  0.00    -0.072 C 
ATOM      3  C   UNL     1      -7.798   1.332  -0.933  0.00  0.00    +0.019 C 
ATOM      4  C   UNL     1      -8.795   0.427  -1.612  0.00  0.00    -0.022 A 
ATOM      5  C   UNL     1      -9.961   0.767  -2.396  0.00  0.00    +0.003 A 
ATOM      6  C   UNL     1     -10.531   1.986  -2.773  0.00  0.00    +0.010 A 
ATOM      7  C   UNL     1     -11.669   1.929  -3.540  0.00  0.00    +0.001 A 
ATOM      8  C   UNL     1     -12.235   0.726  -3.928  0.00  0.00    +0.002 A 
ATOM      9  C   UNL     1     -11.692  -0.495  -3.569  0.00  0.00    +0.026 A 
ATOM     10  C   UNL     1     -10.537  -0.469  -2.791  0.00  0.00    +0.047 A 
ATOM     11  N   UNL     1      -9.760  -1.466  -2.273  0.00  0.00    -0.359 N 
ATOM     12  C   UNL     1      -8.720  -0.923  -1.570  0.00  0.00    +0.011 A 
ATOM     13  H   UNL     1      -9.922  -2.415  -2.386  0.00  0.00    +0.166 HD
ATOM     14  C   UNL     1      -7.622  -1.661  -0.841  0.00  0.00    +0.014 C 
ATOM     15  H   UNL     1      -6.088  -0.477  -1.480  0.00  0.00    -0.080 HD
ENDROOT
BRANCH  14  16
ATOM     16  C   UNL     1      -8.146  -2.175   0.475  0.00  0.00    -0.010 A 
ATOM     17  C   UNL     1      -9.216  -1.548   1.085  0.00  0.00    +0.051 A 
ATOM     18  C   UNL     1      -9.699  -2.021   2.296  0.00  0.00    +0.121 A 
ATOM     19  C   UNL     1      -9.107  -3.124   2.895  0.00  0.00    +0.049 A 
ATOM     20  C   UNL     1      -8.038  -3.750   2.286  0.00  0.00    +0.049 A 
ATOM     21  C   UNL     1      -7.559  -3.280   1.072  0.00  0.00    +0.122 A 
BRANCH  21  22
ATOM     22  O   UNL     1      -6.510  -3.901   0.469  0.00  0.00    -0.495 OA
ATOM     23  C   UNL     1      -5.953  -5.033   1.139  0.00  0.00    +0.277 C 
ENDBRANCH  21  22
BRANCH  18  24
ATOM     24  O   UNL     1     -10.751  -1.404   2.897  0.00  0.00    -0.495 OA
ATOM     25  C   UNL     1     -11.196  -1.945   4.142  0.00  0.00    +0.277 C 
ENDBRANCH  18  24
ENDBRANCH  14  16
BRANCH   1  26
ATOM     26  C   UNL     1      -5.505  -1.381   0.252  0.00  0.00    -0.042 C 
BRANCH  26  30
ATOM     27  C   UNL     1      -2.078   1.144   0.604  0.00  0.00    -0.045 A 
ATOM     28  C   UNL     1      -3.115   1.256   1.511  0.00  0.00    +0.004 A 
ATOM     29  C   UNL     1      -4.224   0.439   1.398  0.00  0.00    +0.002 A 
ATOM     30  C   UNL     1      -4.297  -0.490   0.376  0.00  0.00    -0.064 A 
ATOM     31  C   UNL     1      -3.261  -0.601  -0.532  0.00  0.00    +0.002 A 
ATOM     32  C   UNL     1      -2.153   0.220  -0.421  0.00  0.00    +0.004 A 
BRANCH  27  34
ATOM     33  C   UNL     1      -1.301   3.499   0.625  0.00  0.00    +0.012 C 
ATOM     34  C   UNL     1      -0.869   2.035   0.728  0.00  0.00    +0.013 C 
ATOM     35  C   UNL     1      -0.196   1.796   2.081  0.00  0.00    +0.012 C 
ENDBRANCH  27  34
ENDBRANCH  26  30
ENDBRANCH   1  26
TORSDOF 6
