REMARK  Name = ZINC09730799
REMARK  8 active torsions:
REMARK  status: ('A' for Active; 'I' for Inactive)
REMARK    1  A    between atoms: C_4  and  N_7
REMARK    2  A    between atoms: N_7  and  C_8
REMARK    3  A    between atoms: C_18  and  O_20
REMARK    4  A    between atoms: O_20  and  C_21
REMARK    5  A    between atoms: C_21  and  C_22
REMARK    6  A    between atoms: N_26  and  N_27
REMARK    7  A    between atoms: C_28  and  C_29
REMARK    8  A    between atoms: C_33  and  N_35
REMARK                            x       y       z     vdW  Elec       q    Type
REMARK                         _______ _______ _______ _____ _____    ______ ____
ROOT
ATOM      1  N   UNL     1      -3.626  11.388   0.090  0.00  0.00    -0.238 N 
ATOM      2  C   UNL     1      -4.138  10.115   0.265  0.00  0.00    +0.234 A 
ATOM      3  N   UNL     1      -3.477   9.063  -0.207  0.00  0.00    -0.179 NA
ATOM      4  C   UNL     1      -3.972   7.840  -0.043  0.00  0.00    +0.242 A 
ATOM      5  N   UNL     1      -5.122   7.670   0.603  0.00  0.00    -0.160 NA
ATOM      6  C   UNL     1      -5.778   8.721   1.080  0.00  0.00    +0.324 A 
ATOM      7  N   UNL     1      -5.287   9.943   0.911  0.00  0.00    -0.160 NA
ATOM      8  N   UNL     1      -3.290   6.746  -0.538  0.00  0.00    -0.205 N 
ATOM      9  H   UNL     1      -2.451   6.870  -1.010  0.00  0.00    +0.177 HD
ENDROOT
BRANCH   1  13
ATOM     10  C   UNL     1      -5.670  14.681   1.619  0.00  0.00    +0.000 A 
ATOM     11  C   UNL     1      -4.726  14.034   2.396  0.00  0.00    +0.002 A 
ATOM     12  C   UNL     1      -4.047  12.942   1.892  0.00  0.00    +0.024 A 
ATOM     13  C   UNL     1      -4.312  12.494   0.604  0.00  0.00    +0.042 A 
ATOM     14  C   UNL     1      -5.256  13.151  -0.175  0.00  0.00    +0.024 A 
ATOM     15  C   UNL     1      -5.936  14.238   0.337  0.00  0.00    +0.002 A 
ENDBRANCH   1  13
BRANCH   1  16
ATOM     16  C   UNL     1      -2.423  11.570  -0.600  0.00  0.00    +0.042 A 
ATOM     17  C   UNL     1      -1.217  11.566   0.090  0.00  0.00    +0.024 A 
ATOM     18  C   UNL     1      -0.031  11.740  -0.595  0.00  0.00    +0.002 A 
ATOM     19  C   UNL     1      -0.043  11.929  -1.965  0.00  0.00    +0.000 A 
ATOM     20  C   UNL     1      -1.242  11.940  -2.654  0.00  0.00    +0.002 A 
ATOM     21  C   UNL     1      -2.432  11.761  -1.976  0.00  0.00    +0.024 A 
ENDBRANCH   1  16
BRANCH   8  22
ATOM     22  N   UNL     1      -3.809   5.457  -0.360  0.00  0.00    -0.188 NA
ATOM     23  C   UNL     1      -3.167   4.429  -0.825  0.00  0.00    +0.138 C 
BRANCH  23  24
ATOM     24  C   UNL     1      -3.713   3.072  -0.638  0.00  0.00    -0.003 A 
ATOM     25  C   UNL     1      -4.921   2.890   0.040  0.00  0.00    +0.009 A 
ATOM     26  C   UNL     1      -5.429   1.618   0.207  0.00  0.00    +0.003 A 
ATOM     27  C   UNL     1      -4.740   0.524  -0.286  0.00  0.00    +0.033 A 
ATOM     28  C   UNL     1      -3.543   0.698  -0.958  0.00  0.00    +0.127 A 
ATOM     29  C   UNL     1      -3.026   1.964  -1.137  0.00  0.00    +0.042 A 
BRANCH  28  30
ATOM     30  N   UNL     1      -2.816  -0.478  -1.487  0.00  0.00    +0.056 N 
ATOM     31  O   UNL     1      -3.272  -1.597  -1.330  0.00  0.00    -0.126 OA
ATOM     32  O   UNL     1      -1.762  -0.327  -2.079  0.00  0.00    -0.126 OA
ENDBRANCH  28  30
ENDBRANCH  23  24
ENDBRANCH   8  22
BRANCH   6  33
ATOM     33  O   UNL     1      -6.948   8.547   1.737  0.00  0.00    -0.453 OA
BRANCH  33  34
ATOM     34  C   UNL     1      -7.418   7.205   1.881  0.00  0.00    +0.345 C 
BRANCH  34  35
ATOM     35  C   UNL     1      -8.743   7.208   2.645  0.00  0.00    +0.424 C 
ATOM     36  F   UNL     1      -9.688   7.959   1.937  0.00  0.00    -0.167 F 
ATOM     37  F   UNL     1      -9.203   5.894   2.787  0.00  0.00    -0.167 F 
ATOM     38  F   UNL     1      -8.552   7.774   3.910  0.00  0.00    -0.167 F 
ENDBRANCH  34  35
ENDBRANCH  33  34
ENDBRANCH   6  33
TORSDOF 8
