REMARK  Name = ZINC14665770
REMARK  12 active torsions:
REMARK  status: ('A' for Active; 'I' for Inactive)
REMARK    1  A    between atoms: C_1  and  C_2
REMARK    2  A    between atoms: C_2  and  C_4
REMARK    3  A    between atoms: C_2  and  O_23
REMARK    4  A    between atoms: N_6  and  N_7
REMARK    5  A    between atoms: C_8  and  C_10
REMARK    6  A    between atoms: C_10  and  O_11
REMARK    7  A    between atoms: O_11  and  C_12
REMARK    8  A    between atoms: O_23  and  C_24
REMARK    9  A    between atoms: C_27  and  C_30
REMARK   10  A    between atoms: C_30  and  C_31
REMARK   11  A    between atoms: C_30  and  C_32
REMARK   12  A    between atoms: C_30  and  C_33
REMARK                            x       y       z     vdW  Elec       q    Type
REMARK                         _______ _______ _______ _____ _____    ______ ____
ROOT
ATOM      1  C   UNL     1       4.035  12.532   0.273  0.00  0.00    +0.270 C 
ATOM      2  O   UNL     1       5.163  12.115   0.430  0.00  0.00    -0.270 OA
ATOM      3  N   UNL     1       2.990  11.682   0.320  0.00  0.00    -0.231 N 
ATOM      4  H   UNL     1       2.088  12.015   0.194  0.00  0.00    +0.173 HD
ENDROOT
BRANCH   3   5
ATOM      5  N   UNL     1       3.207  10.317   0.549  0.00  0.00    -0.231 N 
ATOM      6  C   UNL     1       2.162   9.467   0.595  0.00  0.00    +0.267 C 
ATOM      7  O   UNL     1       1.034   9.884   0.438  0.00  0.00    -0.271 OA
ATOM      8  H   UNL     1       4.109   9.984   0.675  0.00  0.00    +0.173 HD
BRANCH   6   9
ATOM      9  C   UNL     1       2.395   7.999   0.842  0.00  0.00    +0.326 C 
BRANCH   9  10
ATOM     10  O   UNL     1       1.142   7.312   0.846  0.00  0.00    -0.482 OA
BRANCH  10  11
ATOM     11  C   UNL     1       1.175   5.970   1.057  0.00  0.00    +0.136 A 
ATOM     12  C   UNL     1       2.404   5.333   1.256  0.00  0.00    +0.047 A 
ATOM     13  C   UNL     1       2.469   3.991   1.470  0.00  0.00    +0.012 A 
ATOM     14  C   UNL     1       1.288   3.229   1.491  0.00  0.00    -0.017 A 
ATOM     15  C   UNL     1       1.319   1.841   1.709  0.00  0.00    +0.008 A 
ATOM     16  C   UNL     1       0.156   1.135   1.722  0.00  0.00    +0.001 A 
ATOM     17  C   UNL     1      -1.070   1.766   1.519  0.00  0.00    +0.001 A 
ATOM     18  C   UNL     1      -1.140   3.109   1.310  0.00  0.00    +0.010 A 
ATOM     19  C   UNL     1       0.041   3.873   1.289  0.00  0.00    -0.000 A 
ATOM     20  C   UNL     1       0.007   5.260   1.071  0.00  0.00    +0.067 A 
ATOM     21 BR   UNL     1      -1.644   6.141   0.799  0.00  0.00    -0.046 Br
ENDBRANCH  10  11
ENDBRANCH   9  10
ENDBRANCH   6   9
ENDBRANCH   3   5
BRANCH   1  23
ATOM     22  C   UNL     1       3.017  14.596   1.197  0.00  0.00    +0.062 C 
ATOM     23  C   UNL     1       3.802  14.000   0.026  0.00  0.00    +0.257 C 
BRANCH  23  24
ATOM     24  O   UNL     1       5.059  14.669  -0.093  0.00  0.00    -0.480 OA
BRANCH  24  25
ATOM     25  C   UNL     1       5.077  15.828  -0.802  0.00  0.00    +0.122 A 
ATOM     26  C   UNL     1       3.892  16.368  -1.281  0.00  0.00    +0.046 A 
ATOM     27  C   UNL     1       3.911  17.550  -1.995  0.00  0.00    +0.008 A 
ATOM     28  C   UNL     1       5.112  18.189  -2.244  0.00  0.00    -0.042 A 
ATOM     29  C   UNL     1       6.295  17.650  -1.773  0.00  0.00    +0.008 A 
ATOM     30  C   UNL     1       6.280  16.471  -1.053  0.00  0.00    +0.046 A 
BRANCH  28  31
ATOM     31  C   UNL     1       5.131  19.474  -3.030  0.00  0.00    -0.013 C 
ATOM     32  C   UNL     1       5.981  19.290  -4.288  0.00  0.00    +0.015 C 
ATOM     33  C   UNL     1       3.702  19.849  -3.430  0.00  0.00    +0.015 C 
ATOM     34  C   UNL     1       5.729  20.589  -2.169  0.00  0.00    +0.015 C 
ENDBRANCH  28  31
ENDBRANCH  24  25
ENDBRANCH  23  24
ENDBRANCH   1  23
TORSDOF 8
