REMARK  Name = ZINC08883564
REMARK  16 active torsions:
REMARK  status: ('A' for Active; 'I' for Inactive)
REMARK    1  A    between atoms: C_1  and  C_2
REMARK    2  A    between atoms: C_2  and  C_3
REMARK    3  A    between atoms: C_4  and  C_37
REMARK    4  A    between atoms: C_6  and  N_13
REMARK    5  A    between atoms: C_7  and  C_8
REMARK    6  A    between atoms: C_8  and  O_10
REMARK    7  A    between atoms: O_10  and  C_11
REMARK    8  A    between atoms: C_11  and  C_12
REMARK    9  A    between atoms: C_14  and  C_16
REMARK   10  A    between atoms: C_16  and  O_17
REMARK   11  A    between atoms: O_17  and  C_18
REMARK   12  A    between atoms: C_18  and  C_20
REMARK   13  A    between atoms: C_20  and  C_22
REMARK   14  A    between atoms: C_20  and  N_33
REMARK   15  A    between atoms: C_22  and  C_23
REMARK   16  A    between atoms: C_34  and  C_36
REMARK                            x       y       z     vdW  Elec       q    Type
REMARK                         _______ _______ _______ _____ _____    ______ ____
ROOT
ATOM      1  O   UNL     1       6.303   1.834   1.110  0.00  0.00    -0.454 OA
ENDROOT
BRANCH   1   2
ATOM      2  C   UNL     1       5.680   0.677   1.381  0.00  0.00    +0.328 C 
ATOM      3  O   UNL     1       6.325  -0.319   1.608  0.00  0.00    -0.249 OA
BRANCH   2   4
ATOM      4  C   UNL     1       4.174   0.620   1.404  0.00  0.00    +0.186 C 
BRANCH   4   5
ATOM      5  N   UNL     1       3.741  -0.556   2.163  0.00  0.00    -0.302 N 
ATOM      6  C   UNL     1       4.108  -1.790   1.762  0.00  0.00    +0.211 C 
ATOM      7  O   UNL     1       4.796  -1.926   0.773  0.00  0.00    -0.276 OA
ATOM      8  C   UNL     1       3.662  -2.999   2.543  0.00  0.00    +0.109 C 
ATOM      9  H   UNL     1       3.190  -0.447   2.954  0.00  0.00    +0.150 HD
ENDBRANCH   4   5
BRANCH   4  10
ATOM     10  C   UNL     1       3.646   0.524  -0.029  0.00  0.00    +0.071 C 
BRANCH  10  11
ATOM     11  C   UNL     1       2.140   0.591  -0.015  0.00  0.00    -0.020 A 
ATOM     12  C   UNL     1       1.295  -0.452  -0.013  0.00  0.00    +0.087 A 
ATOM     13  N   UNL     1       0.002  -0.004   0.002  0.00  0.00    -0.360 N 
ATOM     14  H   UNL     1      -0.784  -0.572   0.006  0.00  0.00    +0.165 HD
ATOM     15  C   UNL     1      -0.017   1.373   0.010  0.00  0.00    +0.047 A 
ATOM     16  C   UNL     1       1.322   1.806  -0.001  0.00  0.00    +0.003 A 
ATOM     17  C   UNL     1       1.612   3.171   0.004  0.00  0.00    +0.010 A 
ATOM     18  C   UNL     1       0.593   4.082   0.019  0.00  0.00    +0.001 A 
ATOM     19  C   UNL     1      -0.729   3.659   0.029  0.00  0.00    +0.002 A 
ATOM     20  C   UNL     1      -1.038   2.317   0.029  0.00  0.00    +0.026 A 
ENDBRANCH  10  11
ENDBRANCH   4  10
ENDBRANCH   2   4
ENDBRANCH   1   2
BRANCH   1  21
ATOM     21  C   UNL     1       7.755   1.815   1.106  0.00  0.00    +0.328 C 
BRANCH  21  23
ATOM     22  N   UNL     1       9.603   3.415   0.725  0.00  0.00    -0.277 N 
ATOM     23  C   UNL     1       8.275   3.192   0.784  0.00  0.00    +0.255 C 
ATOM     24  O   UNL     1       7.498   4.101   0.579  0.00  0.00    -0.272 OA
ATOM     25  H   UNL     1      10.224   2.688   0.889  0.00  0.00    +0.155 HD
BRANCH  22  29
ATOM     26  C   UNL     1      11.614   6.496   0.001  0.00  0.00    -0.022 A 
ATOM     27  C   UNL     1      10.521   7.260  -0.169  0.00  0.00    -0.008 A 
ATOM     28  S   UNL     1       9.178   6.121   0.094  0.00  0.00    -0.078 S 
ATOM     29  C   UNL     1      10.081   4.682   0.429  0.00  0.00    +0.086 A 
ATOM     30  C   UNL     1      11.402   5.104   0.324  0.00  0.00    +0.091 A 
ATOM     31  C   UNL     1      10.450   8.727  -0.507  0.00  0.00    +0.052 C 
BRANCH  26  33
ATOM     32  C   UNL     1      13.463   6.935  -1.592  0.00  0.00    +0.009 C 
ATOM     33  C   UNL     1      13.001   7.067  -0.139  0.00  0.00    +0.033 C 
ENDBRANCH  26  33
BRANCH  30  34
ATOM     34  C   UNL     1      12.522   4.184   0.530  0.00  0.00    +0.342 C 
ATOM     35  O   UNL     1      12.981   3.564  -0.411  0.00  0.00    -0.245 OA
BRANCH  34  36
ATOM     36  O   UNL     1      13.044   4.023   1.763  0.00  0.00    -0.461 OA
BRANCH  36  37
ATOM     37  C   UNL     1      14.153   3.094   1.893  0.00  0.00    +0.229 C 
ATOM     38  C   UNL     1      14.608   3.045   3.353  0.00  0.00    +0.048 C 
ENDBRANCH  36  37
ENDBRANCH  34  36
ENDBRANCH  30  34
ENDBRANCH  22  29
ENDBRANCH  21  23
ENDBRANCH   1  21
TORSDOF 12
