REMARK  Name = ZINC39762292
REMARK  12 active torsions:
REMARK  status: ('A' for Active; 'I' for Inactive)
REMARK    1  A    between atoms: C_1  and  C_2
REMARK    2  A    between atoms: C_2  and  C_4
REMARK    3  A    between atoms: C_2  and  N_26
REMARK    4  A    between atoms: C_7  and  S_12
REMARK    5  A    between atoms: N_8  and  C_9
REMARK    6  A    between atoms: C_9  and  C_10
REMARK    7  A    between atoms: S_12  and  C_13
REMARK    8  A    between atoms: C_13  and  C_15
REMARK    9  A    between atoms: C_13  and  C_16
REMARK   10  A    between atoms: N_18  and  C_19
REMARK   11  A    between atoms: C_24  and  O_25
REMARK   12  A    between atoms: C_27  and  C_29
REMARK                            x       y       z     vdW  Elec       q    Type
REMARK                         _______ _______ _______ _____ _____    ______ ____
ROOT
ATOM      1  C   UNL     1       0.683  -0.442  -1.264  0.00  0.00    +0.155 A 
ATOM      2  N   UNL     1       1.970  -0.432  -1.471  0.00  0.00    -0.132 NA
ATOM      3  N   UNL     1       2.235  -0.929  -2.627  0.00  0.00    -0.122 NA
ATOM      4  C   UNL     1       1.122  -1.286  -3.225  0.00  0.00    +0.193 A 
ATOM      5  N   UNL     1       0.097  -0.991  -2.372  0.00  0.00    -0.301 N 
ENDROOT
BRANCH   1   7
ATOM      6  C   UNL     1      -0.047   1.583  -0.034  0.00  0.00    +0.036 C 
ATOM      7  C   UNL     1      -0.027   0.053  -0.031  0.00  0.00    +0.138 C 
BRANCH   7   8
ATOM      8  N   UNL     1       0.677  -0.423   1.162  0.00  0.00    -0.302 N 
ATOM      9  C   UNL     1       0.013  -0.558   2.327  0.00  0.00    +0.247 C 
ATOM     10  O   UNL     1      -1.170  -0.285   2.388  0.00  0.00    -0.270 OA
ATOM     11  H   UNL     1       1.621  -0.642   1.114  0.00  0.00    +0.150 HD
BRANCH   9  12
ATOM     12  C   UNL     1       0.723  -1.039   3.530  0.00  0.00    +0.072 A 
ATOM     13  C   UNL     1       2.083  -1.349   3.466  0.00  0.00    +0.016 A 
ATOM     14  C   UNL     1       2.739  -1.797   4.592  0.00  0.00    +0.001 A 
ATOM     15  C   UNL     1       2.054  -1.940   5.787  0.00  0.00    +0.003 A 
ATOM     16  C   UNL     1       0.708  -1.637   5.861  0.00  0.00    +0.039 A 
ATOM     17  C   UNL     1       0.037  -1.181   4.740  0.00  0.00    +0.135 A 
ATOM     18  F   UNL     1      -1.278  -0.879   4.814  0.00  0.00    -0.205 F 
ENDBRANCH   9  12
ENDBRANCH   7   8
ENDBRANCH   1   7
BRANCH   5  19
ATOM     19  C   UNL     1      -1.333  -1.213  -2.597  0.00  0.00    +0.152 C 
BRANCH  19  20
ATOM     20  C   UNL     1      -1.933   0.002  -3.256  0.00  0.00    -0.013 C 
ATOM     21  C   UNL     1      -2.588  -0.122  -4.384  0.00  0.00    +0.005 C 
ENDBRANCH  19  20
ENDBRANCH   5  19
BRANCH   4  22
ATOM     22  S   UNL     1       0.978  -2.014  -4.823  0.00  0.00    -0.074 S 
BRANCH  22  23
ATOM     23  C   UNL     1       2.692  -2.138  -5.404  0.00  0.00    +0.137 C 
ATOM     24  C   UNL     1       3.463  -3.114  -4.513  0.00  0.00    +0.029 C 
BRANCH  23  25
ATOM     25  C   UNL     1       2.705  -2.639  -6.826  0.00  0.00    +0.230 C 
ATOM     26  O   UNL     1       1.740  -3.222  -7.272  0.00  0.00    -0.274 OA
ATOM     27  N   UNL     1       3.789  -2.437  -7.601  0.00  0.00    -0.282 N 
ATOM     28  H   UNL     1       4.534  -1.915  -7.266  0.00  0.00    +0.155 HD
BRANCH  27  29
ATOM     29  C   UNL     1       3.838  -2.983  -8.891  0.00  0.00    +0.075 A 
ATOM     30  C   UNL     1       2.682  -3.079  -9.650  0.00  0.00    +0.027 A 
ATOM     31  C   UNL     1       2.734  -3.617 -10.922  0.00  0.00    +0.002 A 
ATOM     32  C   UNL     1       3.936  -4.060 -11.441  0.00  0.00    +0.004 A 
ATOM     33  C   UNL     1       5.093  -3.968 -10.689  0.00  0.00    +0.047 A 
ATOM     34  C   UNL     1       5.051  -3.425  -9.416  0.00  0.00    +0.138 A 
BRANCH  34  35
ATOM     35  O   UNL     1       6.189  -3.328  -8.678  0.00  0.00    -0.505 OA
ATOM     36  H   UNL     1       6.370  -4.104  -8.130  0.00  0.00    +0.292 HD
ENDBRANCH  34  35
ENDBRANCH  27  29
ENDBRANCH  23  25
ENDBRANCH  22  23
ENDBRANCH   4  22
TORSDOF 10
