REMARK  Name = ZINC19293007
REMARK  4 active torsions:
REMARK  status: ('A' for Active; 'I' for Inactive)
REMARK    1  A    between atoms: C_6  and  C_7
REMARK    2  A    between atoms: C_7  and  C_8
REMARK    3  A    between atoms: N_13  and  C_14
REMARK    4  A    between atoms: C_14  and  C_16
REMARK                            x       y       z     vdW  Elec       q    Type
REMARK                         _______ _______ _______ _____ _____    ______ ____
ROOT
ATOM      1  C   UNL     1      -2.962   0.705   1.431  0.00  0.00    +0.013 A 
ATOM      2  C   UNL     1      -3.725   1.457   2.261  0.00  0.00    +0.095 A 
ATOM      3  N   UNL     1      -3.959   1.008   3.479  0.00  0.00    -0.342 N 
ATOM      4  C   UNL     1      -3.458  -0.140   3.893  0.00  0.00    +0.163 A 
ATOM      5  S   UNL     1      -2.582  -0.681   2.494  0.00  0.00    -0.057 S 
ATOM      6  N   UNL     1      -3.594  -0.756   5.130  0.00  0.00    -0.152 NA
ATOM      7  H   UNL     1      -4.583   1.594   4.171  0.00  0.00    +0.167 HD
ENDROOT
BRANCH   6   8
ATOM      8  C   UNL     1      -4.324  -0.170   6.099  0.00  0.00    +0.275 C 
ATOM      9  O   UNL     1      -4.785   0.943   5.924  0.00  0.00    -0.268 OA
BRANCH   8  10
ATOM     10  C   UNL     1      -4.562  -0.873   7.367  0.00  0.00    +0.103 A 
ATOM     11  C   UNL     1      -5.408  -0.332   8.331  0.00  0.00    +0.023 A 
ATOM     12  C   UNL     1      -5.615  -1.026   9.527  0.00  0.00    -0.027 A 
ATOM     13  C   UNL     1      -4.994  -2.214   9.741  0.00  0.00    +0.022 A 
ATOM     14  N   UNL     1      -4.166  -2.744   8.801  0.00  0.00    -0.325 N 
ATOM     15  H   UNL     1      -3.665  -3.705   8.988  0.00  0.00    +0.169 HD
ATOM     16  C   UNL     1      -3.939  -2.120   7.632  0.00  0.00    +0.261 A 
ATOM     17  O   UNL     1      -3.197  -2.621   6.805  0.00  0.00    -0.267 OA
ATOM     18  C   UNL     1      -5.378  -2.762  11.102  0.00  0.00    +0.054 C 
ATOM     19  C   UNL     1      -6.645  -1.979  11.507  0.00  0.00    +0.011 C 
ATOM     20  C   UNL     1      -6.475  -0.662  10.720  0.00  0.00    +0.037 C 
ENDBRANCH   8  10
ENDBRANCH   6   8
BRANCH   1  21
ATOM     21  C   UNL     1      -2.544   0.967   0.007  0.00  0.00    +0.079 C 
BRANCH  21  27
ATOM     22  C   UNL     1      -1.254   3.111   0.012  0.00  0.00    +0.005 A 
ATOM     23  C   UNL     1      -0.061   3.812  -0.003  0.00  0.00    +0.022 A 
ATOM     24  C   UNL     1       1.141   3.129  -0.026  0.00  0.00    +0.059 A 
ATOM     25  C   UNL     1       1.151   1.744  -0.035  0.00  0.00    +0.060 A 
ATOM     26  C   UNL     1      -0.043   1.045  -0.019  0.00  0.00    +0.025 A 
ATOM     27  C   UNL     1      -1.244   1.729  -0.002  0.00  0.00    -0.041 A 
ATOM     28 CL   UNL     1       2.659   0.886  -0.063  0.00  0.00    -0.082 Cl
ATOM     29 CL   UNL     1       2.638   4.008  -0.045  0.00  0.00    -0.082 Cl
ENDBRANCH  21  27
ENDBRANCH   1  21
TORSDOF 4
