REMARK  Name = ZINC12250156
REMARK  11 active torsions:
REMARK  status: ('A' for Active; 'I' for Inactive)
REMARK    1  A    between atoms: C_1  and  C_2
REMARK    2  A    between atoms: C_2  and  C_3
REMARK    3  A    between atoms: C_6  and  N_9
REMARK    4  A    between atoms: C_10  and  C_12
REMARK    5  A    between atoms: C_13  and  C_37
REMARK    6  A    between atoms: C_15  and  S_26
REMARK    7  A    between atoms: C_16  and  C_24
REMARK    8  A    between atoms: C_17  and  C_19
REMARK    9  A    between atoms: S_26  and  C_27
REMARK   10  A    between atoms: C_27  and  C_28
REMARK   11  A    between atoms: N_30  and  C_31
REMARK                            x       y       z     vdW  Elec       q    Type
REMARK                         _______ _______ _______ _____ _____    ______ ____
ROOT
ATOM      1  C   UNL     1      -1.123  -2.106   0.214  0.00  0.00    +0.047 C 
ATOM      2  C   UNL     1      -2.283  -2.783   0.221  0.00  0.00    +0.015 C 
ATOM      3  N   UNL     1      -2.302  -4.148   0.315  0.00  0.00    -0.312 N 
ATOM      4  C   UNL     1      -1.192  -4.824   0.771  0.00  0.00    +0.080 C 
ATOM      5  C   UNL     1       0.025  -4.219   0.791  0.00  0.00    +0.072 C 
ATOM      6  C   UNL     1       0.201  -2.807   0.310  0.00  0.00    +0.134 C 
ATOM      7  C   UNL     1      -3.583  -2.028   0.119  0.00  0.00    +0.061 C 
ATOM      8  H   UNL     1      -3.204  -4.707   0.025  0.00  0.00    +0.152 HD
ENDROOT
BRANCH   6   9
ATOM      9  C   UNL     1       0.852  -2.824  -1.049  0.00  0.00    +0.118 A 
ATOM     10  C   UNL     1       2.042  -2.277  -1.359  0.00  0.00    +0.045 A 
ATOM     11  C   UNL     1       2.262  -2.526  -2.733  0.00  0.00    +0.041 A 
ATOM     12  C   UNL     1       1.194  -3.211  -3.181  0.00  0.00    +0.195 A 
ATOM     13  O   UNL     1       0.346  -3.393  -2.155  0.00  0.00    -0.467 OA
ENDBRANCH   6   9
BRANCH   1  15
ATOM     14  N   UNL     1       0.002  -0.003   0.010  0.00  0.00    -0.282 N 
ATOM     15  C   UNL     1      -1.151  -0.694   0.120  0.00  0.00    +0.247 C 
ATOM     16  O   UNL     1      -2.215  -0.103   0.139  0.00  0.00    -0.270 OA
ATOM     17  H   UNL     1       0.958  -0.539  -0.080  0.00  0.00    +0.155 HD
BRANCH  14  21
ATOM     18  C   UNL     1      -0.059   4.162   0.013  0.00  0.00    -0.048 A 
ATOM     19  C   UNL     1      -1.089   3.457  -0.582  0.00  0.00    +0.005 A 
ATOM     20  C   UNL     1      -1.072   2.076  -0.585  0.00  0.00    +0.023 A 
ATOM     21  C   UNL     1      -0.018   1.395   0.011  0.00  0.00    +0.034 A 
ATOM     22  C   UNL     1       1.012   2.106   0.612  0.00  0.00    +0.023 A 
ATOM     23  C   UNL     1       0.992   3.487   0.607  0.00  0.00    +0.005 A 
BRANCH  18  25
ATOM     24  C   UNL     1      -0.803   6.167   1.267  0.00  0.00    +0.009 C 
ATOM     25  C   UNL     1      -0.080   5.669   0.014  0.00  0.00    +0.032 C 
ENDBRANCH  18  25
ENDBRANCH  14  21
ENDBRANCH   1  15
BRANCH   5  26
ATOM     26  C   UNL     1       1.161  -4.942   1.279  0.00  0.00    +0.098 C 
ATOM     27  N   UNL     1       2.062  -5.515   1.666  0.00  0.00    -0.191 NA
ENDBRANCH   5  26
BRANCH   4  28
ATOM     28  S   UNL     1      -1.352  -6.487   1.334  0.00  0.00    -0.100 S 
BRANCH  28  29
ATOM     29  C   UNL     1      -3.127  -6.736   1.079  0.00  0.00    +0.171 C 
BRANCH  29  30
ATOM     30  C   UNL     1      -3.504  -8.131   1.504  0.00  0.00    +0.223 C 
ATOM     31  O   UNL     1      -2.657  -8.883   1.937  0.00  0.00    -0.275 OA
ATOM     32  N   UNL     1      -4.783  -8.543   1.404  0.00  0.00    -0.312 N 
ATOM     33  H   UNL     1      -5.552  -7.861   1.012  0.00  0.00    +0.149 HD
BRANCH  32  34
ATOM     34  C   UNL     1      -5.150  -9.900   1.817  0.00  0.00    +0.073 C 
ATOM     35  C   UNL     1      -4.901 -10.870   0.661  0.00  0.00    +0.022 C 
ATOM     36  C   UNL     1      -5.284 -12.287   1.093  0.00  0.00    +0.002 C 
ATOM     37  C   UNL     1      -6.765 -12.321   1.476  0.00  0.00    +0.000 C 
ATOM     38  C   UNL     1      -7.014 -11.351   2.632  0.00  0.00    +0.002 C 
ATOM     39  C   UNL     1      -6.631  -9.934   2.201  0.00  0.00    +0.022 C 
ENDBRANCH  32  34
ENDBRANCH  29  30
ENDBRANCH  28  29
ENDBRANCH   4  28
TORSDOF 9
