REMARK  Name = ZINC11974565
REMARK  4 active torsions:
REMARK  status: ('A' for Active; 'I' for Inactive)
REMARK    1  A    between atoms: C_1  and  C_2
REMARK    2  A    between atoms: N_5  and  S_10
REMARK    3  A    between atoms: C_7  and  C_9
REMARK    4  A    between atoms: S_10  and  C_13
REMARK                            x       y       z     vdW  Elec       q    Type
REMARK                         _______ _______ _______ _____ _____    ______ ____
ROOT
ATOM      1  S   UNL     1       1.143   3.851   0.011  0.00  0.00    +0.061 S 
ATOM      2  O   UNL     1       2.377   4.279  -0.549  0.00  0.00    -0.153 OA
ATOM      3  O   UNL     1      -0.113   4.241  -0.526  0.00  0.00    -0.153 OA
ENDROOT
BRANCH   1   7
ATOM      4  C   UNL     1       3.591   6.163   3.836  0.00  0.00    -0.012 C 
ATOM      5  C   UNL     1       2.351   5.954   2.965  0.00  0.00    -0.059 C 
ATOM      6  C   UNL     1       2.416   4.572   2.306  0.00  0.00    +0.093 C 
ATOM      7  N   UNL     1       1.151   4.333   1.596  0.00  0.00    -0.180 NA
ATOM      8  C   UNL     1      -0.108   4.538   2.328  0.00  0.00    +0.093 C 
ATOM      9  C   UNL     1      -0.073   5.916   2.987  0.00  0.00    -0.059 C 
ATOM     10  C   UNL     1      -0.077   6.997   1.904  0.00  0.00    -0.012 C 
ATOM     11  N   UNL     1       1.145   6.041   3.811  0.00  0.00    +0.384 N 
ATOM     12  H   UNL     1       1.136   6.947   4.294  0.00  0.00    -0.085 HD
ATOM     13  H   UNL     1       1.163   5.284   4.504  0.00  0.00    -0.085 HD
ENDBRANCH   1   7
BRANCH   1  14
ATOM     14  C   UNL     1       1.171   2.089   0.002  0.00  0.00    +0.109 A 
ATOM     15  C   UNL     1       2.379   1.418  -0.012  0.00  0.00    +0.032 A 
ATOM     16  C   UNL     1       2.405   0.036  -0.020  0.00  0.00    +0.051 A 
ATOM     17  C   UNL     1       1.220  -0.680  -0.013  0.00  0.00    +0.166 A 
ATOM     18  C   UNL     1       0.002  -0.004   0.002  0.00  0.00    +0.168 A 
ATOM     19  C   UNL     1      -0.017   1.381   0.010  0.00  0.00    +0.078 A 
ATOM     20  O   UNL     1      -1.007  -0.923   0.006  0.00  0.00    -0.453 OA
ATOM     21  C   UNL     1      -0.404  -2.159  -0.418  0.00  0.00    +0.466 C 
ATOM     22  O   UNL     1       0.973  -2.023  -0.018  0.00  0.00    -0.453 OA
ENDBRANCH   1  14
TORSDOF 2
