REMARK  Name = ZINC39665540
REMARK  12 active torsions:
REMARK  status: ('A' for Active; 'I' for Inactive)
REMARK    1  A    between atoms: C_1  and  C_2
REMARK    2  A    between atoms: C_2  and  C_4
REMARK    3  A    between atoms: C_2  and  O_31
REMARK    4  A    between atoms: C_4  and  N_5
REMARK    5  A    between atoms: C_6  and  C_8
REMARK    6  A    between atoms: C_19  and  C_21
REMARK    7  A    between atoms: C_26  and  O_27
REMARK    8  A    between atoms: O_27  and  C_28
REMARK    9  A    between atoms: C_28  and  C_30
REMARK   10  A    between atoms: O_31  and  C_32
REMARK   11  A    between atoms: C_35  and  O_38
REMARK   12  A    between atoms: O_38  and  C_39
REMARK                            x       y       z     vdW  Elec       q    Type
REMARK                         _______ _______ _______ _____ _____    ______ ____
ROOT
ATOM      1  C   UNL     1       1.691  -4.246  -2.679  0.00  0.00    +0.100 C 
ATOM      2  C   UNL     1       2.266  -4.940  -1.423  0.00  0.00    +0.121 C 
ATOM      3  N   UNL     1       3.038  -6.089  -1.952  0.00  0.00    -0.296 N 
ATOM      4  C   UNL     1       3.696  -5.562  -3.171  0.00  0.00    +0.115 C 
ATOM      5  C   UNL     1       2.633  -4.656  -3.823  0.00  0.00    -0.004 C 
ATOM      6  C   UNL     1       3.294  -3.423  -4.431  0.00  0.00    -0.010 C 
ATOM      7  C   UNL     1       4.181  -3.850  -5.604  0.00  0.00    -0.082 C 
ATOM      8  N   UNL     1       3.365  -4.540  -6.611  0.00  0.00    +0.379 N 
ATOM      9  C   UNL     1       2.809  -5.775  -6.044  0.00  0.00    -0.082 C 
ATOM     10  C   UNL     1       1.864  -5.429  -4.890  0.00  0.00    -0.010 C 
ATOM     11  C   UNL     1       3.122  -7.333  -1.439  0.00  0.00    +0.250 C 
ATOM     12  O   UNL     1       3.849  -8.157  -1.960  0.00  0.00    -0.270 OA
ATOM     13  H   UNL     1       2.611  -3.936  -6.902  0.00  0.00    -0.086 HD
ATOM     14  H   UNL     1       3.939  -4.767  -7.409  0.00  0.00    -0.086 HD
ENDROOT
BRANCH  11  15
ATOM     15  C   UNL     1       2.331  -7.695  -0.247  0.00  0.00    +0.079 A 
ATOM     16  C   UNL     1       2.126  -6.761   0.770  0.00  0.00    +0.017 A 
ATOM     17  C   UNL     1       1.386  -7.105   1.881  0.00  0.00    +0.001 A 
ATOM     18  C   UNL     1       0.843  -8.375   1.993  0.00  0.00    +0.004 A 
ATOM     19  C   UNL     1       1.038  -9.308   0.994  0.00  0.00    +0.047 A 
ATOM     20  C   UNL     1       1.776  -8.977  -0.133  0.00  0.00    +0.144 A 
BRANCH  20  21
ATOM     21  O   UNL     1       1.964  -9.892  -1.117  0.00  0.00    -0.425 OA
BRANCH  21  22
ATOM     22  C   UNL     1       1.237  -9.768  -2.240  0.00  0.00    +0.309 C 
ATOM     23  O   UNL     1       0.511  -8.813  -2.387  0.00  0.00    -0.251 OA
ATOM     24  C   UNL     1       1.327 -10.819  -3.316  0.00  0.00    +0.136 C 
ENDBRANCH  21  22
ENDBRANCH  20  21
ENDBRANCH  11  15
BRANCH   1  26
ATOM     25  N   UNL     1       0.763  -1.993  -3.106  0.00  0.00    -0.312 N 
ATOM     26  C   UNL     1       1.701  -2.749  -2.502  0.00  0.00    +0.218 C 
ATOM     27  O   UNL     1       2.553  -2.225  -1.816  0.00  0.00    -0.275 OA
ATOM     28  H   UNL     1       0.081  -2.412  -3.654  0.00  0.00    +0.149 HD
BRANCH  25  29
ATOM     29  C   UNL     1       0.772  -0.538  -2.934  0.00  0.00    +0.148 C 
BRANCH  29  31
ATOM     30  C   UNL     1      -0.306   1.601  -3.641  0.00  0.00    +0.053 C 
ATOM     31  C   UNL     1      -0.389   0.076  -3.718  0.00  0.00    +0.187 C 
BRANCH  31  32
ATOM     32  O   UNL     1      -1.627  -0.363  -3.156  0.00  0.00    -0.488 OA
BRANCH  32  33
ATOM     33  C   UNL     1      -2.714  -0.354  -3.974  0.00  0.00    +0.121 A 
ATOM     34  C   UNL     1      -3.966  -0.672  -3.469  0.00  0.00    +0.049 A 
ATOM     35  C   UNL     1      -5.069  -0.663  -4.299  0.00  0.00    +0.049 A 
ATOM     36  C   UNL     1      -4.925  -0.336  -5.640  0.00  0.00    +0.120 A 
ATOM     37  C   UNL     1      -3.674  -0.017  -6.145  0.00  0.00    +0.049 A 
ATOM     38  C   UNL     1      -2.571  -0.022  -5.313  0.00  0.00    +0.049 A 
BRANCH  36  39
ATOM     39  O   UNL     1      -6.011  -0.328  -6.458  0.00  0.00    -0.495 OA
ATOM     40  C   UNL     1      -5.790   0.019  -7.826  0.00  0.00    +0.277 C 
ENDBRANCH  36  39
ENDBRANCH  32  33
ENDBRANCH  31  32
ENDBRANCH  29  31
ENDBRANCH  25  29
ENDBRANCH   1  26
TORSDOF 9
