REMARK  Name = ZINC06074940
REMARK  11 active torsions:
REMARK  status: ('A' for Active; 'I' for Inactive)
REMARK    1  A    between atoms: C_1  and  C_2
REMARK    2  A    between atoms: C_2  and  C_3
REMARK    3  A    between atoms: C_2  and  C_4
REMARK    4  A    between atoms: C_2  and  N_5
REMARK    5  A    between atoms: C_6  and  C_8
REMARK    6  A    between atoms: C_8  and  C_10
REMARK    7  A    between atoms: C_8  and  N_17
REMARK    8  A    between atoms: N_17  and  C_18
REMARK    9  A    between atoms: C_25  and  C_27
REMARK   10  A    between atoms: C_28  and  N_35
REMARK   11  A    between atoms: C_29  and  C_32
REMARK                            x       y       z     vdW  Elec       q    Type
REMARK                         _______ _______ _______ _____ _____    ______ ____
ROOT
ATOM      1  N   UNL     1       3.279   1.716   0.795  0.00  0.00    -0.251 N 
ATOM      2  C   UNL     1       4.292   1.045   1.378  0.00  0.00    +0.262 C 
ATOM      3  O   UNL     1       4.723   0.029   0.866  0.00  0.00    -0.269 OA
ENDROOT
BRANCH   1   4
ATOM      4  C   UNL     1       2.703   2.814   1.442  0.00  0.00    +0.038 A 
ATOM      5  C   UNL     1       3.081   4.104   1.093  0.00  0.00    +0.025 A 
ATOM      6  C   UNL     1       2.508   5.187   1.730  0.00  0.00    +0.022 A 
ATOM      7  C   UNL     1       1.565   4.987   2.723  0.00  0.00    +0.041 A 
ATOM      8  C   UNL     1       1.190   3.703   3.076  0.00  0.00    +0.022 A 
ATOM      9  C   UNL     1       1.756   2.617   2.439  0.00  0.00    +0.025 A 
ATOM     10 CL   UNL     1       0.850   6.351   3.526  0.00  0.00    -0.084 Cl
ENDBRANCH   1   4
BRANCH   2  11
ATOM     11  C   UNL     1       4.873   1.538   2.628  0.00  0.00    +0.116 A 
ATOM     12  C   UNL     1       5.860   0.965   3.432  0.00  0.00    +0.076 A 
ATOM     13  C   UNL     1       6.152   1.741   4.554  0.00  0.00    +0.155 A 
ATOM     14  N   UNL     1       5.509   2.873   4.738  0.00  0.00    -0.203 NA
ATOM     15  S   UNL     1       4.516   3.035   3.525  0.00  0.00    +0.019 S 
BRANCH  13  16
ATOM     16  C   UNL     1       7.171   1.297   5.522  0.00  0.00    +0.262 C 
ATOM     17  O   UNL     1       7.761   0.248   5.346  0.00  0.00    -0.269 OA
ATOM     18  N   UNL     1       7.448   2.052   6.604  0.00  0.00    -0.324 N 
ATOM     19  H   UNL     1       6.977   2.888   6.745  0.00  0.00    +0.145 HD
ATOM     20  H   UNL     1       8.118   1.760   7.241  0.00  0.00    +0.145 HD
ENDBRANCH  13  16
BRANCH  12  21
ATOM     21  N   UNL     1       6.481  -0.243   3.147  0.00  0.00    -0.355 N 
ATOM     22  H   UNL     1       6.236  -0.739   2.350  0.00  0.00    +0.142 HD
ATOM     23  H   UNL     1       7.162  -0.592   3.745  0.00  0.00    +0.142 HD
ENDBRANCH  12  21
ENDBRANCH   2  11
BRANCH   1  24
ATOM     24  C   UNL     1       2.781   1.295  -0.517  0.00  0.00    +0.197 C 
BRANCH  24  25
ATOM     25  C   UNL     1       1.289   1.093  -0.447  0.00  0.00    -0.018 A 
ATOM     26  C   UNL     1       0.764  -0.186  -0.454  0.00  0.00    +0.009 A 
ATOM     27  C   UNL     1      -0.604  -0.372  -0.396  0.00  0.00    +0.038 A 
ATOM     28  C   UNL     1      -1.448   0.723  -0.320  0.00  0.00    +0.123 A 
ATOM     29  C   UNL     1      -0.921   2.003  -0.312  0.00  0.00    +0.038 A 
ATOM     30  C   UNL     1       0.447   2.187  -0.376  0.00  0.00    +0.009 A 
ATOM     31  F   UNL     1      -2.786   0.542  -0.258  0.00  0.00    -0.205 F 
ENDBRANCH  24  25
BRANCH  24  33
ATOM     32  N   UNL     1       2.731   2.185  -2.824  0.00  0.00    -0.309 N 
ATOM     33  C   UNL     1       3.097   2.357  -1.539  0.00  0.00    +0.239 C 
ATOM     34  O   UNL     1       3.680   3.366  -1.204  0.00  0.00    -0.273 OA
ATOM     35  H   UNL     1       2.264   1.378  -3.092  0.00  0.00    +0.149 HD
BRANCH  32  37
ATOM     36  C   UNL     1       4.552   3.422  -3.889  0.00  0.00    +0.031 C 
ATOM     37  C   UNL     1       3.038   3.217  -3.818  0.00  0.00    +0.026 C 
ATOM     38  C   UNL     1       2.518   2.777  -5.188  0.00  0.00    +0.031 C 
ATOM     39  C   UNL     1       2.364   4.530  -3.414  0.00  0.00    +0.031 C 
ENDBRANCH  32  37
ENDBRANCH  24  33
ENDBRANCH   1  24
TORSDOF 8
