REMARK  Name = ZINC20899880
REMARK  4 active torsions:
REMARK  status: ('A' for Active; 'I' for Inactive)
REMARK    1  A    between atoms: C_3  and  C_10
REMARK    2  A    between atoms: C_5  and  N_7
REMARK    3  A    between atoms: C_10  and  C_12
REMARK    4  A    between atoms: C_13  and  N_30
REMARK                            x       y       z     vdW  Elec       q    Type
REMARK                         _______ _______ _______ _____ _____    ______ ____
ROOT
ATOM      1  C   UNL     1       1.140   6.042   0.277  0.00  0.00    +0.083 A 
ATOM      2  C   UNL     1       1.316   7.414   0.241  0.00  0.00    +0.052 A 
ATOM      3  C   UNL     1       2.672   7.931   0.176  0.00  0.00    +0.031 A 
ATOM      4  C   UNL     1       3.095   9.291   0.134  0.00  0.00    -0.030 A 
ATOM      5  C   UNL     1       4.419   9.573   0.073  0.00  0.00    -0.005 A 
ATOM      6  C   UNL     1       5.356   8.528   0.045  0.00  0.00    +0.103 A 
ATOM      7  N   UNL     1       4.964   7.266   0.083  0.00  0.00    -0.337 N 
ATOM      8  C   UNL     1       3.688   6.952   0.147  0.00  0.00    +0.089 A 
ATOM      9  S   UNL     1       2.806   5.413   0.213  0.00  0.00    -0.065 S 
ATOM     10  N   UNL     1       6.709   8.823  -0.022  0.00  0.00    -0.316 N 
ATOM     11  C   UNL     1       7.149   9.579   1.178  0.00  0.00    +0.106 C 
ATOM     12  C   UNL     1       8.683   9.356   1.194  0.00  0.00    +0.020 C 
ATOM     13  C   UNL     1       8.824   7.891   0.721  0.00  0.00    +0.020 C 
ATOM     14  C   UNL     1       7.521   7.587  -0.041  0.00  0.00    +0.106 C 
ATOM     15  C   UNL     1       4.946  10.985   0.035  0.00  0.00    +0.039 C 
ATOM     16  C   UNL     1       3.841  11.960  -0.368  0.00  0.00    +0.005 C 
ATOM     17  C   UNL     1       2.622  11.706   0.526  0.00  0.00    +0.005 C 
ATOM     18  C   UNL     1       2.026  10.350   0.153  0.00  0.00    +0.036 C 
ATOM     19  H   UNL     1       5.710   6.458   0.061  0.00  0.00    +0.168 HD
ENDROOT
BRANCH   2  20
ATOM     20  N   UNL     1       0.228   8.271   0.268  0.00  0.00    -0.356 N 
ATOM     21  H   UNL     1       0.385   9.360   0.239  0.00  0.00    +0.142 HD
ATOM     22  H   UNL     1      -0.792   7.864   0.320  0.00  0.00    +0.142 HD
ENDBRANCH   2  20
BRANCH   1  23
ATOM     23  C   UNL     1      -0.069   5.316   0.343  0.00  0.00    +0.202 C 
ATOM     24  O   UNL     1      -1.136   5.898   0.257  0.00  0.00    -0.286 OA
BRANCH  23  27
ATOM     25  C   UNL     1      -1.091   1.701   0.266  0.00  0.00    +0.003 A 
ATOM     26  C   UNL     1      -1.123   3.070   0.101  0.00  0.00    +0.012 A 
ATOM     27  C   UNL     1      -0.041   3.846   0.517  0.00  0.00    +0.025 A 
ATOM     28  C   UNL     1       1.069   3.231   1.099  0.00  0.00    +0.044 A 
ATOM     29  C   UNL     1       1.086   1.861   1.264  0.00  0.00    +0.127 A 
ATOM     30  C   UNL     1       0.012   1.097   0.844  0.00  0.00    +0.033 A 
BRANCH  29  31
ATOM     31  N   UNL     1       2.259   1.208   1.887  0.00  0.00    +0.056 N 
ATOM     32  O   UNL     1       2.278  -0.002   2.029  0.00  0.00    -0.126 OA
ATOM     33  O   UNL     1       3.205   1.879   2.257  0.00  0.00    -0.126 OA
ENDBRANCH  29  31
ENDBRANCH  23  27
ENDBRANCH   1  23
TORSDOF 4
