REMARK  Name = ZINC19760131
REMARK  9 active torsions:
REMARK  status: ('A' for Active; 'I' for Inactive)
REMARK    1  A    between atoms: C_4  and  C_7
REMARK    2  A    between atoms: C_7  and  C_8
REMARK    3  A    between atoms: C_8  and  C_9
REMARK    4  A    between atoms: C_9  and  N_10
REMARK    5  A    between atoms: C_16  and  C_18
REMARK    6  A    between atoms: C_18  and  C_19
REMARK    7  A    between atoms: N_21  and  C_22
REMARK    8  A    between atoms: C_22  and  C_23
REMARK    9  A    between atoms: C_26  and  C_29
REMARK                            x       y       z     vdW  Elec       q    Type
REMARK                         _______ _______ _______ _____ _____    ______ ____
ROOT
ATOM      1  N   UNL     1      -4.852  11.512   2.607  0.00  0.00    +0.389 N 
ATOM      2  C   UNL     1      -5.605  12.774   2.689  0.00  0.00    -0.059 C 
ATOM      3  C   UNL     1      -5.864  13.097   4.162  0.00  0.00    +0.085 C 
ATOM      4  N   UNL     1      -4.619  13.011   4.919  0.00  0.00    -0.318 N 
ATOM      5  C   UNL     1      -3.537  12.367   4.468  0.00  0.00    +0.200 C 
ATOM      6  O   UNL     1      -2.554  12.317   5.176  0.00  0.00    -0.278 OA
ATOM      7  C   UNL     1      -3.489  11.702   3.122  0.00  0.00    +0.028 C 
ATOM      8  H   UNL     1      -4.542  13.489   5.907  0.00  0.00    +0.149 HD
ATOM      9  H   UNL     1      -5.358  10.761   3.231  0.00  0.00    -0.081 HD
ENDROOT
BRANCH   1  10
ATOM     10  C   UNL     1      -4.828  11.002   1.230  0.00  0.00    -0.077 C 
BRANCH  10  11
ATOM     11  C   UNL     1      -6.211  10.459   0.863  0.00  0.00    -0.014 C 
BRANCH  11  12
ATOM     12  C   UNL     1      -6.186   9.927  -0.572  0.00  0.00    +0.033 C 
BRANCH  12  16
ATOM     13  C   UNL     1     -10.046   8.411  -1.596  0.00  0.00    +0.000 A 
ATOM     14  C   UNL     1      -9.738   9.737  -1.836  0.00  0.00    +0.000 A 
ATOM     15  C   UNL     1      -8.489  10.228  -1.504  0.00  0.00    +0.003 A 
ATOM     16  C   UNL     1      -7.548   9.393  -0.933  0.00  0.00    -0.047 A 
ATOM     17  C   UNL     1      -7.854   8.065  -0.698  0.00  0.00    +0.003 A 
ATOM     18  C   UNL     1      -9.104   7.576  -1.024  0.00  0.00    +0.000 A 
ENDBRANCH  12  16
ENDBRANCH  11  12
ENDBRANCH  10  11
ENDBRANCH   1  10
BRANCH   7  19
ATOM     19  C   UNL     1      -2.802  10.341   3.252  0.00  0.00    +0.089 C 
BRANCH  19  20
ATOM     20  C   UNL     1      -3.610   9.456   4.166  0.00  0.00    +0.212 C 
ATOM     21  O   UNL     1      -4.683   9.834   4.584  0.00  0.00    -0.276 OA
ATOM     22  N   UNL     1      -3.139   8.243   4.518  0.00  0.00    -0.308 N 
ATOM     23  H   UNL     1      -2.165   7.899   4.139  0.00  0.00    +0.149 HD
BRANCH  22  24
ATOM     24  C   UNL     1      -3.924   7.382   5.407  0.00  0.00    +0.182 C 
BRANCH  24  25
ATOM     25  C   UNL     1      -3.180   6.093   5.643  0.00  0.00    +0.168 A 
ATOM     26  N   UNL     1      -2.351   5.821   6.687  0.00  0.00    -0.210 NA
ATOM     27  H   UNL     1      -2.245   3.098   5.010  0.00  0.00    +0.191 HD
ATOM     28  C   UNL     1      -1.899   4.546   6.482  0.00  0.00    +0.156 A 
ATOM     29  N   UNL     1      -2.459   4.114   5.375  0.00  0.00    -0.258 N 
ATOM     30  N   UNL     1      -3.213   5.031   4.883  0.00  0.00    -0.156 NA
BRANCH  28  31
ATOM     31  C   UNL     1      -0.966   3.792   7.349  0.00  0.00    +0.019 A 
ATOM     32  C   UNL     1      -0.592   2.491   7.011  0.00  0.00    +0.011 A 
ATOM     33  C   UNL     1       0.279   1.794   7.823  0.00  0.00    +0.001 A 
ATOM     34  C   UNL     1       0.780   2.383   8.970  0.00  0.00    +0.000 A 
ATOM     35  C   UNL     1       0.409   3.671   9.313  0.00  0.00    +0.001 A 
ATOM     36  C   UNL     1      -0.457   4.380   8.507  0.00  0.00    +0.011 A 
ENDBRANCH  28  31
ENDBRANCH  24  25
ENDBRANCH  22  24
ENDBRANCH  19  20
ENDBRANCH   7  19
TORSDOF 9
