REMARK  Name = ZINC67400871
REMARK  7 active torsions:
REMARK  status: ('A' for Active; 'I' for Inactive)
REMARK    1  A    between atoms: C_1  and  C_2
REMARK    2  A    between atoms: C_2  and  N_3
REMARK    3  A    between atoms: C_7  and  C_9
REMARK    4  A    between atoms: C_9  and  N_10
REMARK    5  A    between atoms: C_13  and  C_16
REMARK    6  A    between atoms: C_16  and  C_18
REMARK    7  A    between atoms: C_16  and  O_25
REMARK                            x       y       z     vdW  Elec       q    Type
REMARK                         _______ _______ _______ _____ _____    ______ ____
ROOT
ATOM      1  N   UNL     1       2.322  -5.510  -4.004  0.00  0.00    +0.385 N 
ATOM      2  C   UNL     1       0.948  -6.016  -4.105  0.00  0.00    -0.078 C 
ATOM      3  C   UNL     1       0.956  -7.545  -4.032  0.00  0.00    -0.012 C 
ATOM      4  C   UNL     1       1.793  -8.101  -5.188  0.00  0.00    +0.019 C 
ATOM      5  C   UNL     1       3.204  -7.508  -5.115  0.00  0.00    -0.012 C 
ATOM      6  C   UNL     1       3.112  -5.981  -5.148  0.00  0.00    -0.078 C 
ATOM      7  H   UNL     1       2.739  -5.845  -3.148  0.00  0.00    -0.081 HD
ENDROOT
BRANCH   1   8
ATOM      8  C   UNL     1       2.302  -4.041  -3.995  0.00  0.00    +0.019 C 
BRANCH   8  13
ATOM      9  N   UNL     1       0.688  -0.476  -1.203  0.00  0.00    -0.299 N 
ATOM     10  C   UNL     1       0.827  -1.799  -1.425  0.00  0.00    +0.306 C 
ATOM     11  O   UNL     1       0.383  -2.599  -0.625  0.00  0.00    -0.252 OA
ATOM     12  N   UNL     1       1.458  -2.233  -2.534  0.00  0.00    -0.242 N 
ATOM     13  C   UNL     1       1.597  -3.555  -2.756  0.00  0.00    +0.204 C 
ATOM     14  O   UNL     1       1.154  -4.354  -1.958  0.00  0.00    -0.277 OA
ATOM     15  H   UNL     1       1.042   0.162  -1.842  0.00  0.00    +0.150 HD
ATOM     16  H   UNL     1       1.812  -1.595  -3.172  0.00  0.00    +0.159 HD
BRANCH   9  18
ATOM     17  C   UNL     1      -0.019   1.526   0.010  0.00  0.00    +0.024 C 
ATOM     18  C   UNL     1       0.002  -0.004   0.002  0.00  0.00    +0.102 C 
ENDBRANCH   9  18
ENDBRANCH   8  13
ENDBRANCH   1   8
BRANCH   4  19
ATOM     19  C   UNL     1       1.872  -9.624  -5.076  0.00  0.00    +0.147 C 
BRANCH  19  20
ATOM     20  C   UNL     1       2.696 -10.170  -6.214  0.00  0.00    -0.019 A 
ATOM     21  C   UNL     1       2.130 -10.320  -7.466  0.00  0.00    +0.007 A 
ATOM     22  C   UNL     1       2.885 -10.820  -8.510  0.00  0.00    +0.020 A 
ATOM     23  C   UNL     1       4.207 -11.171  -8.302  0.00  0.00    +0.041 A 
ATOM     24  C   UNL     1       4.773 -11.020  -7.048  0.00  0.00    +0.020 A 
ATOM     25  C   UNL     1       4.018 -10.514  -6.006  0.00  0.00    +0.007 A 
ATOM     26 CL   UNL     1       5.156 -11.800  -9.613  0.00  0.00    -0.084 Cl
ENDBRANCH  19  20
BRANCH  19  27
ATOM     27  O   UNL     1       0.555 -10.175  -5.135  0.00  0.00    -0.387 OA
ATOM     28  H   UNL     1       0.080  -9.973  -5.953  0.00  0.00    +0.210 HD
ENDBRANCH  19  27
ENDBRANCH   4  19
TORSDOF 6
