REMARK  Name = ZINC10059388
REMARK  9 active torsions:
REMARK  status: ('A' for Active; 'I' for Inactive)
REMARK    1  A    between atoms: C_1  and  C_2
REMARK    2  A    between atoms: C_2  and  C_3
REMARK    3  A    between atoms: C_2  and  C_4
REMARK    4  A    between atoms: C_2  and  C_5
REMARK    5  A    between atoms: C_14  and  O_34
REMARK    6  A    between atoms: C_16  and  C_19
REMARK    7  A    between atoms: C_23  and  O_25
REMARK    8  A    between atoms: O_25  and  C_26
REMARK    9  A    between atoms: C_26  and  C_28
REMARK                            x       y       z     vdW  Elec       q    Type
REMARK                         _______ _______ _______ _____ _____    ______ ____
ROOT
ATOM      1  C   UNL     1       3.652   6.248   7.154  0.00  0.00    -0.000 C 
ATOM      2  C   UNL     1       2.327   5.574   6.788  0.00  0.00    +0.009 C 
ATOM      3  C   UNL     1       1.828   6.104   5.443  0.00  0.00    +0.037 C 
ATOM      4  C   UNL     1       2.945   5.964   4.414  0.00  0.00    -0.023 A 
ATOM      5  C   UNL     1       4.230   5.801   4.805  0.00  0.00    -0.004 A 
ATOM      6  S   UNL     1       5.154   5.688   3.295  0.00  0.00    -0.078 S 
ATOM      7  C   UNL     1       3.867   5.860   2.182  0.00  0.00    +0.080 A 
ATOM      8  C   UNL     1       2.723   5.992   2.979  0.00  0.00    +0.068 A 
ATOM      9  C   UNL     1       1.423   6.162   2.281  0.00  0.00    +0.220 C 
ATOM     10  N   UNL     1       1.396   5.968   0.991  0.00  0.00    -0.223 NA
ATOM     11  C   UNL     1       2.528   5.504   0.197  0.00  0.00    +0.224 C 
ATOM     12  N   UNL     1       3.814   5.886   0.809  0.00  0.00    -0.313 N 
ATOM     13  C   UNL     1       4.747   5.733   6.208  0.00  0.00    +0.046 C 
ATOM     14  H   UNL     1       4.580   6.142   0.272  0.00  0.00    +0.149 HD
ENDROOT
BRANCH  11  15
ATOM     15  C   UNL     1       2.465   4.003   0.080  0.00  0.00    -0.002 A 
ATOM     16  C   UNL     1       3.631   3.271  -0.045  0.00  0.00    +0.007 A 
ATOM     17  C   UNL     1       3.577   1.893  -0.152  0.00  0.00    +0.004 A 
ATOM     18  C   UNL     1       2.357   1.245  -0.134  0.00  0.00    +0.046 A 
ATOM     19  C   UNL     1       1.185   1.978  -0.008  0.00  0.00    +0.132 A 
ATOM     20  C   UNL     1       1.242   3.361   0.093  0.00  0.00    +0.053 A 
BRANCH  19  21
ATOM     21  O   UNL     1      -0.016   1.343   0.009  0.00  0.00    -0.422 OA
BRANCH  21  22
ATOM     22  C   UNL     1      -0.366   0.728   1.156  0.00  0.00    +0.344 C 
ATOM     23  O   UNL     1       0.418   0.680   2.083  0.00  0.00    -0.245 OA
BRANCH  22  24
ATOM     24  C   UNL     1      -1.702   0.110   1.285  0.00  0.00    +0.059 A 
ATOM     25  C   UNL     1      -2.607   0.168   0.223  0.00  0.00    +0.015 A 
ATOM     26  C   UNL     1      -3.850  -0.415   0.349  0.00  0.00    +0.001 A 
ATOM     27  C   UNL     1      -4.206  -1.047   1.527  0.00  0.00    +0.000 A 
ATOM     28  C   UNL     1      -3.316  -1.103   2.586  0.00  0.00    +0.001 A 
ATOM     29  C   UNL     1      -2.067  -0.528   2.472  0.00  0.00    +0.015 A 
ENDBRANCH  22  24
ENDBRANCH  21  22
ENDBRANCH  19  21
ENDBRANCH  11  15
BRANCH   1  31
ATOM     30  C   UNL     1       5.354   6.566   8.956  0.00  0.00    +0.011 C 
ATOM     31  C   UNL     1       4.020   5.906   8.599  0.00  0.00    -0.035 C 
ATOM     32  C   UNL     1       2.928   6.421   9.539  0.00  0.00    +0.011 C 
ATOM     33  C   UNL     1       4.147   4.389   8.747  0.00  0.00    +0.011 C 
ENDBRANCH   1  31
BRANCH   9  34
ATOM     34  O   UNL     1       0.304   6.506   2.959  0.00  0.00    -0.492 OA
ATOM     35  H   UNL     1      -0.483   6.588   2.404  0.00  0.00    +0.294 HD
ENDBRANCH   9  34
TORSDOF 6
