REMARK  Name = ZINC52637624
REMARK  8 active torsions:
REMARK  status: ('A' for Active; 'I' for Inactive)
REMARK    1  A    between atoms: C_1  and  O_2
REMARK    2  A    between atoms: O_2  and  C_3
REMARK    3  A    between atoms: C_3  and  C_4
REMARK    4  A    between atoms: C_4  and  N_5
REMARK    5  A    between atoms: C_7  and  C_33
REMARK    6  A    between atoms: C_10  and  N_13
REMARK    7  A    between atoms: C_19  and  N_22
REMARK    8  A    between atoms: C_36  and  O_39
REMARK                            x       y       z     vdW  Elec       q    Type
REMARK                         _______ _______ _______ _____ _____    ______ ____
ROOT
ATOM      1  N   UNL     1      -3.203  -3.962  -3.522  0.00  0.00    -0.265 N 
ATOM      2  C   UNL     1      -2.527  -5.022  -4.007  0.00  0.00    +0.307 C 
ATOM      3  O   UNL     1      -1.556  -5.448  -3.412  0.00  0.00    -0.252 OA
ATOM      4  N   UNL     1      -2.927  -5.610  -5.152  0.00  0.00    -0.285 N 
ATOM      5  C   UNL     1      -4.025  -5.039  -5.943  0.00  0.00    +0.111 C 
ATOM      6  C   UNL     1      -5.077  -6.126  -6.185  0.00  0.00    +0.044 C 
ATOM      7  C   UNL     1      -4.407  -7.343  -6.827  0.00  0.00    +0.095 C 
ATOM      8  C   UNL     1      -3.344  -7.902  -5.879  0.00  0.00    +0.044 C 
ATOM      9  C   UNL     1      -2.269  -6.831  -5.636  0.00  0.00    +0.111 C 
ATOM     10  H   UNL     1      -4.018  -3.667  -3.957  0.00  0.00    +0.157 HD
ENDROOT
BRANCH   7  11
ATOM     11  N   UNL     1      -5.415  -8.373  -7.090  0.00  0.00    -0.288 N 
ATOM     12  C   UNL     1      -5.732  -8.906  -8.336  0.00  0.00    +0.089 A 
ATOM     13  C   UNL     1      -5.263  -8.679  -9.622  0.00  0.00    +0.031 A 
ATOM     14  C   UNL     1      -5.820  -9.409 -10.662  0.00  0.00    +0.022 A 
ATOM     15  C   UNL     1      -6.815 -10.329 -10.386  0.00  0.00    +0.113 A 
ATOM     16  N   UNL     1      -7.242 -10.524  -9.154  0.00  0.00    -0.236 NA
ATOM     17  C   UNL     1      -6.740  -9.852  -8.131  0.00  0.00    +0.159 A 
ATOM     18  N   UNL     1      -7.003  -9.863  -6.768  0.00  0.00    -0.291 N 
ATOM     19  H   UNL     1      -7.659 -10.422  -6.322  0.00  0.00    +0.172 HD
ATOM     20  C   UNL     1      -6.192  -8.972  -6.168  0.00  0.00    +0.329 A 
ATOM     21  O   UNL     1      -6.167  -8.740  -4.973  0.00  0.00    -0.246 OA
ENDBRANCH   7  11
BRANCH   1  26
ATOM     22  N   UNL     1      -0.783  -2.437  -1.185  0.00  0.00    -0.293 N 
ATOM     23  C   UNL     1      -1.494  -2.686   0.069  0.00  0.00    +0.120 C 
ATOM     24  C   UNL     1      -2.986  -2.408  -0.105  0.00  0.00    +0.061 C 
ATOM     25  C   UNL     1      -3.509  -3.139  -1.313  0.00  0.00    +0.011 C 
ATOM     26  C   UNL     1      -2.729  -3.288  -2.389  0.00  0.00    +0.094 C 
ATOM     27  C   UNL     1      -1.363  -2.727  -2.367  0.00  0.00    +0.261 C 
ATOM     28  O   UNL     1      -0.764  -2.532  -3.407  0.00  0.00    -0.269 OA
BRANCH  24  29
ATOM     29  C   UNL     1      -3.201  -0.928  -0.285  0.00  0.00    -0.039 A 
ATOM     30  C   UNL     1      -2.616  -0.270  -1.352  0.00  0.00    +0.008 A 
ATOM     31  C   UNL     1      -2.812   1.087  -1.519  0.00  0.00    +0.045 A 
ATOM     32  C   UNL     1      -3.597   1.790  -0.617  0.00  0.00    +0.117 A 
ATOM     33  C   UNL     1      -4.183   1.128   0.452  0.00  0.00    +0.045 A 
ATOM     34  C   UNL     1      -3.989  -0.231   0.612  0.00  0.00    +0.008 A 
BRANCH  32  35
ATOM     35  O   UNL     1      -3.790   3.125  -0.780  0.00  0.00    -0.507 OA
ATOM     36  H   UNL     1      -4.560   3.348  -1.320  0.00  0.00    +0.292 HD
ENDBRANCH  32  35
ENDBRANCH  24  29
BRANCH  22  37
ATOM     37  C   UNL     1       0.565  -1.863  -1.157  0.00  0.00    +0.136 C 
BRANCH  37  38
ATOM     38  C   UNL     1       0.470  -0.336  -1.196  0.00  0.00    +0.178 C 
BRANCH  38  40
ATOM     39  C   UNL     1      -0.305   1.553   0.059  0.00  0.00    +0.194 C 
ATOM     40  O   UNL     1      -0.166   0.132  -0.005  0.00  0.00    -0.381 OA
ENDBRANCH  38  40
ENDBRANCH  37  38
ENDBRANCH  22  37
ENDBRANCH   1  26
TORSDOF 7
