REMARK  Name = ZINC06441978
REMARK  11 active torsions:
REMARK  status: ('A' for Active; 'I' for Inactive)
REMARK    1  A    between atoms: C_1  and  C_2
REMARK    2  A    between atoms: C_7  and  C_15
REMARK    3  A    between atoms: C_13  and  C_14
REMARK    4  A    between atoms: C_15  and  C_17
REMARK    5  A    between atoms: C_15  and  N_69
REMARK    6  A    between atoms: N_21  and  C_22
REMARK    7  A    between atoms: C_22  and  C_23
REMARK    8  A    between atoms: C_23  and  O_24
REMARK    9  A    between atoms: O_24  and  C_25
REMARK   10  A    between atoms: N_28  and  C_31
REMARK   11  A    between atoms: C_36  and  C_37
REMARK                            x       y       z     vdW  Elec       q    Type
REMARK                         _______ _______ _______ _____ _____    ______ ____
ROOT
ATOM      1  C   UNL     1       4.655   0.516   0.525  0.00  0.00    +0.039 C 
ENDROOT
BRANCH   1   8
ATOM      2  C   UNL     1       9.428  -0.414   6.848  0.00  0.00    +0.044 C 
ATOM      3  C   UNL     1       8.607  -0.019   5.648  0.00  0.00    -0.046 A 
ATOM      4  C   UNL     1       8.701   1.272   5.145  0.00  0.00    +0.004 A 
ATOM      5  C   UNL     1       7.966   1.651   4.058  0.00  0.00    +0.010 A 
ATOM      6  C   UNL     1       7.108   0.730   3.446  0.00  0.00    -0.001 A 
ATOM      7  C   UNL     1       6.310   1.100   2.276  0.00  0.00    +0.017 A 
ATOM      8  C   UNL     1       5.494   0.167   1.728  0.00  0.00    +0.011 A 
ATOM      9  C   UNL     1       5.431  -1.133   2.275  0.00  0.00    +0.251 A 
ATOM     10  O   UNL     1       4.693  -1.958   1.764  0.00  0.00    -0.268 OA
ATOM     11  N   UNL     1       6.163  -1.483   3.346  0.00  0.00    -0.322 N 
ATOM     12  H   UNL     1       6.096  -2.385   3.697  0.00  0.00    +0.169 HD
ATOM     13  C   UNL     1       7.009  -0.579   3.954  0.00  0.00    +0.052 A 
ATOM     14  C   UNL     1       7.768  -0.942   5.062  0.00  0.00    -0.024 A 
ATOM     15  C   UNL     1       7.674  -2.339   5.619  0.00  0.00    +0.046 C 
ENDBRANCH   1   8
BRANCH   1  21
ATOM     16  C   UNL     1       6.364  -0.464  -0.883  0.00  0.00    -0.058 C 
ATOM     17  C   UNL     1       6.620  -1.523  -1.958  0.00  0.00    +0.086 C 
ATOM     18  N   UNL     1       5.818  -1.212  -3.150  0.00  0.00    -0.333 N 
ATOM     19  C   UNL     1       4.385  -1.185  -2.824  0.00  0.00    +0.086 C 
ATOM     20  C   UNL     1       4.129  -0.126  -1.750  0.00  0.00    -0.058 C 
ATOM     21  N   UNL     1       4.923  -0.462  -0.550  0.00  0.00    +0.391 N 
ATOM     22  H   UNL     1       4.656  -1.398  -0.224  0.00  0.00    -0.080 HD
BRANCH  18  23
ATOM     23  C   UNL     1       6.080  -2.118  -4.180  0.00  0.00    +0.034 A 
ATOM     24  C   UNL     1       5.858  -3.475  -3.986  0.00  0.00    +0.043 A 
ATOM     25  C   UNL     1       6.115  -4.369  -5.009  0.00  0.00    +0.043 A 
ATOM     26  C   UNL     1       6.602  -3.912  -6.222  0.00  0.00    +0.020 A 
ATOM     27  C   UNL     1       6.829  -2.562  -6.415  0.00  0.00    +0.006 A 
ATOM     28  C   UNL     1       6.569  -1.664  -5.398  0.00  0.00    -0.029 A 
ATOM     29  C   UNL     1       6.817  -0.193  -5.610  0.00  0.00    +0.045 C 
ATOM     30 CL   UNL     1       5.832  -6.065  -4.771  0.00  0.00    -0.083 Cl
ENDBRANCH  18  23
ENDBRANCH   1  21
BRANCH   1  31
ATOM     31  C   UNL     1       3.195   0.449   0.894  0.00  0.00    +0.143 A 
ATOM     32  N   UNL     1       2.482  -0.637   1.070  0.00  0.00    -0.115 NA
ATOM     33  N   UNL     1       1.282  -0.279   1.375  0.00  0.00    -0.023 NA
ATOM     34  N   UNL     1       1.212   1.006   1.398  0.00  0.00    -0.044 NA
ATOM     35  N   UNL     1       2.371   1.491   1.107  0.00  0.00    -0.228 N 
BRANCH  35  36
ATOM     36  C   UNL     1       2.724   2.911   1.023  0.00  0.00    +0.175 C 
BRANCH  36  37
ATOM     37  C   UNL     1       3.200   3.400   2.392  0.00  0.00    +0.183 C 
BRANCH  37  38
ATOM     38  O   UNL     1       3.544   4.784   2.310  0.00  0.00    -0.381 OA
ATOM     39  C   UNL     1       4.004   5.343   3.542  0.00  0.00    +0.194 C 
ENDBRANCH  37  38
ENDBRANCH  36  37
ENDBRANCH  35  36
ENDBRANCH   1  31
TORSDOF 7
