REMARK  Name = ZINC09741828
REMARK  6 active torsions:
REMARK  status: ('A' for Active; 'I' for Inactive)
REMARK    1  A    between atoms: C_3  and  C_6
REMARK    2  A    between atoms: C_6  and  C_8
REMARK    3  A    between atoms: C_6  and  N_53
REMARK    4  A    between atoms: C_8  and  N_9
REMARK    5  A    between atoms: N_9  and  C_10
REMARK    6  A    between atoms: C_21  and  C_24
REMARK                            x       y       z     vdW  Elec       q    Type
REMARK                         _______ _______ _______ _____ _____    ______ ____
ROOT
ATOM      1  C   UNL     1       1.877  -0.855  -1.474  0.00  0.00    +0.071 A 
ATOM      2  C   UNL     1       3.184  -0.357  -1.662  0.00  0.00    +0.158 A 
ATOM      3  N   UNL     1       3.371   0.834  -2.160  0.00  0.00    -0.168 NA
ATOM      4  N   UNL     1       2.289   1.644  -2.518  0.00  0.00    -0.177 N 
ATOM      5  C   UNL     1       1.024   1.208  -2.356  0.00  0.00    +0.293 A 
ATOM      6  O   UNL     1       0.083   1.919  -2.676  0.00  0.00    -0.264 OA
ATOM      7  C   UNL     1       0.794  -0.068  -1.823  0.00  0.00    +0.129 A 
ATOM      8 CL   UNL     1      -0.826  -0.652  -1.604  0.00  0.00    -0.076 Cl
ATOM      9  C   UNL     1       2.521   2.914  -3.049  0.00  0.00    +0.158 A 
ATOM     10  C   UNL     1       3.826   3.362  -3.216  0.00  0.00    +0.049 A 
ATOM     11  C   UNL     1       4.042   4.624  -3.743  0.00  0.00    +0.017 A 
ATOM     12  C   UNL     1       2.940   5.396  -4.086  0.00  0.00    +0.073 A 
ATOM     13  C   UNL     1       1.671   4.886  -3.892  0.00  0.00    +0.125 A 
ATOM     14  N   UNL     1       1.496   3.678  -3.393  0.00  0.00    -0.235 NA
ENDROOT
BRANCH  12  15
ATOM     15  C   UNL     1       3.127   6.775  -4.664  0.00  0.00    +0.419 C 
ATOM     16  F   UNL     1       3.204   6.690  -6.058  0.00  0.00    -0.166 F 
ATOM     17  F   UNL     1       2.041   7.582  -4.305  0.00  0.00    -0.166 F 
ATOM     18  F   UNL     1       4.308   7.334  -4.165  0.00  0.00    -0.166 F 
ENDBRANCH  12  15
BRANCH   1  19
ATOM     19  N   UNL     1       1.680  -2.120  -0.945  0.00  0.00    -0.342 N 
ATOM     20  H   UNL     1       0.780  -2.458  -0.818  0.00  0.00    +0.146 HD
BRANCH  19  21
ATOM     21  C   UNL     1       2.832  -2.947  -0.578  0.00  0.00    +0.094 C 
BRANCH  21  22
ATOM     22  C   UNL     1       2.343  -4.238   0.082  0.00  0.00    +0.016 C 
BRANCH  22  28
ATOM     23  C   UNL     1       0.834  -6.114  -0.173  0.00  0.00    -0.078 C 
ATOM     24  C   UNL     1      -0.256  -6.708  -1.067  0.00  0.00    -0.019 C 
ATOM     25  C   UNL     1       0.346  -7.065  -2.429  0.00  0.00    -0.004 C 
ATOM     26  C   UNL     1       0.963  -5.808  -3.050  0.00  0.00    -0.019 C 
ATOM     27  C   UNL     1       2.018  -5.240  -2.098  0.00  0.00    -0.078 C 
ATOM     28  N   UNL     1       1.369  -4.894  -0.815  0.00  0.00    +0.387 N 
ATOM     29  H   UNL     1       0.594  -4.246  -0.997  0.00  0.00    -0.081 HD
ENDBRANCH  22  28
BRANCH  22  32
ATOM     30  C   UNL     1       5.121  -6.313   1.331  0.00  0.00    +0.041 A 
ATOM     31  C   UNL     1       4.043  -5.425   1.550  0.00  0.00    +0.043 A 
ATOM     32  C   UNL     1       3.518  -5.145   0.343  0.00  0.00    +0.093 A 
ATOM     33  O   UNL     1       4.222  -5.806  -0.590  0.00  0.00    -0.469 OA
ATOM     34  C   UNL     1       5.196  -6.516   0.004  0.00  0.00    +0.195 A 
ENDBRANCH  22  32
ENDBRANCH  21  22
ENDBRANCH  19  21
ENDBRANCH   1  19
TORSDOF 6
