REMARK  Name = ZINC00756380
REMARK  7 active torsions:
REMARK  status: ('A' for Active; 'I' for Inactive)
REMARK    1  A    between atoms: C_1  and  C_2
REMARK    2  A    between atoms: C_2  and  O_3
REMARK    3  A    between atoms: O_3  and  C_4
REMARK    4  A    between atoms: C_4  and  C_6
REMARK    5  A    between atoms: C_6  and  C_8
REMARK    6  A    between atoms: C_6  and  O_30
REMARK    7  A    between atoms: C_15  and  C_24
REMARK                            x       y       z     vdW  Elec       q    Type
REMARK                         _______ _______ _______ _____ _____    ______ ____
ROOT
ATOM      1  C   UNL     1      -4.152  -0.798   0.327  0.00  0.00    +0.101 C 
ATOM      2  C   UNL     1      -3.335  -1.815  -0.478  0.00  0.00    +0.019 C 
ATOM      3  C   UNL     1      -1.883  -1.836   0.008  0.00  0.00    +0.039 C 
ATOM      4  C   UNL     1      -1.339  -0.431   0.013  0.00  0.00    -0.012 A 
ATOM      5  C   UNL     1       0.002  -0.004   0.002  0.00  0.00    +0.004 A 
ATOM      6  C   UNL     1       1.233  -0.677  -0.013  0.00  0.00    +0.014 A 
ATOM      7  C   UNL     1       2.397   0.034  -0.020  0.00  0.00    -0.044 A 
ATOM      8  C   UNL     1       2.379   1.423  -0.013  0.00  0.00    +0.006 A 
ATOM      9  C   UNL     1       1.185   2.109   0.002  0.00  0.00    +0.026 A 
ATOM     10  C   UNL     1      -0.017   1.408   0.010  0.00  0.00    +0.047 A 
ATOM     11  N   UNL     1      -1.335   1.807   0.030  0.00  0.00    -0.352 N 
ATOM     12  H   UNL     1      -1.649   2.725   0.038  0.00  0.00    +0.166 HD
ATOM     13  C   UNL     1      -2.130   0.689   0.030  0.00  0.00    +0.087 A 
ATOM     14  C   UNL     1      -3.596   0.589   0.049  0.00  0.00    +0.186 C 
ATOM     15  O   UNL     1      -4.314   1.549  -0.143  0.00  0.00    -0.290 OA
ENDROOT
BRANCH   7  16
ATOM     16  C   UNL     1       3.716  -0.695  -0.037  0.00  0.00    +0.019 C 
ATOM     17  C   UNL     1       4.522  -0.318   1.207  0.00  0.00    +0.008 C 
ATOM     18  C   UNL     1       5.861  -1.058   1.191  0.00  0.00    +0.001 C 
ATOM     19  C   UNL     1       6.645  -0.667  -0.064  0.00  0.00    +0.000 C 
ATOM     20  C   UNL     1       5.838  -1.044  -1.308  0.00  0.00    +0.001 C 
ATOM     21  C   UNL     1       4.499  -0.304  -1.291  0.00  0.00    +0.008 C 
ENDBRANCH   7  16
BRANCH   1  22
ATOM     22  C   UNL     1      -5.620  -0.861  -0.102  0.00  0.00    +0.233 C 
BRANCH  22  23
ATOM     23  C   UNL     1      -6.413   0.160   0.672  0.00  0.00    +0.337 C 
ATOM     24  O   UNL     1      -6.929   1.088   0.096  0.00  0.00    -0.248 OA
BRANCH  23  25
ATOM     25  O   UNL     1      -6.547   0.037   2.002  0.00  0.00    -0.463 OA
BRANCH  25  27
ATOM     26  C   UNL     1      -7.366   0.751   4.181  0.00  0.00    +0.048 C 
ATOM     27  C   UNL     1      -7.325   1.056   2.683  0.00  0.00    +0.229 C 
ENDBRANCH  25  27
ENDBRANCH  23  25
ENDBRANCH  22  23
BRANCH  22  28
ATOM     28  O   UNL     1      -5.720  -0.581  -1.500  0.00  0.00    -0.380 OA
ATOM     29  H   UNL     1      -5.386   0.291  -1.752  0.00  0.00    +0.211 HD
ENDBRANCH  22  28
ENDBRANCH   1  22
TORSDOF 6
