REMARK  Name = ZINC12606715
REMARK  5 active torsions:
REMARK  status: ('A' for Active; 'I' for Inactive)
REMARK    1  A    between atoms: C_1  and  C_2
REMARK    2  A    between atoms: C_11  and  N_29
REMARK    3  A    between atoms: C_13  and  C_15
REMARK    4  A    between atoms: C_15  and  C_16
REMARK    5  A    between atoms: C_16  and  N_17
REMARK                            x       y       z     vdW  Elec       q    Type
REMARK                         _______ _______ _______ _____ _____    ______ ____
ROOT
ATOM      1  C   UNL     1      -1.228  -0.765  -0.667  0.00  0.00    +0.008 C 
ATOM      2  C   UNL     1       0.179  -0.173  -0.768  0.00  0.00    -0.009 C 
ATOM      3  C   UNL     1       1.026  -0.647   0.417  0.00  0.00    +0.008 C 
ATOM      4  C   UNL     1       2.490  -0.268   0.192  0.00  0.00    +0.037 C 
ATOM      5  C   UNL     1       2.573   1.225  -0.117  0.00  0.00    -0.025 A 
ATOM      6  C   UNL     1       1.477   1.904  -0.526  0.00  0.00    -0.004 A 
ATOM      7  S   UNL     1       2.024   3.576  -0.763  0.00  0.00    -0.073 S 
ATOM      8  C   UNL     1       3.717   3.365  -0.318  0.00  0.00    +0.114 A 
ATOM      9  C   UNL     1       3.804   1.987   0.004  0.00  0.00    +0.051 A 
ATOM     10  C   UNL     1       5.080   1.502   0.411  0.00  0.00    +0.128 A 
ATOM     11  N   UNL     1       6.060   2.403   0.445  0.00  0.00    -0.217 NA
ATOM     12  C   UNL     1       5.904   3.673   0.131  0.00  0.00    +0.134 A 
ATOM     13  N   UNL     1       4.743   4.190  -0.256  0.00  0.00    -0.225 NA
ATOM     14  C   UNL     1       0.097   1.359  -0.732  0.00  0.00    +0.046 C 
ENDROOT
BRANCH  10  15
ATOM     15  N   UNL     1       5.288   0.177   0.750  0.00  0.00    -0.343 N 
ATOM     16  H   UNL     1       6.288  -0.162   1.060  0.00  0.00    +0.144 HD
ATOM     17  H   UNL     1       4.453  -0.539   0.711  0.00  0.00    +0.144 HD
ENDBRANCH  10  15
BRANCH  12  18
ATOM     18  C   UNL     1       7.101   4.584   0.214  0.00  0.00    +0.091 C 
BRANCH  18  19
ATOM     19  C   UNL     1       7.831   4.592  -1.131  0.00  0.00    +0.092 C 
BRANCH  19  20
ATOM     20  N   UNL     1       8.998   5.480  -1.050  0.00  0.00    -0.299 NA
ATOM     21  C   UNL     1       8.584   6.878  -0.872  0.00  0.00    +0.103 C 
ATOM     22  C   UNL     1       9.826   7.759  -0.712  0.00  0.00    +0.122 C 
ATOM     23  N   UNL     1      10.683   7.613  -1.897  0.00  0.00    -0.314 N 
ATOM     24  C   UNL     1      11.096   6.214  -2.076  0.00  0.00    +0.122 C 
ATOM     25  C   UNL     1       9.854   5.334  -2.235  0.00  0.00    +0.103 C 
ATOM     26  C   UNL     1      11.787   8.453  -1.821  0.00  0.00    +0.099 A 
ATOM     27  C   UNL     1      11.602   9.821  -1.651  0.00  0.00    +0.042 A 
ATOM     28  C   UNL     1      12.710  10.646  -1.576  0.00  0.00    +0.005 A 
ATOM     29  C   UNL     1      13.971  10.072  -1.674  0.00  0.00    +0.018 A 
ATOM     30  C   UNL     1      14.081   8.706  -1.841  0.00  0.00    +0.084 A 
ATOM     31  N   UNL     1      13.006   7.943  -1.904  0.00  0.00    -0.350 N 
ATOM     32  H   UNL     1      13.142   6.859  -2.029  0.00  0.00    +0.166 HD
ENDBRANCH  19  20
ENDBRANCH  18  19
ENDBRANCH  12  18
TORSDOF 4
