REMARK  Name = ZINC39624659
REMARK  7 active torsions:
REMARK  status: ('A' for Active; 'I' for Inactive)
REMARK    1  A    between atoms: C_1  and  C_2
REMARK    2  A    between atoms: C_2  and  C_3
REMARK    3  A    between atoms: C_2  and  C_4
REMARK    4  A    between atoms: C_4  and  N_5
REMARK    5  A    between atoms: C_6  and  C_8
REMARK    6  A    between atoms: C_19  and  C_21
REMARK    7  A    between atoms: C_24  and  C_26
REMARK                            x       y       z     vdW  Elec       q    Type
REMARK                         _______ _______ _______ _____ _____    ______ ____
ROOT
ATOM      1  C   UNL     1      -4.078  -0.112  -2.723  0.00  0.00    +0.100 C 
ATOM      2  C   UNL     1      -3.305  -0.658  -3.944  0.00  0.00    +0.121 C 
ATOM      3  N   UNL     1      -3.976  -1.938  -4.270  0.00  0.00    -0.294 N 
ATOM      4  C   UNL     1      -5.418  -1.661  -4.064  0.00  0.00    +0.115 C 
ATOM      5  C   UNL     1      -5.465  -0.769  -2.807  0.00  0.00    -0.004 C 
ATOM      6  C   UNL     1      -5.723  -1.621  -1.568  0.00  0.00    -0.010 C 
ATOM      7  C   UNL     1      -7.131  -2.219  -1.649  0.00  0.00    -0.082 C 
ATOM      8  N   UNL     1      -8.119  -1.137  -1.738  0.00  0.00    +0.379 N 
ATOM      9  C   UNL     1      -7.922  -0.380  -2.980  0.00  0.00    -0.082 C 
ATOM     10  C   UNL     1      -6.548   0.295  -2.955  0.00  0.00    -0.010 C 
ATOM     11  C   UNL     1      -3.405  -3.093  -4.665  0.00  0.00    +0.282 C 
ATOM     12  O   UNL     1      -4.099  -4.066  -4.899  0.00  0.00    -0.267 OA
ATOM     13  H   UNL     1      -9.048  -1.531  -1.730  0.00  0.00    -0.086 HD
ATOM     14  H   UNL     1      -8.012  -0.519  -0.948  0.00  0.00    -0.086 HD
ENDROOT
BRANCH  11  15
ATOM     15  C   UNL     1      -1.951  -3.178  -4.814  0.00  0.00    +0.190 A 
ATOM     16  C   UNL     1      -1.242  -4.289  -5.214  0.00  0.00    +0.055 A 
ATOM     17  C   UNL     1       0.109  -3.927  -5.217  0.00  0.00    +0.050 A 
ATOM     18  C   UNL     1       0.175  -2.621  -4.824  0.00  0.00    +0.136 A 
ATOM     19  O   UNL     1      -1.071  -2.178  -4.589  0.00  0.00    -0.450 OA
BRANCH  18  20
ATOM     20  C   UNL     1       1.411  -1.825  -4.684  0.00  0.00    +0.017 A 
ATOM     21  C   UNL     1       2.651  -2.401  -4.971  0.00  0.00    +0.014 A 
ATOM     22  C   UNL     1       3.802  -1.654  -4.839  0.00  0.00    +0.039 A 
ATOM     23  C   UNL     1       3.731  -0.333  -4.424  0.00  0.00    +0.123 A 
ATOM     24  C   UNL     1       2.503   0.243  -4.138  0.00  0.00    +0.039 A 
ATOM     25  C   UNL     1       1.345  -0.493  -4.272  0.00  0.00    +0.014 A 
ATOM     26  F   UNL     1       4.862   0.395  -4.297  0.00  0.00    -0.205 F 
ENDBRANCH  18  20
ENDBRANCH  11  15
BRANCH   1  28
ATOM     27  N   UNL     1      -3.502   0.267  -0.347  0.00  0.00    -0.315 N 
ATOM     28  C   UNL     1      -3.387  -0.508  -1.443  0.00  0.00    +0.218 C 
ATOM     29  O   UNL     1      -2.726  -1.524  -1.401  0.00  0.00    -0.275 OA
ATOM     30  H   UNL     1      -4.030   1.080  -0.381  0.00  0.00    +0.149 HD
BRANCH  27  31
ATOM     31  C   UNL     1      -2.830  -0.118   0.897  0.00  0.00    +0.107 C 
BRANCH  31  33
ATOM     32  C   UNL     1      -4.615   0.915   2.306  0.00  0.00    +0.009 C 
ATOM     33  C   UNL     1      -3.121   0.924   1.978  0.00  0.00    -0.000 C 
ATOM     34  C   UNL     1      -2.320   0.589   3.238  0.00  0.00    +0.009 C 
ENDBRANCH  31  33
ENDBRANCH  27  31
ENDBRANCH   1  28
TORSDOF 5
