REMARK  Name = ZINC38914766
REMARK  6 active torsions:
REMARK  status: ('A' for Active; 'I' for Inactive)
REMARK    1  A    between atoms: C_1  and  C_2
REMARK    2  A    between atoms: C_3  and  C_24
REMARK    3  A    between atoms: C_6  and  C_8
REMARK    4  A    between atoms: N_10  and  N_11
REMARK    5  A    between atoms: C_12  and  C_13
REMARK    6  A    between atoms: C_22  and  O_23
REMARK                            x       y       z     vdW  Elec       q    Type
REMARK                         _______ _______ _______ _____ _____    ______ ____
ROOT
ATOM      1  C   UNL     1       1.415  -0.699   1.910  0.00  0.00    +0.263 C 
ATOM      2  O   UNL     1       2.366  -1.425   1.711  0.00  0.00    -0.271 OA
ATOM      3  N   UNL     1       1.521   0.328   2.776  0.00  0.00    -0.205 N 
ATOM      4  H   UNL     1       0.760   0.909   2.934  0.00  0.00    +0.177 HD
ENDROOT
BRANCH   1  10
ATOM      5  C   UNL     1      -0.087   1.501   0.016  0.00  0.00    +0.044 C 
ATOM      6  C   UNL     1      -0.028  -0.005   0.005  0.00  0.00    -0.010 C 
ATOM      7  C   UNL     1      -0.083  -0.830  -1.059  0.00  0.00    +0.094 C 
ATOM      8  N   UNL     1       0.003  -2.126  -0.658  0.00  0.00    -0.153 NA
ATOM      9  N   UNL     1       0.110  -2.277   0.560  0.00  0.00    -0.170 NA
ATOM     10  C   UNL     1       0.115  -0.946   1.188  0.00  0.00    +0.243 C 
BRANCH   7  11
ATOM     11  C   UNL     1      -0.220  -0.387  -2.468  0.00  0.00    +0.002 A 
ATOM     12  C   UNL     1       0.580   0.644  -2.957  0.00  0.00    +0.010 A 
ATOM     13  C   UNL     1       0.450   1.052  -4.269  0.00  0.00    +0.001 A 
ATOM     14  C   UNL     1      -0.473   0.440  -5.098  0.00  0.00    +0.000 A 
ATOM     15  C   UNL     1      -1.270  -0.584  -4.618  0.00  0.00    +0.001 A 
ATOM     16  C   UNL     1      -1.144  -1.004  -3.309  0.00  0.00    +0.010 A 
ENDBRANCH   7  11
ENDBRANCH   1  10
BRANCH   3  17
ATOM     17  N   UNL     1       2.729   0.557   3.446  0.00  0.00    -0.188 NA
ATOM     18  C   UNL     1       2.831   1.548   4.281  0.00  0.00    +0.142 C 
BRANCH  18  19
ATOM     19  C   UNL     1       4.099   1.788   4.985  0.00  0.00    +0.044 A 
ATOM     20  C   UNL     1       4.229   2.894   5.932  0.00  0.00    -0.006 A 
ATOM     21  C   UNL     1       3.159   3.757   6.200  0.00  0.00    +0.009 A 
ATOM     22  C   UNL     1       3.322   4.776   7.090  0.00  0.00    +0.001 A 
ATOM     23  C   UNL     1       4.539   4.972   7.738  0.00  0.00    +0.001 A 
ATOM     24  C   UNL     1       5.600   4.152   7.501  0.00  0.00    +0.008 A 
ATOM     25  C   UNL     1       5.468   3.091   6.589  0.00  0.00    -0.017 A 
ATOM     26  C   UNL     1       6.541   2.223   6.320  0.00  0.00    +0.012 A 
ATOM     27  C   UNL     1       6.402   1.199   5.437  0.00  0.00    +0.046 A 
ATOM     28  C   UNL     1       5.202   0.963   4.769  0.00  0.00    +0.126 A 
BRANCH  28  29
ATOM     29  O   UNL     1       5.107  -0.075   3.898  0.00  0.00    -0.506 OA
ATOM     30  H   UNL     1       5.344   0.151   2.989  0.00  0.00    +0.292 HD
ENDBRANCH  28  29
ENDBRANCH  18  19
ENDBRANCH   3  17
TORSDOF 5
