REMARK  Name = ZINC39468230
REMARK  3 active torsions:
REMARK  status: ('A' for Active; 'I' for Inactive)
REMARK    1  A    between atoms: C_4  and  C_7
REMARK    2  A    between atoms: C_8  and  C_9
REMARK    3  A    between atoms: C_21  and  N_23
REMARK                            x       y       z     vdW  Elec       q    Type
REMARK                         _______ _______ _______ _____ _____    ______ ____
ROOT
ATOM      1  C   UNL     1       5.033  -2.743  -0.063  0.00  0.00    +0.180 C 
ATOM      2  C   UNL     1       5.146  -3.668   1.120  0.00  0.00    +0.000 C 
ATOM      3  C   UNL     1       6.201  -3.222   1.810  0.00  0.00    +0.068 C 
ATOM      4  C   UNL     1       6.689  -3.865   3.089  0.00  0.00    +0.076 C 
ATOM      5  C   UNL     1       5.568  -4.732   3.671  0.00  0.00    +0.114 C 
ATOM      6  N   UNL     1       4.975  -5.545   2.598  0.00  0.00    -0.295 N 
ATOM      7  C   UNL     1       4.290  -4.843   1.496  0.00  0.00    +0.143 C 
ATOM      8  C   UNL     1       5.056  -6.928   2.623  0.00  0.00    +0.220 A 
ATOM      9  N   UNL     1       4.514  -7.624   1.635  0.00  0.00    -0.220 NA
ATOM     10  C   UNL     1       4.571  -8.948   1.623  0.00  0.00    +0.156 A 
ATOM     11  C   UNL     1       5.207  -9.607   2.658  0.00  0.00    +0.181 A 
ATOM     12  C   UNL     1       5.770  -8.845   3.686  0.00  0.00    +0.157 A 
ATOM     13  N   UNL     1       5.679  -7.520   3.631  0.00  0.00    -0.197 NA
ATOM     14  F   UNL     1       5.283 -10.956   2.677  0.00  0.00    -0.200 F 
ATOM     15  N   UNL     1       6.733  -2.144   1.190  0.00  0.00    -0.158 NA
ATOM     16  N   UNL     1       6.155  -1.807   0.146  0.00  0.00    -0.175 NA
ENDROOT
BRANCH  12  17
ATOM     17  N   UNL     1       6.418  -9.462   4.746  0.00  0.00    -0.341 N 
ATOM     18  H   UNL     1       6.483 -10.429   4.777  0.00  0.00    +0.144 HD
ATOM     19  H   UNL     1       6.806  -8.926   5.455  0.00  0.00    +0.144 HD
ENDBRANCH  12  17
BRANCH   1  21
ATOM     20  C   UNL     1       3.695  -0.685  -0.038  0.00  0.00    +0.006 C 
ATOM     21  C   UNL     1       3.716  -2.010  -0.046  0.00  0.00    +0.006 C 
BRANCH  20  25
ATOM     22  C   UNL     1      -0.017   1.379   0.010  0.00  0.00    +0.000 A 
ATOM     23  C   UNL     1       1.168   2.093   0.002  0.00  0.00    +0.001 A 
ATOM     24  C   UNL     1       2.377   1.429  -0.013  0.00  0.00    +0.008 A 
ATOM     25  C   UNL     1       2.403   0.034  -0.021  0.00  0.00    -0.025 A 
ATOM     26  C   UNL     1       1.204  -0.681  -0.013  0.00  0.00    +0.008 A 
ATOM     27  C   UNL     1       0.002  -0.004   0.002  0.00  0.00    +0.001 A 
ENDBRANCH  20  25
ENDBRANCH   1  21
TORSDOF 3
