REMARK  Name = ZINC19520595
REMARK  11 active torsions:
REMARK  status: ('A' for Active; 'I' for Inactive)
REMARK    1  A    between atoms: C_1  and  C_2
REMARK    2  A    between atoms: C_2  and  C_3
REMARK    3  A    between atoms: C_6  and  C_30
REMARK    4  A    between atoms: C_11  and  C_13
REMARK    5  A    between atoms: N_15  and  C_16
REMARK    6  A    between atoms: C_16  and  C_17
REMARK    7  A    between atoms: C_17  and  C_19
REMARK    8  A    between atoms: C_17  and  N_26
REMARK    9  A    between atoms: C_22  and  C_25
REMARK   10  A    between atoms: N_26  and  C_27
REMARK   11  A    between atoms: N_26  and  C_28
REMARK                            x       y       z     vdW  Elec       q    Type
REMARK                         _______ _______ _______ _____ _____    ______ ____
ROOT
ATOM      1  C   UNL     1      -6.744  -1.315  -3.909  0.00  0.00    +0.264 C 
ATOM      2  O   UNL     1      -7.048  -0.810  -4.972  0.00  0.00    -0.268 OA
ATOM      3  N   UNL     1      -7.445  -2.365  -3.437  0.00  0.00    -0.311 N 
ATOM      4  H   UNL     1      -7.170  -2.822  -2.475  0.00  0.00    +0.149 HD
ENDROOT
BRANCH   1  11
ATOM      5  C   UNL     1      -2.185   1.542  -1.130  0.00  0.00    +0.074 C 
ATOM      6  C   UNL     1      -1.935   0.131  -0.586  0.00  0.00    +0.058 C 
ATOM      7  C   UNL     1      -3.271  -0.587  -0.364  0.00  0.00    +0.214 C 
ATOM      8  N   UNL     1      -4.084  -0.462  -1.577  0.00  0.00    -0.238 N 
ATOM      9  C   UNL     1      -3.869   0.483  -2.540  0.00  0.00    +0.119 A 
ATOM     10  C   UNL     1      -4.788   0.311  -3.510  0.00  0.00    +0.078 A 
ATOM     11  C   UNL     1      -5.606  -0.779  -3.135  0.00  0.00    +0.149 A 
ATOM     12  N   UNL     1      -5.174  -1.236  -1.972  0.00  0.00    -0.164 NA
ATOM     13  N   UNL     1      -2.844   1.429  -2.446  0.00  0.00    -0.326 N 
ATOM     14  H   UNL     1      -2.519   2.068  -3.281  0.00  0.00    +0.148 HD
BRANCH   7  15
ATOM     15  C   UNL     1      -3.015  -2.066  -0.068  0.00  0.00    +0.412 C 
ATOM     16  F   UNL     1      -2.228  -2.182   1.082  0.00  0.00    -0.168 F 
ATOM     17  F   UNL     1      -4.236  -2.719   0.134  0.00  0.00    -0.168 F 
ATOM     18  F   UNL     1      -2.348  -2.649  -1.151  0.00  0.00    -0.168 F 
ENDBRANCH   7  15
BRANCH   5  20
ATOM     19  C   UNL     1      -1.112   3.724  -1.708  0.00  0.00    +0.006 C 
ATOM     20  C   UNL     1      -0.851   2.277  -1.284  0.00  0.00    +0.019 C 
ENDBRANCH   5  20
ENDBRANCH   1  11
BRANCH   3  21
ATOM     21  C   UNL     1      -8.574  -2.897  -4.204  0.00  0.00    +0.094 C 
BRANCH  21  22
ATOM     22  C   UNL     1      -9.191  -4.077  -3.451  0.00  0.00    -0.021 C 
BRANCH  22  23
ATOM     23  C   UNL     1     -10.426  -4.546  -4.178  0.00  0.00    -0.059 A 
ATOM     24  C   UNL     1     -10.576  -5.883  -4.492  0.00  0.00    +0.002 A 
ATOM     25  C   UNL     1     -11.710  -6.314  -5.155  0.00  0.00    +0.003 A 
ATOM     26  C   UNL     1     -12.690  -5.406  -5.511  0.00  0.00    -0.050 A 
ATOM     27  C   UNL     1     -12.537  -4.068  -5.201  0.00  0.00    +0.003 A 
ATOM     28  C   UNL     1     -11.405  -3.638  -4.535  0.00  0.00    +0.002 A 
ATOM     29  C   UNL     1     -13.924  -5.875  -6.238  0.00  0.00    +0.044 C 
ENDBRANCH  22  23
BRANCH  22  30
ATOM     30  N   UNL     1      -9.554  -3.655  -2.092  0.00  0.00    +0.382 N 
ATOM     31  C   UNL     1     -10.517  -2.546  -2.124  0.00  0.00    -0.096 C 
ATOM     32  C   UNL     1     -10.079  -4.784  -1.312  0.00  0.00    -0.096 C 
ATOM     33  H   UNL     1      -8.641  -3.295  -1.594  0.00  0.00    -0.082 HD
ENDBRANCH  22  30
ENDBRANCH  21  22
ENDBRANCH   3  21
TORSDOF 7
