REMARK  Name = ZINC06280653
REMARK  11 active torsions:
REMARK  status: ('A' for Active; 'I' for Inactive)
REMARK    1  A    between atoms: C_1  and  C_2
REMARK    2  A    between atoms: C_7  and  N_8
REMARK    3  A    between atoms: C_13  and  C_15
REMARK    4  A    between atoms: C_13  and  C_29
REMARK    5  A    between atoms: C_13  and  N_71
REMARK    6  A    between atoms: C_19  and  C_28
REMARK    7  A    between atoms: C_21  and  C_27
REMARK    8  A    between atoms: N_33  and  C_34
REMARK    9  A    between atoms: C_34  and  C_35
REMARK   10  A    between atoms: C_34  and  C_36
REMARK   11  A    between atoms: C_34  and  C_37
REMARK                            x       y       z     vdW  Elec       q    Type
REMARK                         _______ _______ _______ _____ _____    ______ ____
ROOT
ATOM      1  C   UNL     1       1.314   3.599  -0.062  0.00  0.00    +0.039 C 
ENDROOT
BRANCH   1   2
ATOM      2  C   UNL     1       1.400   2.117   0.197  0.00  0.00    +0.011 A 
ATOM      3  C   UNL     1       0.267   1.399   0.396  0.00  0.00    +0.017 A 
ATOM      4  C   UNL     1       0.384  -0.039   0.644  0.00  0.00    -0.001 A 
ATOM      5  C   UNL     1      -0.749  -0.831   0.857  0.00  0.00    +0.013 A 
ATOM      6  C   UNL     1      -0.606  -2.170   1.085  0.00  0.00    -0.050 A 
ATOM      7  C   UNL     1       0.654  -2.752   1.109  0.00  0.00    +0.008 A 
ATOM      8  C   UNL     1       1.784  -1.991   0.902  0.00  0.00    -0.026 A 
ATOM      9  C   UNL     1       1.663  -0.625   0.668  0.00  0.00    +0.052 A 
ATOM     10  N   UNL     1       2.777   0.160   0.457  0.00  0.00    -0.322 N 
ATOM     11  H   UNL     1       3.658  -0.245   0.473  0.00  0.00    +0.169 HD
ATOM     12  C   UNL     1       2.659   1.480   0.229  0.00  0.00    +0.251 A 
ATOM     13  O   UNL     1       3.665   2.144   0.048  0.00  0.00    -0.268 OA
ATOM     14  C   UNL     1       3.146  -2.636   0.930  0.00  0.00    +0.046 C 
ATOM     15  C   UNL     1      -1.827  -3.023   1.315  0.00  0.00    +0.044 C 
ENDBRANCH   1   2
BRANCH   1  21
ATOM     16  N   UNL     1       2.640   6.133   3.048  0.00  0.00    -0.333 N 
ATOM     17  C   UNL     1       3.031   6.469   1.672  0.00  0.00    +0.086 C 
ATOM     18  C   UNL     1       2.090   5.766   0.690  0.00  0.00    -0.058 C 
ATOM     19  C   UNL     1       1.757   3.979   2.289  0.00  0.00    -0.058 C 
ATOM     20  C   UNL     1       2.699   4.682   3.270  0.00  0.00    +0.086 C 
ATOM     21  N   UNL     1       2.175   4.307   0.909  0.00  0.00    +0.391 N 
ATOM     22  H   UNL     1       3.148   4.006   0.775  0.00  0.00    -0.080 HD
BRANCH  16  29
ATOM     23  C   UNL     1       1.383   8.037   4.747  0.00  0.00    +0.045 C 
ATOM     24  C   UNL     1       2.861   7.752   4.824  0.00  0.00    -0.029 A 
ATOM     25  C   UNL     1       3.647   8.423   5.739  0.00  0.00    +0.006 A 
ATOM     26  C   UNL     1       5.003   8.163   5.811  0.00  0.00    +0.020 A 
ATOM     27  C   UNL     1       5.577   7.228   4.966  0.00  0.00    +0.043 A 
ATOM     28  C   UNL     1       4.795   6.550   4.051  0.00  0.00    +0.043 A 
ATOM     29  C   UNL     1       3.433   6.814   3.974  0.00  0.00    +0.034 A 
ATOM     30 CL   UNL     1       7.280   6.904   5.061  0.00  0.00    -0.083 Cl
ENDBRANCH  16  29
ENDBRANCH   1  21
BRANCH   1  31
ATOM     31  C   UNL     1       1.804   3.895  -1.456  0.00  0.00    +0.143 A 
ATOM     32  N   UNL     1       3.038   3.804  -1.887  0.00  0.00    -0.115 NA
ATOM     33  N   UNL     1       3.050   4.137  -3.132  0.00  0.00    -0.023 NA
ATOM     34  N   UNL     1       1.857   4.446  -3.503  0.00  0.00    -0.043 NA
ATOM     35  N   UNL     1       1.060   4.309  -2.498  0.00  0.00    -0.225 N 
BRANCH  35  36
ATOM     36  C   UNL     1      -0.384   4.557  -2.492  0.00  0.00    +0.059 C 
ATOM     37  C   UNL     1      -0.702   5.694  -1.520  0.00  0.00    +0.036 C 
ATOM     38  C   UNL     1      -0.840   4.947  -3.900  0.00  0.00    +0.036 C 
ATOM     39  C   UNL     1      -1.118   3.289  -2.052  0.00  0.00    +0.036 C 
ENDBRANCH  35  36
ENDBRANCH   1  31
TORSDOF 5
