REMARK  Name = ZINC39778020
REMARK  7 active torsions:
REMARK  status: ('A' for Active; 'I' for Inactive)
REMARK    1  A    between atoms: C_1  and  C_2
REMARK    2  A    between atoms: C_4  and  C_10
REMARK    3  A    between atoms: C_5  and  O_9
REMARK    4  A    between atoms: C_7  and  O_8
REMARK    5  A    between atoms: C_12  and  C_16
REMARK    6  A    between atoms: C_17  and  C_22
REMARK    7  A    between atoms: C_19  and  C_21
REMARK                            x       y       z     vdW  Elec       q    Type
REMARK                         _______ _______ _______ _____ _____    ______ ____
ROOT
ATOM      1  C   UNL     1       0.190  -3.406  -2.912  0.00  0.00    +0.166 C 
ATOM      2  C   UNL     1      -1.291  -3.563  -3.213  0.00  0.00    +0.027 C 
ATOM      3  C   UNL     1      -1.426  -3.006  -4.443  0.00  0.00    +0.140 C 
ATOM      4  N   UNL     1      -0.248  -2.558  -4.887  0.00  0.00    -0.185 NA
ATOM      5  N   UNL     1       0.703  -2.733  -4.117  0.00  0.00    -0.297 N 
ATOM      6  H   UNL     1       1.624  -2.474  -4.276  0.00  0.00    +0.183 HD
ENDROOT
BRANCH   1  10
ATOM      7  C   UNL     1       0.976   1.090  -0.865  0.00  0.00    +0.047 C 
ATOM      8  C   UNL     1       0.774  -0.396  -0.711  0.00  0.00    -0.008 A 
ATOM      9  C   UNL     1       0.583  -1.186  -1.829  0.00  0.00    +0.016 A 
ATOM     10  C   UNL     1       0.398  -2.548  -1.691  0.00  0.00    +0.023 A 
ATOM     11  C   UNL     1       0.404  -3.126  -0.429  0.00  0.00    +0.126 A 
ATOM     12  C   UNL     1       0.595  -2.336   0.693  0.00  0.00    +0.091 A 
ATOM     13  C   UNL     1       0.786  -0.970   0.552  0.00  0.00    +0.123 A 
BRANCH  13  14
ATOM     14  O   UNL     1       0.980  -0.193   1.650  0.00  0.00    -0.506 OA
ATOM     15  H   UNL     1       0.164   0.157   2.033  0.00  0.00    +0.292 HD
ENDBRANCH  13  14
BRANCH  11  16
ATOM     16  O   UNL     1       0.222  -4.466  -0.295  0.00  0.00    -0.506 OA
ATOM     17  H   UNL     1       1.041  -4.979  -0.317  0.00  0.00    +0.292 HD
ENDBRANCH  11  16
ENDBRANCH   1  10
BRANCH   2  18
ATOM     18  C   UNL     1      -2.330  -4.172  -2.373  0.00  0.00    +0.081 A 
ATOM     19  C   UNL     1      -3.657  -4.138  -2.718  0.00  0.00    +0.014 A 
ATOM     20  S   UNL     1      -4.383  -4.957  -1.444  0.00  0.00    -0.077 S 
ATOM     21  C   UNL     1      -3.018  -5.310  -0.534  0.00  0.00    +0.076 A 
ATOM     22  N   UNL     1      -2.038  -4.798  -1.228  0.00  0.00    -0.244 NA
ATOM     23  C   UNL     1      -2.941  -6.051   0.777  0.00  0.00    +0.073 C 
ATOM     24  C   UNL     1      -4.300  -3.521  -3.933  0.00  0.00    +0.054 C 
ENDBRANCH   2  18
TORSDOF 4
