REMARK  Name = ZINC25693557
REMARK  4 active torsions:
REMARK  status: ('A' for Active; 'I' for Inactive)
REMARK    1  A    between atoms: C_2  and  N_12
REMARK    2  A    between atoms: C_5  and  N_8
REMARK    3  A    between atoms: C_13  and  C_15
REMARK    4  A    between atoms: C_16  and  C_25
REMARK                            x       y       z     vdW  Elec       q    Type
REMARK                         _______ _______ _______ _____ _____    ______ ____
ROOT
ATOM      1  N   UNL     1       1.147   4.252  -1.154  0.00  0.00    -0.280 N 
ATOM      2  C   UNL     1       1.171   3.572   0.010  0.00  0.00    +0.251 C 
ATOM      3  O   UNL     1       1.170   4.175   1.065  0.00  0.00    -0.270 OA
ATOM      4  H   UNL     1       1.222   3.710  -2.108  0.00  0.00    +0.155 HD
ENDROOT
BRANCH   2   5
ATOM      5  C   UNL     1       1.197   2.095   0.003  0.00  0.00    +0.072 A 
ATOM      6  C   UNL     1       2.428   1.408  -0.013  0.00  0.00    +0.096 A 
ATOM      7  C   UNL     1       2.439   0.015  -0.020  0.00  0.00    +0.076 A 
ATOM      8  C   UNL     1       1.245  -0.687  -0.011  0.00  0.00    +0.080 A 
ATOM      9  C   UNL     1       0.036  -0.012   0.004  0.00  0.00    +0.080 A 
ATOM     10  C   UNL     1       0.006   1.373   0.011  0.00  0.00    +0.074 A 
ATOM     11 CL   UNL     1      -1.515   2.209   0.024  0.00  0.00    -0.081 Cl
ATOM     12 CL   UNL     1      -1.452  -0.907   0.015  0.00  0.00    -0.080 Cl
ATOM     13 CL   UNL     1       1.264  -2.423  -0.019  0.00  0.00    -0.080 Cl
ATOM     14 CL   UNL     1       3.949  -0.841  -0.040  0.00  0.00    -0.081 Cl
BRANCH   6  15
ATOM     15  C   UNL     1       3.698   2.161  -0.022  0.00  0.00    +0.389 C 
ATOM     16  O   UNL     1       4.210   2.476  -1.078  0.00  0.00    -0.241 OA
ATOM     17  O   UNL     1       4.289   2.499   1.141  0.00  0.00    -0.241 OA
ENDBRANCH   6  15
ENDBRANCH   2   5
BRANCH   1  19
ATOM     18  C   UNL     1       1.620   6.390  -0.138  0.00  0.00    +0.047 A 
ATOM     19  C   UNL     1       1.027   5.645  -1.148  0.00  0.00    +0.054 A 
ATOM     20  C   UNL     1       0.309   6.287  -2.151  0.00  0.00    +0.064 A 
ATOM     21  C   UNL     1       0.192   7.664  -2.142  0.00  0.00    +0.056 A 
ATOM     22  C   UNL     1       0.788   8.403  -1.137  0.00  0.00    +0.146 A 
ATOM     23  C   UNL     1       1.503   7.768  -0.137  0.00  0.00    +0.073 A 
ATOM     24 CL   UNL     1       2.248   8.700   1.123  0.00  0.00    -0.081 Cl
ATOM     25 CL   UNL     1      -0.440   5.359  -3.412  0.00  0.00    -0.082 Cl
BRANCH  22  26
ATOM     26  N   UNL     1       0.660   9.878  -1.131  0.00  0.00    +0.058 N 
ATOM     27  O   UNL     1       0.031  10.439  -2.010  0.00  0.00    -0.126 OA
ATOM     28  O   UNL     1       1.185  10.531  -0.246  0.00  0.00    -0.126 OA
ENDBRANCH  22  26
ENDBRANCH   1  19
TORSDOF 4
