REMARK  Name = ZINC28054032
REMARK  3 active torsions:
REMARK  status: ('A' for Active; 'I' for Inactive)
REMARK    1  A    between atoms: C_1  and  C_2
REMARK    2  A    between atoms: C_5  and  C_8
REMARK    3  A    between atoms: C_19  and  C_21
REMARK                            x       y       z     vdW  Elec       q    Type
REMARK                         _______ _______ _______ _____ _____    ______ ____
ROOT
ATOM      1  C   UNL     1       2.646   1.134  -0.025  0.00  0.00    +0.174 C 
ATOM      2  C   UNL     1       3.359   1.470   1.261  0.00  0.00    +0.025 C 
ATOM      3  C   UNL     1       4.422   2.276   1.299  0.00  0.00    +0.050 C 
ATOM      4  C   UNL     1       5.037   2.573   2.614  0.00  0.00    +0.038 A 
ATOM      5  C   UNL     1       6.310   3.122   2.713  0.00  0.00    +0.013 A 
ATOM      6  C   UNL     1       6.844   3.382   3.961  0.00  0.00    +0.001 A 
ATOM      7  C   UNL     1       6.117   3.100   5.105  0.00  0.00    +0.004 A 
ATOM      8  C   UNL     1       4.850   2.554   5.015  0.00  0.00    +0.046 A 
ATOM      9  C   UNL     1       4.303   2.287   3.773  0.00  0.00    +0.131 A 
ATOM     10  O   UNL     1       3.064   1.750   3.643  0.00  0.00    -0.479 OA
ATOM     11  C   UNL     1       2.853   0.859   2.548  0.00  0.00    +0.234 C 
ATOM     12  N   UNL     1       4.964   2.853   0.144  0.00  0.00    -0.282 N 
ATOM     13  C   UNL     1       4.537   2.356  -1.076  0.00  0.00    +0.240 A 
ATOM     14  N   UNL     1       3.452   1.543  -1.167  0.00  0.00    -0.201 N 
ATOM     15  N   UNL     1       3.329   1.237  -2.522  0.00  0.00    -0.042 NA
ATOM     16  N   UNL     1       4.291   1.856  -3.127  0.00  0.00    -0.021 NA
ATOM     17  N   UNL     1       5.003   2.517  -2.280  0.00  0.00    -0.092 NA
ATOM     18  H   UNL     1       5.699   3.668   0.229  0.00  0.00    +0.155 HD
ENDROOT
BRANCH   1  23
ATOM     19  C   UNL     1      -2.429   3.894  -0.179  0.00  0.00    +0.044 C 
ATOM     20  C   UNL     1      -1.106   3.174  -0.139  0.00  0.00    -0.050 A 
ATOM     21  C   UNL     1      -1.068   1.794  -0.197  0.00  0.00    +0.004 A 
ATOM     22  C   UNL     1       0.146   1.133  -0.155  0.00  0.00    +0.006 A 
ATOM     23  C   UNL     1       1.322   1.854  -0.065  0.00  0.00    -0.019 A 
ATOM     24  C   UNL     1       1.284   3.235  -0.011  0.00  0.00    +0.006 A 
ATOM     25  C   UNL     1       0.070   3.895  -0.047  0.00  0.00    +0.004 A 
ENDBRANCH   1  23
BRANCH  11  26
ATOM     26  C   UNL     1       3.587  -0.431   2.809  0.00  0.00    -0.000 A 
ATOM     27  C   UNL     1       2.958  -1.641   2.584  0.00  0.00    +0.008 A 
ATOM     28  C   UNL     1       3.632  -2.825   2.818  0.00  0.00    +0.003 A 
ATOM     29  C   UNL     1       4.932  -2.800   3.287  0.00  0.00    +0.038 A 
ATOM     30  C   UNL     1       5.561  -1.589   3.516  0.00  0.00    +0.124 A 
ATOM     31  C   UNL     1       4.887  -0.403   3.277  0.00  0.00    +0.046 A 
ATOM     32  F   UNL     1       6.832  -1.563   3.975  0.00  0.00    -0.205 F 
ENDBRANCH  11  26
TORSDOF 2
