REMARK  Name = ZINC35640704
REMARK  13 active torsions:
REMARK  status: ('A' for Active; 'I' for Inactive)
REMARK    1  A    between atoms: C_1  and  C_2
REMARK    2  A    between atoms: C_2  and  O_3
REMARK    3  A    between atoms: O_3  and  C_4
REMARK    4  A    between atoms: C_4  and  C_6
REMARK    5  A    between atoms: C_7  and  C_27
REMARK    6  A    between atoms: N_8  and  C_24
REMARK    7  A    between atoms: C_12  and  C_14
REMARK    8  A    between atoms: C_17  and  C_20
REMARK    9  A    between atoms: C_20  and  C_21
REMARK   10  A    between atoms: C_20  and  C_22
REMARK   11  A    between atoms: C_20  and  C_23
REMARK   12  A    between atoms: C_24  and  C_25
REMARK   13  A    between atoms: C_27  and  N_28
REMARK                            x       y       z     vdW  Elec       q    Type
REMARK                         _______ _______ _______ _____ _____    ______ ____
ROOT
ATOM      1  C   UNL     1       0.820  -2.686  -2.416  0.00  0.00    +0.080 C 
ATOM      2  C   UNL     1       1.435  -3.888  -2.459  0.00  0.00    +0.041 C 
ATOM      3  N   UNL     1       2.339  -4.182  -3.439  0.00  0.00    -0.254 N 
ATOM      4  C   UNL     1       2.683  -3.329  -4.412  0.00  0.00    +0.307 C 
ATOM      5  O   UNL     1       3.499  -3.682  -5.241  0.00  0.00    -0.252 OA
ATOM      6  N   UNL     1       2.155  -2.093  -4.502  0.00  0.00    -0.288 N 
ATOM      7  C   UNL     1       1.163  -1.679  -3.494  0.00  0.00    +0.144 C 
ATOM      8  H   UNL     1       2.419  -1.491  -5.215  0.00  0.00    +0.151 HD
ENDROOT
BRANCH   7   9
ATOM      9  C   UNL     1       1.683  -0.436  -2.821  0.00  0.00    -0.022 A 
ATOM     10  C   UNL     1       2.994  -0.383  -2.383  0.00  0.00    +0.006 A 
ATOM     11  C   UNL     1       3.471   0.758  -1.765  0.00  0.00    +0.004 A 
ATOM     12  C   UNL     1       2.638   1.846  -1.585  0.00  0.00    -0.042 A 
ATOM     13  C   UNL     1       1.328   1.794  -2.023  0.00  0.00    +0.004 A 
ATOM     14  C   UNL     1       0.852   0.654  -2.645  0.00  0.00    +0.006 A 
BRANCH  12  15
ATOM     15  C   UNL     1       3.158   3.089  -0.910  0.00  0.00    -0.013 C 
ATOM     16  C   UNL     1       4.332   3.652  -1.713  0.00  0.00    +0.015 C 
ATOM     17  C   UNL     1       2.042   4.134  -0.837  0.00  0.00    +0.015 C 
ATOM     18  C   UNL     1       3.626   2.743   0.505  0.00  0.00    +0.015 C 
ENDBRANCH  12  15
ENDBRANCH   7   9
BRANCH   1  19
ATOM     19  C   UNL     1      -0.117  -2.381  -1.401  0.00  0.00    +0.339 C 
ATOM     20  O   UNL     1      -0.286  -3.152  -0.475  0.00  0.00    -0.245 OA
BRANCH  19  21
ATOM     21  O   UNL     1      -0.825  -1.233  -1.460  0.00  0.00    -0.462 OA
BRANCH  21  23
ATOM     22  C   UNL     1      -2.457   0.350  -0.640  0.00  0.00    +0.048 C 
ATOM     23  C   UNL     1      -1.754  -0.988  -0.402  0.00  0.00    +0.229 C 
ENDBRANCH  21  23
ENDBRANCH  19  21
ENDBRANCH   1  19
BRANCH   3  24
ATOM     24  C   UNL     1       2.968  -5.505  -3.424  0.00  0.00    +0.141 C 
BRANCH  24  25
ATOM     25  C   UNL     1       2.152  -6.459  -4.258  0.00  0.00    -0.015 C 
ATOM     26  C   UNL     1       2.726  -7.154  -5.209  0.00  0.00    +0.005 C 
ENDBRANCH  24  25
ENDBRANCH   3  24
BRANCH   2  27
ATOM     27  C   UNL     1       1.118  -4.921  -1.408  0.00  0.00    +0.136 C 
BRANCH  27  28
ATOM     28  N   UNL     1       2.154  -4.893  -0.366  0.00  0.00    -0.300 NA
ATOM     29  C   UNL     1       2.043  -3.678   0.454  0.00  0.00    +0.066 C 
ATOM     30  C   UNL     1       3.173  -3.658   1.486  0.00  0.00    -0.067 C 
ATOM     31  N   UNL     1       3.081  -4.852   2.335  0.00  0.00    +0.381 N 
ATOM     32  C   UNL     1       3.218  -6.057   1.506  0.00  0.00    -0.067 C 
ATOM     33  C   UNL     1       2.088  -6.097   0.474  0.00  0.00    +0.066 C 
ATOM     34  H   UNL     1       3.819  -4.833   3.024  0.00  0.00    -0.086 HD
ATOM     35  H   UNL     1       2.187  -4.865   2.802  0.00  0.00    -0.086 HD
ENDBRANCH  27  28
ENDBRANCH   2  27
TORSDOF 9
