REMARK  Name = ZINC39609462
REMARK  9 active torsions:
REMARK  status: ('A' for Active; 'I' for Inactive)
REMARK    1  A    between atoms: C_1  and  C_2
REMARK    2  A    between atoms: C_2  and  O_3
REMARK    3  A    between atoms: O_3  and  C_4
REMARK    4  A    between atoms: C_8  and  C_10
REMARK    5  A    between atoms: C_10  and  C_11
REMARK    6  A    between atoms: C_11  and  N_12
REMARK    7  A    between atoms: C_13  and  C_15
REMARK    8  A    between atoms: C_26  and  C_28
REMARK    9  A    between atoms: C_32  and  C_34
REMARK                            x       y       z     vdW  Elec       q    Type
REMARK                         _______ _______ _______ _____ _____    ______ ____
ROOT
ATOM      1  C   UNL     1      -8.035  -5.345   2.769  0.00  0.00    +0.100 C 
ATOM      2  C   UNL     1      -9.211  -4.617   2.081  0.00  0.00    +0.121 C 
ATOM      3  N   UNL     1     -10.388  -4.926   2.927  0.00  0.00    -0.296 N 
ATOM      4  C   UNL     1      -9.871  -4.863   4.315  0.00  0.00    +0.115 C 
ATOM      5  C   UNL     1      -8.471  -5.504   4.235  0.00  0.00    -0.004 C 
ATOM      6  C   UNL     1      -7.502  -4.770   5.157  0.00  0.00    -0.010 C 
ATOM      7  C   UNL     1      -7.924  -4.991   6.613  0.00  0.00    -0.082 C 
ATOM      8  N   UNL     1      -7.922  -6.428   6.912  0.00  0.00    +0.379 N 
ATOM      9  C   UNL     1      -8.923  -7.113   6.085  0.00  0.00    -0.082 C 
ATOM     10  C   UNL     1      -8.544  -6.981   4.607  0.00  0.00    -0.010 C 
ATOM     11  C   UNL     1     -11.645  -5.202   2.525  0.00  0.00    +0.247 C 
ATOM     12  O   UNL     1     -11.888  -5.343   1.343  0.00  0.00    -0.270 OA
ATOM     13  H   UNL     1      -7.009  -6.810   6.717  0.00  0.00    -0.086 HD
ATOM     14  H   UNL     1      -8.140  -6.568   7.887  0.00  0.00    -0.086 HD
ENDROOT
BRANCH  11  15
ATOM     15  C   UNL     1     -12.727  -5.332   3.522  0.00  0.00    +0.038 A 
ATOM     16  C   UNL     1     -12.584  -4.766   4.791  0.00  0.00    +0.016 A 
ATOM     17  C   UNL     1     -13.596  -4.890   5.717  0.00  0.00    +0.039 A 
ATOM     18  C   UNL     1     -14.756  -5.577   5.392  0.00  0.00    +0.135 A 
ATOM     19  C   UNL     1     -14.904  -6.141   4.134  0.00  0.00    +0.091 A 
ATOM     20  C   UNL     1     -13.900  -6.017   3.198  0.00  0.00    +0.028 A 
ATOM     21  F   UNL     1     -15.746  -5.697   6.304  0.00  0.00    -0.205 F 
BRANCH  19  22
ATOM     22  C   UNL     1     -16.168  -6.886   3.788  0.00  0.00    +0.420 C 
ATOM     23  F   UNL     1     -16.084  -7.360   2.474  0.00  0.00    -0.166 F 
ATOM     24  F   UNL     1     -16.328  -7.965   4.664  0.00  0.00    -0.166 F 
ATOM     25  F   UNL     1     -17.264  -6.024   3.903  0.00  0.00    -0.166 F 
ENDBRANCH  19  22
ENDBRANCH  11  15
BRANCH   1  27
ATOM     26  N   UNL     1      -5.575  -5.115   2.639  0.00  0.00    -0.315 N 
ATOM     27  C   UNL     1      -6.781  -4.513   2.682  0.00  0.00    +0.218 C 
ATOM     28  O   UNL     1      -6.856  -3.304   2.651  0.00  0.00    -0.275 OA
ATOM     29  H   UNL     1      -5.515  -6.082   2.664  0.00  0.00    +0.149 HD
BRANCH  26  30
ATOM     30  C   UNL     1      -4.356  -4.306   2.554  0.00  0.00    +0.109 C 
BRANCH  30  31
ATOM     31  C   UNL     1      -3.135  -5.228   2.520  0.00  0.00    +0.054 C 
BRANCH  31  36
ATOM     32  C   UNL     1      -0.212  -3.285   1.119  0.00  0.00    +0.121 A 
ATOM     33  C   UNL     1       0.423  -2.869   2.280  0.00  0.00    +0.045 A 
ATOM     34  C   UNL     1      -0.095  -3.218   3.512  0.00  0.00    +0.004 A 
ATOM     35  C   UNL     1      -1.246  -3.981   3.589  0.00  0.00    +0.004 A 
ATOM     36  C   UNL     1      -1.881  -4.396   2.433  0.00  0.00    -0.042 A 
ATOM     37  C   UNL     1      -1.370  -4.045   1.198  0.00  0.00    +0.049 A 
BRANCH  32  38
ATOM     38  O   UNL     1       0.295  -2.943  -0.095  0.00  0.00    -0.492 OA
BRANCH  38  40
ATOM     39  C   UNL     1       1.907  -1.875  -1.545  0.00  0.00    +0.048 C 
ATOM     40  C   UNL     1       1.490  -2.159  -0.100  0.00  0.00    +0.225 C 
ENDBRANCH  38  40
ENDBRANCH  32  38
ENDBRANCH  31  36
ENDBRANCH  30  31
ENDBRANCH  26  30
ENDBRANCH   1  27
TORSDOF 8
