REMARK  Name = ZINC18768161
REMARK  12 active torsions:
REMARK  status: ('A' for Active; 'I' for Inactive)
REMARK    1  A    between atoms: C_1  and  C_2
REMARK    2  A    between atoms: C_2  and  O_3
REMARK    3  A    between atoms: O_3  and  C_4
REMARK    4  A    between atoms: C_4  and  C_6
REMARK    5  A    between atoms: C_10  and  N_11
REMARK    6  A    between atoms: C_12  and  C_14
REMARK    7  A    between atoms: C_14  and  S_15
REMARK    8  A    between atoms: S_15  and  C_16
REMARK    9  A    between atoms: C_21  and  C_26
REMARK   10  A    between atoms: C_21  and  C_27
REMARK   11  A    between atoms: C_22  and  C_24
REMARK   12  A    between atoms: C_22  and  C_25
REMARK                            x       y       z     vdW  Elec       q    Type
REMARK                         _______ _______ _______ _____ _____    ______ ____
ROOT
ATOM      1  C   UNL     1      -4.010   0.963  -0.561  0.00  0.00    +0.091 A 
ATOM      2  C   UNL     1      -2.937   1.603   0.170  0.00  0.00    -0.024 A 
ATOM      3  C   UNL     1      -2.631   2.860  -0.224  0.00  0.00    -0.016 A 
ATOM      4  S   UNL     1      -3.739   3.191  -1.563  0.00  0.00    -0.079 S 
ATOM      5  C   UNL     1      -4.601   1.689  -1.591  0.00  0.00    +0.086 A 
ATOM      6  C   UNL     1      -1.581   3.746   0.364  0.00  0.00    -0.041 C 
ATOM      7  C   UNL     1      -0.730   1.580   1.268  0.00  0.00    -0.069 C 
ATOM      8  C   UNL     1      -2.142   0.984   1.312  0.00  0.00    +0.024 C 
ATOM      9  C   UNL     1      -0.013   1.086   0.008  0.00  0.00    -0.010 C 
ATOM     10  C   UNL     1       0.044   1.050   2.490  0.00  0.00    -0.010 C 
ATOM     11  C   UNL     1      -2.282   4.916   1.082  0.00  0.00    -0.005 C 
ATOM     12  C   UNL     1      -0.719   4.331  -0.763  0.00  0.00    -0.005 C 
ATOM     13  N   UNL     1      -0.713   3.062   1.365  0.00  0.00    +0.389 N 
ATOM     14  H   UNL     1      -1.033   3.327   2.304  0.00  0.00    -0.084 HD
ATOM     15  H   UNL     1       0.252   3.384   1.228  0.00  0.00    -0.084 HD
ENDROOT
BRANCH   5  16
ATOM     16  N   UNL     1      -5.632   1.302  -2.432  0.00  0.00    -0.279 N 
ATOM     17  C   UNL     1      -6.080   2.146  -3.382  0.00  0.00    +0.228 C 
ATOM     18  O   UNL     1      -5.581   3.245  -3.501  0.00  0.00    -0.275 OA
ATOM     19  H   UNL     1      -6.032   0.423  -2.338  0.00  0.00    +0.155 HD
BRANCH  17  20
ATOM     20  C   UNL     1      -7.201   1.726  -4.297  0.00  0.00    +0.172 C 
BRANCH  20  21
ATOM     21  S   UNL     1      -7.572   3.067  -5.454  0.00  0.00    -0.090 S 
BRANCH  21  22
ATOM     22  C   UNL     1      -8.878   2.325  -6.375  0.00  0.00    +0.126 C 
ATOM     23  N   UNL     1      -9.376   1.141  -6.207  0.00  0.00    -0.270 NA
ATOM     24  C   UNL     1     -10.453   0.638  -7.029  0.00  0.00    +0.154 C 
ATOM     25  C   UNL     1     -10.917   1.656  -8.094  0.00  0.00    +0.099 C 
ATOM     26  S   UNL     1      -9.788   3.053  -7.723  0.00  0.00    -0.098 S 
ENDBRANCH  21  22
ENDBRANCH  20  21
ENDBRANCH  17  20
ENDBRANCH   5  16
BRANCH   1  27
ATOM     27  C   UNL     1      -4.465  -0.391  -0.239  0.00  0.00    +0.342 C 
ATOM     28  O   UNL     1      -5.354  -0.557   0.575  0.00  0.00    -0.245 OA
BRANCH  27  29
ATOM     29  O   UNL     1      -3.899  -1.455  -0.845  0.00  0.00    -0.461 OA
BRANCH  29  31
ATOM     30  C   UNL     1      -3.643  -3.841  -1.262  0.00  0.00    +0.048 C 
ATOM     31  C   UNL     1      -4.400  -2.767  -0.477  0.00  0.00    +0.229 C 
ENDBRANCH  29  31
ENDBRANCH  27  29
ENDBRANCH   1  27
TORSDOF 7
