REMARK  Name = ZINC15045500
REMARK  7 active torsions:
REMARK  status: ('A' for Active; 'I' for Inactive)
REMARK    1  A    between atoms: C_1  and  C_2
REMARK    2  A    between atoms: C_2  and  C_4
REMARK    3  A    between atoms: C_2  and  N_52
REMARK    4  A    between atoms: N_6  and  C_7
REMARK    5  A    between atoms: C_16  and  C_19
REMARK    6  A    between atoms: N_21  and  C_22
REMARK    7  A    between atoms: C_27  and  O_28
REMARK                            x       y       z     vdW  Elec       q    Type
REMARK                         _______ _______ _______ _____ _____    ______ ____
ROOT
ATOM      1  C   UNL     1       2.372   0.489  -1.367  0.00  0.00    -0.077 C 
ATOM      2  C   UNL     1       3.675  -0.305  -1.255  0.00  0.00    -0.006 C 
ATOM      3  C   UNL     1       4.834   0.661  -0.995  0.00  0.00    +0.072 C 
ATOM      4  C   UNL     1       4.547   1.459   0.280  0.00  0.00    -0.006 C 
ATOM      5  C   UNL     1       3.218   2.202   0.123  0.00  0.00    -0.077 C 
ATOM      6  N   UNL     1       2.140   1.215  -0.100  0.00  0.00    +0.387 N 
ATOM      7  H   UNL     1       2.140   0.541   0.674  0.00  0.00    -0.081 HD
ENDROOT
BRANCH   3   8
ATOM      8  C   UNL     1       6.112  -0.120  -0.823  0.00  0.00    +0.220 C 
ATOM      9  O   UNL     1       6.732  -0.047   0.217  0.00  0.00    -0.275 OA
ATOM     10  N   UNL     1       6.564  -0.900  -1.824  0.00  0.00    -0.282 N 
ATOM     11  H   UNL     1       6.034  -1.013  -2.629  0.00  0.00    +0.155 HD
BRANCH  10  12
ATOM     12  C   UNL     1       7.800  -1.549  -1.703  0.00  0.00    +0.075 A 
ATOM     13  C   UNL     1       8.298  -1.869  -0.448  0.00  0.00    +0.027 A 
ATOM     14  C   UNL     1       9.517  -2.509  -0.332  0.00  0.00    +0.002 A 
ATOM     15  C   UNL     1      10.244  -2.832  -1.463  0.00  0.00    +0.004 A 
ATOM     16  C   UNL     1       9.754  -2.516  -2.717  0.00  0.00    +0.047 A 
ATOM     17  C   UNL     1       8.530  -1.879  -2.843  0.00  0.00    +0.138 A 
BRANCH  17  18
ATOM     18  O   UNL     1       8.044  -1.574  -4.075  0.00  0.00    -0.505 OA
ATOM     19  H   UNL     1       8.311  -0.702  -4.398  0.00  0.00    +0.292 HD
ENDBRANCH  17  18
ENDBRANCH  10  12
ENDBRANCH   3   8
BRANCH   6  21
ATOM     20  C   UNL     1      -0.259   0.868  -0.442  0.00  0.00    -0.004 C 
ATOM     21  C   UNL     1       0.831   1.898  -0.142  0.00  0.00    +0.016 C 
BRANCH  21  22
ATOM     22  C   UNL     1       0.569   2.530   1.201  0.00  0.00    +0.203 C 
ATOM     23  O   UNL     1       1.130   2.108   2.190  0.00  0.00    -0.277 OA
ATOM     24  N   UNL     1      -0.293   3.561   1.304  0.00  0.00    -0.285 N 
ATOM     25  H   UNL     1      -0.793   3.854   0.527  0.00  0.00    +0.155 HD
BRANCH  24  26
ATOM     26  C   UNL     1      -0.466   4.209   2.534  0.00  0.00    +0.069 A 
ATOM     27  C   UNL     1      -0.289   3.509   3.720  0.00  0.00    +0.026 A 
ATOM     28  C   UNL     1      -0.455   4.152   4.931  0.00  0.00    +0.002 A 
ATOM     29  C   UNL     1      -0.808   5.489   4.964  0.00  0.00    +0.003 A 
ATOM     30  C   UNL     1      -0.991   6.188   3.786  0.00  0.00    +0.040 A 
ATOM     31  C   UNL     1      -0.821   5.552   2.570  0.00  0.00    +0.144 A 
ATOM     32  F   UNL     1      -1.001   6.236   1.418  0.00  0.00    -0.204 F 
ENDBRANCH  24  26
ENDBRANCH  21  22
ENDBRANCH   6  21
TORSDOF 6
