REMARK  Name = ZINC12861940
REMARK  9 active torsions:
REMARK  status: ('A' for Active; 'I' for Inactive)
REMARK    1  A    between atoms: C_1  and  C_2
REMARK    2  A    between atoms: C_2  and  O_3
REMARK    3  A    between atoms: O_3  and  C_4
REMARK    4  A    between atoms: C_9  and  N_10
REMARK    5  A    between atoms: C_11  and  C_13
REMARK    6  A    between atoms: C_13  and  N_14
REMARK    7  A    between atoms: C_24  and  C_26
REMARK    8  A    between atoms: C_34  and  C_36
REMARK    9  A    between atoms: C_34  and  C_37
REMARK                            x       y       z     vdW  Elec       q    Type
REMARK                         _______ _______ _______ _____ _____    ______ ____
ROOT
ATOM      1  N   UNL     1       0.874   0.249   2.114  0.00  0.00    -0.305 N 
ATOM      2  C   UNL     1       0.582  -0.540   1.005  0.00  0.00    +0.052 A 
ATOM      3  C   UNL     1       0.768  -1.918   1.026  0.00  0.00    +0.025 A 
ATOM      4  C   UNL     1       0.353  -2.654  -0.074  0.00  0.00    +0.002 A 
ATOM      5  C   UNL     1      -0.228  -2.027  -1.161  0.00  0.00    +0.002 A 
ATOM      6  C   UNL     1      -0.389  -0.649  -1.174  0.00  0.00    +0.025 A 
ATOM      7  C   UNL     1       0.045   0.072  -0.070  0.00  0.00    +0.052 A 
ATOM      8  N   UNL     1      -0.044   1.469  -0.024  0.00  0.00    -0.316 N 
ATOM      9  C   UNL     1       1.094   2.219  -0.037  0.00  0.00    +0.017 C 
ATOM     10  C   UNL     1       2.075   2.018   0.879  0.00  0.00    +0.040 C 
ATOM     11  C   UNL     1       2.095   1.020   2.033  0.00  0.00    +0.175 C 
ATOM     12  C   UNL     1       3.250   2.802   0.803  0.00  0.00    +0.163 C 
ATOM     13  O   UNL     1       4.126   2.621   1.627  0.00  0.00    -0.292 OA
ATOM     14  C   UNL     1       3.461   3.845  -0.251  0.00  0.00    +0.086 C 
ATOM     15  C   UNL     1       2.673   3.456  -1.507  0.00  0.00    -0.023 C 
ATOM     16  C   UNL     1       1.209   3.281  -1.103  0.00  0.00    +0.058 C 
ATOM     17  C   UNL     1       3.216   2.142  -2.073  0.00  0.00    +0.011 C 
ATOM     18  C   UNL     1       2.793   4.562  -2.558  0.00  0.00    +0.011 C 
ATOM     19  H   UNL     1      -0.912   1.901   0.014  0.00  0.00    +0.152 HD
ENDROOT
BRANCH  11  20
ATOM     20  C   UNL     1       3.256   0.078   1.844  0.00  0.00    +0.130 A 
ATOM     21  C   UNL     1       4.427   0.130   2.505  0.00  0.00    +0.047 A 
ATOM     22  C   UNL     1       5.218  -0.936   2.019  0.00  0.00    +0.041 A 
ATOM     23  C   UNL     1       4.487  -1.571   1.085  0.00  0.00    +0.195 A 
ATOM     24  O   UNL     1       3.300  -0.952   0.983  0.00  0.00    -0.466 OA
ENDBRANCH  11  20
BRANCH   1  25
ATOM     25  C   UNL     1       0.831  -0.543   3.350  0.00  0.00    +0.202 C 
BRANCH  25  27
ATOM     26  N   UNL     1      -0.877  -1.684   4.727  0.00  0.00    -0.281 N 
ATOM     27  C   UNL     1      -0.578  -1.017   3.595  0.00  0.00    +0.235 C 
ATOM     28  O   UNL     1      -1.443  -0.799   2.773  0.00  0.00    -0.274 OA
ATOM     29  H   UNL     1      -0.172  -1.933   5.344  0.00  0.00    +0.155 HD
BRANCH  26  35
ATOM     30  C   UNL     1      -2.494  -3.093   5.851  0.00  0.00    +0.142 A 
ATOM     31  C   UNL     1      -3.812  -3.419   6.129  0.00  0.00    +0.047 A 
ATOM     32  C   UNL     1      -4.839  -2.677   5.576  0.00  0.00    +0.004 A 
ATOM     33  C   UNL     1      -4.556  -1.610   4.744  0.00  0.00    +0.002 A 
ATOM     34  C   UNL     1      -3.244  -1.275   4.466  0.00  0.00    +0.027 A 
ATOM     35  C   UNL     1      -2.208  -2.018   5.012  0.00  0.00    +0.076 A 
BRANCH  30  36
ATOM     36  O   UNL     1      -1.482  -3.821   6.394  0.00  0.00    -0.490 OA
BRANCH  36  38
ATOM     37  C   UNL     1      -0.588  -5.605   7.757  0.00  0.00    +0.048 C 
ATOM     38  C   UNL     1      -1.850  -4.910   7.244  0.00  0.00    +0.226 C 
ENDBRANCH  36  38
ENDBRANCH  30  36
ENDBRANCH  26  35
ENDBRANCH  25  27
ENDBRANCH   1  25
TORSDOF 6
