REMARK  Name = ZINC12786590
REMARK  9 active torsions:
REMARK  status: ('A' for Active; 'I' for Inactive)
REMARK    1  A    between atoms: C_1  and  C_2
REMARK    2  A    between atoms: C_2  and  C_4
REMARK    3  A    between atoms: C_2  and  N_19
REMARK    4  A    between atoms: C_9  and  C_14
REMARK    5  A    between atoms: N_19  and  C_20
REMARK    6  A    between atoms: C_20  and  C_22
REMARK    7  A    between atoms: C_20  and  C_28
REMARK    8  A    between atoms: C_28  and  C_29
REMARK    9  A    between atoms: C_28  and  C_30
REMARK                            x       y       z     vdW  Elec       q    Type
REMARK                         _______ _______ _______ _____ _____    ______ ____
ROOT
ATOM      1  C   UNL     1       0.656  -0.423   1.171  0.00  0.00    +0.129 A 
ATOM      2  N   UNL     1       1.552  -1.356   1.004  0.00  0.00    -0.194 NA
ATOM      3  C   UNL     1       2.217  -1.905   2.032  0.00  0.00    +0.282 A 
ATOM      4  O   UNL     1       3.049  -2.777   1.836  0.00  0.00    -0.265 OA
ATOM      5  C   UNL     1       1.927  -1.440   3.405  0.00  0.00    +0.082 A 
ATOM      6  C   UNL     1       2.503  -1.869   4.675  0.00  0.00    +0.039 A 
ATOM      7  C   UNL     1       2.067  -1.282   5.818  0.00  0.00    +0.059 A 
ATOM      8  S   UNL     1       0.849  -0.114   5.240  0.00  0.00    -0.078 S 
ATOM      9  C   UNL     1       0.956  -0.439   3.501  0.00  0.00    +0.092 A 
ATOM     10  N   UNL     1       0.344   0.054   2.393  0.00  0.00    -0.336 N 
ATOM     11  H   UNL     1      -0.324   0.752   2.481  0.00  0.00    +0.168 HD
ENDROOT
BRANCH   6  12
ATOM     12  C   UNL     1       3.540  -2.920   4.716  0.00  0.00    +0.136 A 
ATOM     13  C   UNL     1       4.728  -2.844   5.374  0.00  0.00    +0.050 A 
ATOM     14  C   UNL     1       5.398  -4.064   5.144  0.00  0.00    +0.042 A 
ATOM     15  C   UNL     1       4.595  -4.814   4.366  0.00  0.00    +0.196 A 
ATOM     16  O   UNL     1       3.470  -4.122   4.113  0.00  0.00    -0.463 OA
ENDBRANCH   6  12
BRANCH   1  18
ATOM     17  C   UNL     1       0.126   1.663  -0.062  0.00  0.00    +0.032 C 
ATOM     18  C   UNL     1      -0.046   0.143  -0.037  0.00  0.00    +0.118 C 
BRANCH  18  19
ATOM     19  N   UNL     1       0.534  -0.436  -1.256  0.00  0.00    -0.300 NA
ATOM     20  H   UNL     1       1.383   0.044  -1.516  0.00  0.00    +0.123 HD
BRANCH  19  21
ATOM     21  C   UNL     1      -0.436  -0.422  -2.359  0.00  0.00    +0.087 C 
BRANCH  21  22
ATOM     22  C   UNL     1      -1.328  -1.633  -2.259  0.00  0.00    -0.030 A 
ATOM     23  C   UNL     1      -0.795  -2.855  -1.894  0.00  0.00    +0.005 A 
ATOM     24  C   UNL     1      -1.612  -3.966  -1.802  0.00  0.00    +0.000 A 
ATOM     25  C   UNL     1      -2.963  -3.855  -2.075  0.00  0.00    +0.000 A 
ATOM     26  C   UNL     1      -3.496  -2.633  -2.440  0.00  0.00    +0.000 A 
ATOM     27  C   UNL     1      -2.679  -1.521  -2.527  0.00  0.00    +0.005 A 
ENDBRANCH  21  22
BRANCH  21  28
ATOM     28  C   UNL     1       0.309  -0.447  -3.695  0.00  0.00    +0.004 C 
ATOM     29  C   UNL     1      -0.700  -0.546  -4.840  0.00  0.00    +0.009 C 
ATOM     30  C   UNL     1       1.127   0.838  -3.846  0.00  0.00    +0.009 C 
ENDBRANCH  21  28
ENDBRANCH  19  21
ENDBRANCH  18  19
ENDBRANCH   1  18
TORSDOF 6
