REMARK  Name = ZINC09808344
REMARK  10 active torsions:
REMARK  status: ('A' for Active; 'I' for Inactive)
REMARK    1  A    between atoms: C_1  and  C_2
REMARK    2  A    between atoms: C_2  and  O_3
REMARK    3  A    between atoms: O_3  and  C_4
REMARK    4  A    between atoms: C_4  and  C_6
REMARK    5  A    between atoms: C_11  and  C_13
REMARK    6  A    between atoms: C_11  and  C_22
REMARK    7  A    between atoms: C_11  and  N_58
REMARK    8  A    between atoms: C_16  and  N_19
REMARK    9  A    between atoms: C_23  and  O_35
REMARK   10  A    between atoms: C_28  and  C_30
REMARK                            x       y       z     vdW  Elec       q    Type
REMARK                         _______ _______ _______ _____ _____    ______ ____
ROOT
ATOM      1  C   UNL     1      -8.386   0.319   0.039  0.00  0.00    +0.005 C 
ENDROOT
BRANCH   1   2
ATOM      2  C   UNL     1      -6.880   0.264   0.093  0.00  0.00    +0.045 A 
ATOM      3  C   UNL     1      -6.002   1.271   0.160  0.00  0.00    +0.225 A 
ATOM      4  N   UNL     1      -4.651   1.022   0.202  0.00  0.00    -0.173 N 
ATOM      5  C   UNL     1      -4.258  -0.288   0.171  0.00  0.00    +0.199 A 
ATOM      6  S   UNL     1      -5.804  -1.161   0.083  0.00  0.00    -0.050 S 
ATOM      7  N   UNL     1      -2.957  -0.359   0.211  0.00  0.00    -0.197 NA
ATOM      8  C   UNL     1      -2.449   0.879   0.279  0.00  0.00    +0.218 A 
ATOM      9  N   UNL     1      -3.435   1.750   0.273  0.00  0.00    -0.138 NA
BRANCH   8  10
ATOM     10  C   UNL     1      -1.011   1.213   0.344  0.00  0.00    +0.173 A 
ATOM     11  C   UNL     1       0.016   0.322   0.351  0.00  0.00    +0.053 A 
ATOM     12  C   UNL     1       1.206   1.074   0.416  0.00  0.00    +0.042 A 
ATOM     13  C   UNL     1       0.851   2.373   0.450  0.00  0.00    +0.196 A 
ATOM     14  O   UNL     1      -0.489   2.454   0.410  0.00  0.00    -0.460 OA
ENDBRANCH   8  10
BRANCH   3  15
ATOM     15  O   UNL     1      -6.450   2.555   0.188  0.00  0.00    -0.492 OA
ATOM     16  H   UNL     1      -6.547   2.957  -0.686  0.00  0.00    +0.294 HD
ENDBRANCH   3  15
ENDBRANCH   1   2
BRANCH   1  22
ATOM     17  C   UNL     1     -10.212  -1.345  -3.450  0.00  0.00    +0.094 C 
ATOM     18  C   UNL     1     -10.813  -1.637  -2.072  0.00  0.00    -0.004 C 
ATOM     19  C   UNL     1     -10.338  -0.574  -1.079  0.00  0.00    -0.077 C 
ATOM     20  C   UNL     1      -8.272  -0.267  -2.307  0.00  0.00    -0.077 C 
ATOM     21  C   UNL     1      -8.685  -1.320  -3.337  0.00  0.00    -0.004 C 
ATOM     22  N   UNL     1      -8.863  -0.619  -0.998  0.00  0.00    +0.387 N 
ATOM     23  H   UNL     1      -8.571  -1.571  -0.746  0.00  0.00    -0.080 HD
BRANCH  17  24
ATOM     24  C   UNL     1     -10.630  -2.420  -4.420  0.00  0.00    +0.310 C 
ATOM     25  O   UNL     1     -11.336  -3.328  -4.048  0.00  0.00    -0.251 OA
BRANCH  24  26
ATOM     26  O   UNL     1     -10.217  -2.370  -5.696  0.00  0.00    -0.465 OA
BRANCH  26  28
ATOM     27  C   UNL     1     -10.092  -3.213  -7.977  0.00  0.00    +0.048 C 
ATOM     28  C   UNL     1     -10.658  -3.439  -6.574  0.00  0.00    +0.229 C 
ENDBRANCH  26  28
ENDBRANCH  24  26
ENDBRANCH  17  24
ENDBRANCH   1  22
BRANCH   1  29
ATOM     29  C   UNL     1      -8.951  -0.099   1.372  0.00  0.00    -0.056 A 
ATOM     30  C   UNL     1      -8.937  -1.431   1.742  0.00  0.00    +0.004 A 
ATOM     31  C   UNL     1      -9.451  -1.813   2.967  0.00  0.00    +0.033 A 
ATOM     32  C   UNL     1      -9.989  -0.866   3.817  0.00  0.00    +0.126 A 
ATOM     33  C   UNL     1     -10.009   0.465   3.445  0.00  0.00    +0.033 A 
ATOM     34  C   UNL     1      -9.490   0.849   2.222  0.00  0.00    +0.004 A 
BRANCH  32  35
ATOM     35  N   UNL     1     -10.545  -1.276   5.126  0.00  0.00    +0.056 N 
ATOM     36  O   UNL     1     -11.019  -0.441   5.875  0.00  0.00    -0.126 OA
ATOM     37  O   UNL     1     -10.527  -2.449   5.455  0.00  0.00    -0.126 OA
ENDBRANCH  32  35
ENDBRANCH   1  29
TORSDOF 9
