REMARK  Name = ZINC35111927
REMARK  15 active torsions:
REMARK  status: ('A' for Active; 'I' for Inactive)
REMARK    1  A    between atoms: C_1  and  C_2
REMARK    2  A    between atoms: C_2  and  C_4
REMARK    3  A    between atoms: C_2  and  C_12
REMARK    4  A    between atoms: C_5  and  C_6
REMARK    5  A    between atoms: C_6  and  C_8
REMARK    6  A    between atoms: C_6  and  C_9
REMARK    7  A    between atoms: C_9  and  C_10
REMARK    8  A    between atoms: C_9  and  C_11
REMARK    9  A    between atoms: C_18  and  C_39
REMARK   10  A    between atoms: C_22  and  O_38
REMARK   11  A    between atoms: C_25  and  O_37
REMARK   12  A    between atoms: C_26  and  C_36
REMARK   13  A    between atoms: C_29  and  O_32
REMARK   14  A    between atoms: O_32  and  C_33
REMARK   15  A    between atoms: C_33  and  C_35
REMARK                            x       y       z     vdW  Elec       q    Type
REMARK                         _______ _______ _______ _____ _____    ______ ____
ROOT
ATOM      1  C   UNL     1       0.836  -0.745  -0.817  0.00  0.00    +0.002 C 
ATOM      2  C   UNL     1       0.053  -0.078  -1.980  0.00  0.00    +0.005 C 
ATOM      3  C   UNL     1      -0.463  -1.240  -2.880  0.00  0.00    +0.007 C 
ATOM      4  C   UNL     1      -0.535  -2.398  -1.877  0.00  0.00    +0.031 C 
ATOM      5  C   UNL     1       0.805  -2.241  -1.128  0.00  0.00    -0.020 C 
ATOM      6  C   UNL     1       0.764  -3.203   0.046  0.00  0.00    +0.034 C 
ATOM      7  C   UNL     1       0.716  -4.582  -0.584  0.00  0.00    -0.024 C 
ATOM      8  C   UNL     1       0.056  -4.821  -1.689  0.00  0.00    -0.033 C 
ATOM      9  C   UNL     1      -0.747  -3.781  -2.423  0.00  0.00    +0.091 C 
ATOM     10  C   UNL     1      -0.498  -3.857  -3.920  0.00  0.00    +0.042 C 
ATOM     11  C   UNL     1      -0.532  -5.270  -4.484  0.00  0.00    +0.039 C 
ATOM     12  C   UNL     1      -0.819  -6.341  -3.449  0.00  0.00    +0.079 C 
ATOM     13  C   UNL     1       0.124  -6.226  -2.253  0.00  0.00    +0.021 C 
ATOM     14  C   UNL     1      -0.305  -7.242  -1.194  0.00  0.00    +0.017 C 
ATOM     15  C   UNL     1      -0.244  -8.658  -1.762  0.00  0.00    +0.046 C 
ATOM     16  C   UNL     1      -1.076  -8.785  -3.035  0.00  0.00    +0.179 C 
ATOM     17  C   UNL     1      -0.660  -7.738  -4.070  0.00  0.00    +0.080 C 
ATOM     18  C   UNL     1       1.577  -6.505  -2.672  0.00  0.00    +0.019 C 
ATOM     19  C   UNL     1       2.001  -2.576  -2.027  0.00  0.00    +0.012 C 
ENDROOT
BRANCH   1  21
ATOM     20  C   UNL     1       0.190   1.079   0.758  0.00  0.00    +0.012 C 
ATOM     21  C   UNL     1       0.169  -0.432   0.519  0.00  0.00    +0.012 C 
BRANCH  21  22
ATOM     22  C   UNL     1       0.916  -1.127   1.628  0.00  0.00    -0.027 C 
ATOM     23  C   UNL     1       0.300  -2.001   2.385  0.00  0.00    -0.027 C 
BRANCH  23  24
ATOM     24  C   UNL     1       1.048  -2.695   3.494  0.00  0.00    +0.011 C 
ATOM     25  C   UNL     1       1.027  -4.206   3.255  0.00  0.00    +0.012 C 
BRANCH  24  26
ATOM     26  C   UNL     1       0.379  -2.382   4.834  0.00  0.00    -0.011 C 
ATOM     27  C   UNL     1       1.138  -3.087   5.960  0.00  0.00    +0.008 C 
ATOM     28  C   UNL     1       0.400  -0.871   5.074  0.00  0.00    +0.008 C 
ENDBRANCH  24  26
ENDBRANCH  23  24
ENDBRANCH  21  22
ENDBRANCH   1  21
BRANCH  12  29
ATOM     29  O   UNL     1      -2.182  -6.251  -3.018  0.00  0.00    -0.388 OA
ATOM     30  H   UNL     1      -2.828  -6.366  -3.729  0.00  0.00    +0.210 HD
ENDBRANCH  12  29
BRANCH   9  31
ATOM     31  O   UNL     1      -2.143  -4.045  -2.192  0.00  0.00    -0.384 OA
ATOM     32  H   UNL     1      -2.739  -3.459  -2.677  0.00  0.00    +0.211 HD
ENDBRANCH   9  31
BRANCH  16  33
ATOM     33  O   UNL     1      -0.892 -10.092  -3.590  0.00  0.00    -0.461 OA
BRANCH  33  34
ATOM     34  C   UNL     1      -1.738 -11.052  -3.182  0.00  0.00    +0.304 C 
ATOM     35  O   UNL     1      -2.605 -10.792  -2.382  0.00  0.00    -0.251 OA
ATOM     36  C   UNL     1      -1.605 -12.452  -3.722  0.00  0.00    +0.136 C 
ENDBRANCH  33  34
ENDBRANCH  16  33
TORSDOF 8
