REMARK  Name = ZINC22025637
REMARK  11 active torsions:
REMARK  status: ('A' for Active; 'I' for Inactive)
REMARK    1  A    between atoms: C_1  and  C_2
REMARK    2  A    between atoms: C_2  and  N_3
REMARK    3  A    between atoms: N_3  and  C_4
REMARK    4  A    between atoms: N_3  and  C_6
REMARK    5  A    between atoms: C_4  and  C_5
REMARK    6  A    between atoms: C_9  and  C_12
REMARK    7  A    between atoms: C_15  and  S_17
REMARK    8  A    between atoms: S_17  and  C_18
REMARK    9  A    between atoms: C_18  and  C_20
REMARK   10  A    between atoms: C_18  and  C_21
REMARK   11  A    between atoms: N_26  and  C_27
REMARK                            x       y       z     vdW  Elec       q    Type
REMARK                         _______ _______ _______ _____ _____    ______ ____
ROOT
ATOM      1  C   UNL     1       1.317  -0.740  -0.015  0.00  0.00    +0.139 C 
ATOM      2  C   UNL     1       1.837  -0.887   1.417  0.00  0.00    +0.029 C 
ENDROOT
BRANCH   1   3
ATOM      3  C   UNL     1       0.002  -0.004   0.002  0.00  0.00    +0.234 C 
ATOM      4  O   UNL     1      -1.040  -0.625   0.009  0.00  0.00    -0.274 OA
ATOM      5  N   UNL     1      -0.016   1.344   0.009  0.00  0.00    -0.239 N 
ATOM      6  C   UNL     1      -1.192   2.002   0.019  0.00  0.00    +0.306 C 
ATOM      7  O   UNL     1      -2.237   1.380   0.020  0.00  0.00    -0.252 OA
ATOM      8  N   UNL     1      -1.211   3.349   0.026  0.00  0.00    -0.294 N 
ATOM      9  H   UNL     1       0.929   1.907   0.008  0.00  0.00    +0.159 HD
ATOM     10  H   UNL     1      -0.266   3.912   0.025  0.00  0.00    +0.151 HD
BRANCH   8  11
ATOM     11  C   UNL     1      -2.489   4.064   0.036  0.00  0.00    +0.037 C 
ATOM     12  C   UNL     1      -3.292   3.691  -1.212  0.00  0.00    +0.029 C 
ATOM     13  C   UNL     1      -4.628   4.438  -1.201  0.00  0.00    -0.008 C 
ATOM     14  C   UNL     1      -4.369   5.945  -1.194  0.00  0.00    +0.007 C 
ATOM     15  C   UNL     1      -3.565   6.319   0.053  0.00  0.00    -0.008 C 
ATOM     16  C   UNL     1      -2.230   5.572   0.043  0.00  0.00    +0.029 C 
ATOM     17  C   UNL     1      -4.357   5.932   1.304  0.00  0.00    +0.007 C 
ATOM     18  C   UNL     1      -4.616   4.424   1.297  0.00  0.00    -0.008 C 
ATOM     19  C   UNL     1      -5.419   4.050   0.050  0.00  0.00    +0.007 C 
ATOM     20  C   UNL     1      -3.280   3.677   1.287  0.00  0.00    +0.029 C 
ENDBRANCH   8  11
ENDBRANCH   1   3
BRANCH   1  21
ATOM     21  S   UNL     1       1.082  -2.380  -0.742  0.00  0.00    -0.053 S 
BRANCH  21  25
ATOM     22  C   UNL     1       4.524  -4.141  -1.069  0.00  0.00    +0.249 A 
ATOM     23  N   UNL     1       4.859  -2.990  -0.537  0.00  0.00    -0.106 NA
ATOM     24  N   UNL     1       3.804  -2.276  -0.363  0.00  0.00    -0.101 NA
ATOM     25  C   UNL     1       2.752  -2.942  -0.777  0.00  0.00    +0.278 A 
ATOM     26  O   UNL     1       3.181  -4.137  -1.227  0.00  0.00    -0.411 OA
BRANCH  22  30
ATOM     27  C   UNL     1       7.167  -7.307  -2.090  0.00  0.00    +0.030 A 
ATOM     28  C   UNL     1       7.669  -6.137  -1.530  0.00  0.00    +0.024 A 
ATOM     29  C   UNL     1       6.814  -5.108  -1.198  0.00  0.00    +0.015 A 
ATOM     30  C   UNL     1       5.442  -5.241  -1.424  0.00  0.00    +0.039 A 
ATOM     31  C   UNL     1       4.941  -6.420  -1.982  0.00  0.00    +0.015 A 
ATOM     32  C   UNL     1       5.801  -7.442  -2.317  0.00  0.00    +0.024 A 
BRANCH  27  33
ATOM     33  N   UNL     1       8.035  -8.346  -2.425  0.00  0.00    -0.330 N 
BRANCH  33  35
ATOM     34  C   UNL     1       7.487  -9.447  -4.540  0.00  0.00    +0.024 C 
ATOM     35  C   UNL     1       7.507  -9.579  -3.016  0.00  0.00    +0.102 C 
ENDBRANCH  33  35
BRANCH  33  36
ATOM     36  C   UNL     1       9.473  -8.205  -2.187  0.00  0.00    +0.102 C 
ATOM     37  C   UNL     1       9.811  -8.717  -0.786  0.00  0.00    +0.024 C 
ENDBRANCH  33  36
ENDBRANCH  27  33
ENDBRANCH  22  30
ENDBRANCH  21  25
ENDBRANCH   1  21
TORSDOF 8
