REMARK  Name = ZINC09471959
REMARK  14 active torsions:
REMARK  status: ('A' for Active; 'I' for Inactive)
REMARK    1  A    between atoms: C_1  and  C_2
REMARK    2  A    between atoms: C_2  and  C_3
REMARK    3  A    between atoms: C_3  and  C_5
REMARK    4  A    between atoms: C_3  and  S_13
REMARK    5  A    between atoms: N_7  and  C_8
REMARK    6  A    between atoms: C_8  and  C_9
REMARK    7  A    between atoms: C_9  and  C_10
REMARK    8  A    between atoms: C_10  and  O_11
REMARK    9  A    between atoms: O_11  and  C_12
REMARK   10  A    between atoms: S_13  and  C_14
REMARK   11  A    between atoms: C_24  and  C_29
REMARK   12  A    between atoms: C_29  and  C_30
REMARK   13  A    between atoms: C_30  and  C_31
REMARK   14  A    between atoms: N_33  and  C_34
REMARK                            x       y       z     vdW  Elec       q    Type
REMARK                         _______ _______ _______ _____ _____    ______ ____
ROOT
ATOM      1  C   UNL     1       2.362   1.344   0.065  0.00  0.00    +0.170 C 
ATOM      2  N   UNL     1       2.403   0.043  -0.037  0.00  0.00    -0.225 NA
ATOM      3  C   UNL     1       1.279  -0.715  -0.076  0.00  0.00    +0.077 A 
ATOM      4  C   UNL     1       1.344  -2.106  -0.186  0.00  0.00    +0.028 A 
ATOM      5  C   UNL     1       0.181  -2.843  -0.224  0.00  0.00    +0.002 A 
ATOM      6  C   UNL     1      -1.057  -2.221  -0.155  0.00  0.00    +0.001 A 
ATOM      7  C   UNL     1      -1.146  -0.849  -0.046  0.00  0.00    +0.013 A 
ATOM      8  C   UNL     1       0.018  -0.087  -0.006  0.00  0.00    +0.041 A 
ATOM      9  C   UNL     1      -0.027   1.386   0.110  0.00  0.00    +0.139 C 
ATOM     10  N   UNL     1      -1.046   2.197   0.185  0.00  0.00    -0.255 NA
ATOM     11  C   UNL     1      -0.524   3.567   0.287  0.00  0.00    +0.194 C 
ATOM     12  C   UNL     1       0.979   3.390   0.248  0.00  0.00    +0.251 C 
ATOM     13  O   UNL     1       1.821   4.260   0.302  0.00  0.00    -0.272 OA
ATOM     14  N   UNL     1       1.183   2.057   0.141  0.00  0.00    -0.200 N 
ENDROOT
BRANCH   1  15
ATOM     15  S   UNL     1       3.884   2.232   0.107  0.00  0.00    -0.077 S 
BRANCH  15  16
ATOM     16  C   UNL     1       5.053   0.850   0.115  0.00  0.00    +0.139 C 
BRANCH  16  17
ATOM     17  C   UNL     1       5.014   0.152  -1.221  0.00  0.00    +0.226 C 
ATOM     18  O   UNL     1       4.657   0.756  -2.210  0.00  0.00    -0.275 OA
ATOM     19  N   UNL     1       5.377  -1.142  -1.315  0.00  0.00    -0.314 N 
ATOM     20  H   UNL     1       5.662  -1.625  -0.524  0.00  0.00    +0.149 HD
BRANCH  19  21
ATOM     21  C   UNL     1       5.339  -1.821  -2.613  0.00  0.00    +0.106 C 
BRANCH  21  22
ATOM     22  C   UNL     1       5.795  -3.271  -2.444  0.00  0.00    +0.047 C 
BRANCH  22  23
ATOM     23  C   UNL     1       5.756  -3.979  -3.800  0.00  0.00    +0.161 C 
BRANCH  23  24
ATOM     24  O   UNL     1       6.182  -5.334  -3.642  0.00  0.00    -0.383 OA
ATOM     25  C   UNL     1       6.182  -6.089  -4.856  0.00  0.00    +0.193 C 
ENDBRANCH  23  24
ENDBRANCH  22  23
ENDBRANCH  21  22
ENDBRANCH  19  21
ENDBRANCH  16  17
BRANCH  16  27
ATOM     26  C   UNL     1       6.541   1.962   1.785  0.00  0.00    +0.005 C 
ATOM     27  C   UNL     1       6.465   1.378   0.373  0.00  0.00    +0.020 C 
ENDBRANCH  16  27
ENDBRANCH  15  16
ENDBRANCH   1  15
BRANCH  11  28
ATOM     28  C   UNL     1      -0.955   4.212   1.606  0.00  0.00    +0.045 C 
BRANCH  28  29
ATOM     29  C   UNL     1      -2.458   4.493   1.569  0.00  0.00    +0.098 C 
BRANCH  29  30
ATOM     30  C   UNL     1      -2.882   5.128   2.868  0.00  0.00    +0.213 C 
ATOM     31  O   UNL     1      -2.062   5.336   3.738  0.00  0.00    -0.276 OA
ATOM     32  N   UNL     1      -4.172   5.466   3.064  0.00  0.00    -0.312 N 
ATOM     33  H   UNL     1      -4.828   5.300   2.369  0.00  0.00    +0.149 HD
BRANCH  32  34
ATOM     34  C   UNL     1      -4.584   6.084   4.327  0.00  0.00    +0.073 C 
ATOM     35  C   UNL     1      -4.866   4.992   5.361  0.00  0.00    +0.022 C 
ATOM     36  C   UNL     1      -5.296   5.637   6.680  0.00  0.00    +0.002 C 
ATOM     37  C   UNL     1      -6.563   6.464   6.453  0.00  0.00    +0.000 C 
ATOM     38  C   UNL     1      -6.282   7.556   5.420  0.00  0.00    +0.002 C 
ATOM     39  C   UNL     1      -5.851   6.910   4.101  0.00  0.00    +0.022 C 
ENDBRANCH  32  34
ENDBRANCH  29  30
ENDBRANCH  28  29
ENDBRANCH  11  28
TORSDOF 12
