REMARK  Name = ZINC08746792
REMARK  7 active torsions:
REMARK  status: ('A' for Active; 'I' for Inactive)
REMARK    1  A    between atoms: C_1  and  C_2
REMARK    2  A    between atoms: C_11  and  N_32
REMARK    3  A    between atoms: C_13  and  C_15
REMARK    4  A    between atoms: C_15  and  C_16
REMARK    5  A    between atoms: C_16  and  N_61
REMARK    6  A    between atoms: N_19  and  S_22
REMARK    7  A    between atoms: S_22  and  C_25
REMARK                            x       y       z     vdW  Elec       q    Type
REMARK                         _______ _______ _______ _____ _____    ______ ____
ROOT
ATOM      1  C   UNL     1      -1.023  -0.556   0.206  0.00  0.00    +0.058 C 
ENDROOT
BRANCH   1  13
ATOM      2  C   UNL     1      -2.213 -10.394   1.336  0.00  0.00    +0.008 C 
ATOM      3  C   UNL     1      -2.357  -8.902   1.027  0.00  0.00    -0.009 C 
ATOM      4  C   UNL     1      -1.613  -8.572  -0.271  0.00  0.00    +0.008 C 
ATOM      5  C   UNL     1      -1.954  -7.150  -0.717  0.00  0.00    +0.037 C 
ATOM      6  C   UNL     1      -1.702  -6.195   0.447  0.00  0.00    -0.025 A 
ATOM      7  C   UNL     1      -1.617  -6.657   1.711  0.00  0.00    -0.004 A 
ATOM      8  S   UNL     1      -1.323  -5.222   2.709  0.00  0.00    -0.073 S 
ATOM      9  C   UNL     1      -1.316  -3.999   1.424  0.00  0.00    +0.114 A 
ATOM     10  C   UNL     1      -1.543  -4.753   0.255  0.00  0.00    +0.051 A 
ATOM     11  C   UNL     1      -1.586  -4.005  -0.955  0.00  0.00    +0.128 A 
ATOM     12  N   UNL     1      -1.421  -2.693  -0.907  0.00  0.00    -0.217 NA
ATOM     13  C   UNL     1      -1.208  -2.052   0.228  0.00  0.00    +0.131 A 
ATOM     14  N   UNL     1      -1.157  -2.691   1.381  0.00  0.00    -0.225 NA
ATOM     15  C   UNL     1      -1.744  -8.078   2.168  0.00  0.00    +0.046 C 
BRANCH  11  16
ATOM     16  N   UNL     1      -1.801  -4.641  -2.164  0.00  0.00    -0.343 N 
ATOM     17  H   UNL     1      -2.152  -5.545  -2.181  0.00  0.00    +0.144 HD
ATOM     18  H   UNL     1      -1.601  -4.183  -2.995  0.00  0.00    +0.144 HD
ENDBRANCH  11  16
ENDBRANCH   1  13
BRANCH   1  19
ATOM     19  C   UNL     1       0.462  -0.228   0.038  0.00  0.00    -0.071 C 
BRANCH  19  25
ATOM     20  C   UNL     1       0.009   1.821  -1.171  0.00  0.00    -0.061 C 
ATOM     21  C   UNL     1       0.059   3.349  -1.065  0.00  0.00    +0.091 C 
ATOM     22  N   UNL     1       1.454   3.755  -0.837  0.00  0.00    -0.180 NA
ATOM     23  C   UNL     1       2.199   3.105   0.252  0.00  0.00    +0.091 C 
ATOM     24  C   UNL     1       2.064   1.586   0.095  0.00  0.00    -0.061 C 
ATOM     25  N   UNL     1       0.627   1.241   0.041  0.00  0.00    +0.382 N 
ATOM     26  H   UNL     1       0.161   1.627   0.870  0.00  0.00    -0.082 HD
BRANCH  22  27
ATOM     27  S   UNL     1       2.168   4.914  -1.780  0.00  0.00    +0.063 S 
ATOM     28  O   UNL     1       1.116   5.709  -2.312  0.00  0.00    -0.153 OA
ATOM     29  O   UNL     1       3.227   5.468  -1.012  0.00  0.00    -0.153 OA
BRANCH  27  30
ATOM     30  C   UNL     1       2.914   4.088  -3.146  0.00  0.00    +0.140 A 
ATOM     31  C   UNL     1       2.445   4.308  -4.427  0.00  0.00    +0.031 A 
ATOM     32  C   UNL     1       3.034   3.664  -5.499  0.00  0.00    +0.002 A 
ATOM     33  C   UNL     1       4.085   2.790  -5.290  0.00  0.00    +0.003 A 
ATOM     34  C   UNL     1       4.551   2.564  -4.009  0.00  0.00    +0.040 A 
ATOM     35  C   UNL     1       3.966   3.213  -2.935  0.00  0.00    +0.150 A 
ATOM     36  F   UNL     1       4.421   2.992  -1.682  0.00  0.00    -0.203 F 
ENDBRANCH  27  30
ENDBRANCH  22  27
ENDBRANCH  19  25
ENDBRANCH   1  19
TORSDOF 6
