REMARK  Name = ZINC01899948
REMARK  8 active torsions:
REMARK  status: ('A' for Active; 'I' for Inactive)
REMARK    1  A    between atoms: C_1  and  C_2
REMARK    2  A    between atoms: C_2  and  C_3
REMARK    3  A    between atoms: C_6  and  N_9
REMARK    4  A    between atoms: N_9  and  C_10
REMARK    5  A    between atoms: C_11  and  C_12
REMARK    6  A    between atoms: C_11  and  C_14
REMARK    7  A    between atoms: C_16  and  C_19
REMARK    8  A    between atoms: C_23  and  N_30
REMARK                            x       y       z     vdW  Elec       q    Type
REMARK                         _______ _______ _______ _____ _____    ______ ____
ROOT
ATOM      1  C   UNL     1      -3.786   3.598   7.122  0.00  0.00    +0.120 A 
ATOM      2  N   UNL     1      -4.376   3.762   8.311  0.00  0.00    -0.238 NA
ATOM      3  C   UNL     1      -5.236   2.892   8.756  0.00  0.00    +0.086 A 
ATOM      4  C   UNL     1      -5.519   1.730   7.884  0.00  0.00    +0.075 A 
ATOM      5  S   UNL     1      -4.491   2.071   6.525  0.00  0.00    -0.074 S 
ENDROOT
BRANCH   3   6
ATOM      6  C   UNL     1      -5.893   3.056  10.056  0.00  0.00    +0.086 A 
ATOM      7  C   UNL     1      -5.611   4.159  10.862  0.00  0.00    +0.028 A 
ATOM      8  C   UNL     1      -6.268   4.274  12.107  0.00  0.00    +0.020 A 
ATOM      9  C   UNL     1      -6.007   5.374  12.944  0.00  0.00    +0.044 A 
ATOM     10  C   UNL     1      -6.647   5.481  14.144  0.00  0.00    +0.127 A 
ATOM     11  C   UNL     1      -7.555   4.510  14.547  0.00  0.00    +0.036 A 
ATOM     12  C   UNL     1      -7.826   3.422  13.743  0.00  0.00    +0.049 A 
ATOM     13  C   UNL     1      -7.189   3.288  12.515  0.00  0.00    +0.139 A 
ATOM     14  O   UNL     1      -7.459   2.223  11.732  0.00  0.00    -0.422 OA
ATOM     15  C   UNL     1      -6.868   2.062  10.536  0.00  0.00    +0.347 A 
ATOM     16  O   UNL     1      -7.135   1.093   9.851  0.00  0.00    -0.244 OA
BRANCH  10  17
ATOM     17  N   UNL     1      -6.371   6.639  15.023  0.00  0.00    +0.056 N 
ATOM     18  O   UNL     1      -6.986   6.747  16.182  0.00  0.00    -0.126 OA
ATOM     19  O   UNL     1      -5.512   7.563  14.645  0.00  0.00    -0.126 OA
ENDBRANCH  10  17
ENDBRANCH   3   6
BRANCH   1  21
ATOM     20  C   UNL     1      -2.228   4.013   5.296  0.00  0.00    +0.093 C 
ATOM     21  C   UNL     1      -2.846   4.428   6.493  0.00  0.00    +0.098 C 
BRANCH  20  22
ATOM     22  N   UNL     1      -2.407   2.768   4.849  0.00  0.00    -0.319 N 
ATOM     23  H   UNL     1      -2.969   2.042   5.455  0.00  0.00    +0.152 HD
BRANCH  22  27
ATOM     24  C   UNL     1      -0.839   1.634   1.167  0.00  0.00    -0.048 A 
ATOM     25  C   UNL     1      -0.728   2.947   1.589  0.00  0.00    +0.005 A 
ATOM     26  C   UNL     1      -1.251   3.329   2.808  0.00  0.00    +0.023 A 
ATOM     27  C   UNL     1      -1.882   2.389   3.617  0.00  0.00    +0.031 A 
ATOM     28  C   UNL     1      -1.988   1.068   3.191  0.00  0.00    +0.023 A 
ATOM     29  C   UNL     1      -1.466   0.696   1.968  0.00  0.00    +0.005 A 
BRANCH  24  31
ATOM     30  C   UNL     1      -1.340   1.388  -1.249  0.00  0.00    +0.009 C 
ATOM     31  C   UNL     1      -0.271   1.223  -0.167  0.00  0.00    +0.032 C 
ENDBRANCH  24  31
ENDBRANCH  22  27
ENDBRANCH  20  22
BRANCH  21  32
ATOM     32  C   UNL     1      -2.513   5.697   7.068  0.00  0.00    +0.103 C 
ATOM     33  N   UNL     1      -2.250   6.704   7.524  0.00  0.00    -0.191 NA
ENDBRANCH  21  32
ENDBRANCH   1  21
TORSDOF 7
