REMARK  Name = ZINC09669972
REMARK  4 active torsions:
REMARK  status: ('A' for Active; 'I' for Inactive)
REMARK    1  A    between atoms: C_6  and  C_7
REMARK    2  A    between atoms: C_16  and  C_18
REMARK    3  A    between atoms: C_18  and  N_58
REMARK    4  A    between atoms: C_22  and  C_24
REMARK                            x       y       z     vdW  Elec       q    Type
REMARK                         _______ _______ _______ _____ _____    ______ ____
ROOT
ATOM      1  C   UNL     1      -5.483   2.602  -5.560  0.00  0.00    +0.004 A 
ATOM      2  C   UNL     1      -6.000   3.664  -4.896  0.00  0.00    +0.056 A 
ATOM      3  S   UNL     1      -5.377   3.458  -3.239  0.00  0.00    -0.076 S 
ATOM      4  C   UNL     1      -4.447   1.966  -3.473  0.00  0.00    +0.116 A 
ATOM      5  C   UNL     1      -4.640   1.662  -4.830  0.00  0.00    +0.080 A 
ATOM      6  C   UNL     1      -3.986   0.478  -5.300  0.00  0.00    +0.260 A 
ATOM      7  O   UNL     1      -4.094   0.132  -6.463  0.00  0.00    -0.267 OA
ATOM      8  N   UNL     1      -3.248  -0.245  -4.437  0.00  0.00    -0.312 N 
ATOM      9  H   UNL     1      -2.803  -1.048  -4.750  0.00  0.00    +0.170 HD
ATOM     10  C   UNL     1      -3.116   0.126  -3.138  0.00  0.00    +0.094 A 
ATOM     11  N   UNL     1      -3.706   1.197  -2.678  0.00  0.00    -0.229 NA
ENDROOT
BRANCH   1  17
ATOM     12  C   UNL     1      -4.725   2.163  -7.894  0.00  0.00    +0.011 A 
ATOM     13  C   UNL     1      -4.997   1.971  -9.233  0.00  0.00    +0.039 A 
ATOM     14  C   UNL     1      -6.303   2.020  -9.691  0.00  0.00    +0.123 A 
ATOM     15  C   UNL     1      -7.343   2.258  -8.807  0.00  0.00    +0.039 A 
ATOM     16  C   UNL     1      -7.082   2.447  -7.466  0.00  0.00    +0.011 A 
ATOM     17  C   UNL     1      -5.769   2.398  -7.000  0.00  0.00    -0.016 A 
ATOM     18  F   UNL     1      -6.564   1.836 -11.004  0.00  0.00    -0.205 F 
ENDBRANCH   1  17
BRANCH  10  19
ATOM     19  C   UNL     1      -2.280  -0.715  -2.208  0.00  0.00    -0.002 C 
BRANCH  19  24
ATOM     20  C   UNL     1      -3.617  -0.237  -0.242  0.00  0.00    -0.077 C 
ATOM     21  C   UNL     1      -3.428  -0.982   1.097  0.00  0.00    -0.020 C 
ATOM     22  C   UNL     1      -1.931  -0.740   1.423  0.00  0.00    -0.013 C 
ATOM     23  C   UNL     1      -1.294  -0.773   0.011  0.00  0.00    -0.037 C 
ATOM     24  N   UNL     1      -2.286  -0.103  -0.854  0.00  0.00    +0.389 N 
ATOM     25  H   UNL     1      -2.048   0.893  -0.935  0.00  0.00    -0.080 HD
BRANCH  23  26
ATOM     26  C   UNL     1       0.002  -0.004   0.002  0.00  0.00    -0.057 A 
ATOM     27  C   UNL     1      -0.017   1.378   0.010  0.00  0.00    +0.006 A 
ATOM     28  C   UNL     1       1.169   2.091   0.002  0.00  0.00    +0.049 A 
ATOM     29  C   UNL     1       2.377   1.413  -0.013  0.00  0.00    +0.162 A 
ATOM     30  C   UNL     1       2.396   0.026  -0.021  0.00  0.00    +0.162 A 
ATOM     31  C   UNL     1       1.207  -0.684  -0.013  0.00  0.00    +0.051 A 
ATOM     32  O   UNL     1       3.591  -0.632  -0.038  0.00  0.00    -0.488 OA
ATOM     33  C   UNL     1       4.380  -0.524   1.149  0.00  0.00    +0.232 C 
ATOM     34  C   UNL     1       5.208   0.751   1.132  0.00  0.00    +0.082 C 
ATOM     35  C   UNL     1       4.345   2.002   1.164  0.00  0.00    +0.232 C 
ATOM     36  O   UNL     1       3.554   2.104  -0.021  0.00  0.00    -0.488 OA
ENDBRANCH  23  26
ENDBRANCH  19  24
ENDBRANCH  10  19
TORSDOF 4
