REMARK  Name = ZINC01085017
REMARK  12 active torsions:
REMARK  status: ('A' for Active; 'I' for Inactive)
REMARK    1  A    between atoms: C_1  and  C_2
REMARK    2  A    between atoms: C_2  and  O_3
REMARK    3  A    between atoms: O_3  and  C_4
REMARK    4  A    between atoms: C_4  and  C_6
REMARK    5  A    between atoms: C_7  and  C_34
REMARK    6  A    between atoms: C_9  and  N_33
REMARK    7  A    between atoms: C_10  and  C_31
REMARK    8  A    between atoms: C_11  and  C_13
REMARK    9  A    between atoms: C_16  and  O_22
REMARK   10  A    between atoms: C_17  and  N_19
REMARK   11  A    between atoms: O_22  and  C_23
REMARK   12  A    between atoms: C_23  and  C_24
REMARK                            x       y       z     vdW  Elec       q    Type
REMARK                         _______ _______ _______ _____ _____    ______ ____
ROOT
ATOM      1  C   UNL     1      -0.510   3.935   3.645  0.00  0.00    -0.032 A 
ATOM      2  C   UNL     1       0.433   3.067   4.163  0.00  0.00    +0.008 A 
ATOM      3  C   UNL     1       1.381   3.528   5.057  0.00  0.00    +0.048 A 
ATOM      4  C   UNL     1       1.379   4.861   5.442  0.00  0.00    +0.151 A 
ATOM      5  C   UNL     1       0.428   5.729   4.925  0.00  0.00    +0.168 A 
ATOM      6  C   UNL     1      -0.514   5.264   4.027  0.00  0.00    +0.041 A 
ENDROOT
BRANCH   1  12
ATOM      7  C   UNL     1      -0.839   2.890   1.448  0.00  0.00    +0.087 C 
ATOM      8  C   UNL     1      -0.718   1.572   1.248  0.00  0.00    +0.115 C 
ATOM      9  O   UNL     1      -1.198   0.669   2.115  0.00  0.00    -0.445 OA
ATOM     10  C   UNL     1      -2.139   1.041   3.001  0.00  0.00    +0.198 C 
ATOM     11  C   UNL     1      -2.353   2.342   3.311  0.00  0.00    +0.098 C 
ATOM     12  C   UNL     1      -1.538   3.431   2.666  0.00  0.00    +0.105 C 
ATOM     13  C   UNL     1      -0.013   1.086   0.008  0.00  0.00    +0.087 C 
BRANCH  10  14
ATOM     14  N   UNL     1      -2.902   0.076   3.609  0.00  0.00    -0.328 N 
ATOM     15  H   UNL     1      -2.760  -0.860   3.397  0.00  0.00    +0.145 HD
ATOM     16  H   UNL     1      -3.584   0.329   4.251  0.00  0.00    +0.145 HD
ENDBRANCH  10  14
BRANCH   7  17
ATOM     17  C   UNL     1      -0.302   3.791   0.495  0.00  0.00    +0.339 C 
ATOM     18  O   UNL     1       0.262   3.365  -0.494  0.00  0.00    -0.245 OA
BRANCH  17  19
ATOM     19  O   UNL     1      -0.417   5.122   0.686  0.00  0.00    -0.462 OA
BRANCH  19  21
ATOM     20  C   UNL     1      -0.081   7.435   0.071  0.00  0.00    +0.048 C 
ATOM     21  C   UNL     1       0.146   5.972  -0.315  0.00  0.00    +0.229 C 
ENDBRANCH  19  21
ENDBRANCH  17  19
ENDBRANCH   7  17
BRANCH  11  22
ATOM     22  C   UNL     1      -3.365   2.686   4.264  0.00  0.00    +0.101 C 
ATOM     23  N   UNL     1      -4.168   2.959   5.019  0.00  0.00    -0.191 NA
ENDBRANCH  11  22
ENDBRANCH   1  12
BRANCH   5  24
ATOM     24  N   UNL     1       0.422   7.151   5.334  0.00  0.00    +0.060 N 
ATOM     25  O   UNL     1      -0.413   7.912   4.879  0.00  0.00    -0.126 OA
ATOM     26  O   UNL     1       1.253   7.560   6.125  0.00  0.00    -0.126 OA
ENDBRANCH   5  24
BRANCH   4  27
ATOM     27  O   UNL     1       2.306   5.316   6.325  0.00  0.00    -0.485 OA
BRANCH  27  28
ATOM     28  C   UNL     1       3.254   4.366   6.817  0.00  0.00    +0.264 C 
BRANCH  28  29
ATOM     29  C   UNL     1       4.195   5.047   7.777  0.00  0.00    -0.010 A 
ATOM     30  C   UNL     1       5.364   5.618   7.311  0.00  0.00    +0.008 A 
ATOM     31  C   UNL     1       6.225   6.248   8.190  0.00  0.00    +0.020 A 
ATOM     32  C   UNL     1       5.921   6.296   9.539  0.00  0.00    +0.041 A 
ATOM     33  C   UNL     1       4.754   5.720  10.006  0.00  0.00    +0.020 A 
ATOM     34  C   UNL     1       3.891   5.095   9.125  0.00  0.00    +0.008 A 
ATOM     35 CL   UNL     1       7.005   7.081  10.645  0.00  0.00    -0.084 Cl
ENDBRANCH  28  29
ENDBRANCH  27  28
ENDBRANCH   4  27
TORSDOF 10
