REMARK  Name = ZINC39639486
REMARK  6 active torsions:
REMARK  status: ('A' for Active; 'I' for Inactive)
REMARK    1  A    between atoms: C_3  and  C_9
REMARK    2  A    between atoms: C_9  and  N_10
REMARK    3  A    between atoms: C_11  and  C_13
REMARK    4  A    between atoms: C_24  and  C_26
REMARK    5  A    between atoms: C_26  and  C_27
REMARK    6  A    between atoms: C_27  and  C_28
REMARK                            x       y       z     vdW  Elec       q    Type
REMARK                         _______ _______ _______ _____ _____    ______ ____
ROOT
ATOM      1  C   UNL     1       6.092   2.683   2.902  0.00  0.00    +0.100 C 
ATOM      2  C   UNL     1       6.338   1.213   3.312  0.00  0.00    +0.121 C 
ATOM      3  N   UNL     1       7.742   0.946   2.922  0.00  0.00    -0.300 N 
ATOM      4  C   UNL     1       8.464   2.195   3.264  0.00  0.00    +0.115 C 
ATOM      5  C   UNL     1       7.490   3.324   2.875  0.00  0.00    -0.004 C 
ATOM      6  C   UNL     1       7.810   3.836   1.474  0.00  0.00    -0.010 C 
ATOM      7  C   UNL     1       9.180   4.520   1.486  0.00  0.00    -0.082 C 
ATOM      8  N   UNL     1       9.165   5.632   2.444  0.00  0.00    +0.379 N 
ATOM      9  C   UNL     1       8.948   5.121   3.803  0.00  0.00    -0.082 C 
ATOM     10  C   UNL     1       7.569   4.462   3.888  0.00  0.00    -0.010 C 
ATOM     11  C   UNL     1       8.249  -0.179   2.380  0.00  0.00    +0.216 C 
ATOM     12  O   UNL     1       9.431  -0.245   2.115  0.00  0.00    -0.276 OA
ATOM     13  H   UNL     1      10.048   6.119   2.406  0.00  0.00    -0.086 HD
ATOM     14  H   UNL     1       8.422   6.271   2.204  0.00  0.00    -0.086 HD
ENDROOT
BRANCH   1  16
ATOM     15  N   UNL     1       4.662   3.785   1.211  0.00  0.00    -0.311 N 
ATOM     16  C   UNL     1       5.459   2.748   1.536  0.00  0.00    +0.218 C 
ATOM     17  O   UNL     1       5.667   1.867   0.729  0.00  0.00    -0.275 OA
ATOM     18  H   UNL     1       4.495   4.489   1.857  0.00  0.00    +0.149 HD
BRANCH  15  19
ATOM     19  C   UNL     1       4.046   3.848  -0.117  0.00  0.00    +0.142 C 
BRANCH  19  22
ATOM     20  C   UNL     1       2.898   7.319  -1.059  0.00  0.00    +0.016 A 
ATOM     21  C   UNL     1       3.665   6.173  -0.960  0.00  0.00    +0.009 A 
ATOM     22  C   UNL     1       3.209   5.096  -0.224  0.00  0.00    +0.005 A 
ATOM     23  C   UNL     1       1.983   5.165   0.416  0.00  0.00    +0.129 A 
ATOM     24  C   UNL     1       1.214   6.312   0.317  0.00  0.00    +0.054 A 
ATOM     25  C   UNL     1       1.673   7.389  -0.420  0.00  0.00    +0.021 A 
ATOM     26 BR   UNL     1       0.624   8.956  -0.556  0.00  0.00    -0.050 Br
ATOM     27  F   UNL     1       1.536   4.112   1.136  0.00  0.00    -0.205 F 
ENDBRANCH  19  22
ENDBRANCH  15  19
ENDBRANCH   1  16
BRANCH  11  28
ATOM     28  C   UNL     1       7.348  -1.354   2.102  0.00  0.00    +0.096 C 
BRANCH  28  29
ATOM     29  C   UNL     1       8.167  -2.493   1.491  0.00  0.00    +0.013 C 
BRANCH  29  30
ATOM     30  C   UNL     1       7.252  -3.686   1.209  0.00  0.00    -0.011 C 
ATOM     31  C   UNL     1       6.758  -4.298   2.536  0.00  0.00    +0.003 C 
ATOM     32  C   UNL     1       6.731  -5.822   2.264  0.00  0.00    +0.000 C 
ATOM     33  C   UNL     1       7.991  -6.036   1.390  0.00  0.00    +0.000 C 
ATOM     34  C   UNL     1       8.036  -4.791   0.480  0.00  0.00    +0.003 C 
ENDBRANCH  29  30
ENDBRANCH  28  29
ENDBRANCH  11  28
TORSDOF 6
