REMARK  Name = ZINC06177955
REMARK  11 active torsions:
REMARK  status: ('A' for Active; 'I' for Inactive)
REMARK    1  A    between atoms: C_1  and  C_2
REMARK    2  A    between atoms: C_4  and  C_41
REMARK    3  A    between atoms: C_9  and  C_14
REMARK    4  A    between atoms: C_14  and  C_16
REMARK    5  A    between atoms: C_14  and  N_70
REMARK    6  A    between atoms: N_20  and  C_21
REMARK    7  A    between atoms: C_21  and  C_22
REMARK    8  A    between atoms: C_28  and  C_29
REMARK    9  A    between atoms: C_28  and  N_70
REMARK   10  A    between atoms: C_35  and  C_36
REMARK   11  A    between atoms: C_35  and  N_70
REMARK                            x       y       z     vdW  Elec       q    Type
REMARK                         _______ _______ _______ _____ _____    ______ ____
ROOT
ATOM      1  C   UNL     1       2.608  -0.028  -1.989  0.00  0.00    +0.040 C 
ENDROOT
BRANCH   1  10
ATOM      2  C   UNL     1       2.966   0.671  -9.406  0.00  0.00    +0.044 C 
ATOM      3  C   UNL     1       3.606   0.325  -8.086  0.00  0.00    -0.050 A 
ATOM      4  C   UNL     1       4.929  -0.096  -8.052  0.00  0.00    +0.008 A 
ATOM      5  C   UNL     1       5.534  -0.418  -6.856  0.00  0.00    -0.026 A 
ATOM      6  C   UNL     1       4.813  -0.321  -5.670  0.00  0.00    +0.052 A 
ATOM      7  C   UNL     1       3.473   0.106  -5.708  0.00  0.00    -0.001 A 
ATOM      8  C   UNL     1       2.879   0.427  -6.934  0.00  0.00    +0.013 A 
ATOM      9  C   UNL     1       2.721   0.200  -4.455  0.00  0.00    +0.017 A 
ATOM     10  C   UNL     1       3.351  -0.119  -3.297  0.00  0.00    +0.011 A 
ATOM     11  C   UNL     1       4.697  -0.542  -3.313  0.00  0.00    +0.251 A 
ATOM     12  O   UNL     1       5.243  -0.828  -2.262  0.00  0.00    -0.268 OA
ATOM     13  N   UNL     1       5.394  -0.636  -4.460  0.00  0.00    -0.322 N 
ATOM     14  H   UNL     1       6.318  -0.930  -4.435  0.00  0.00    +0.169 HD
ATOM     15  C   UNL     1       6.970  -0.873  -6.834  0.00  0.00    +0.046 C 
ENDBRANCH   1  10
BRANCH   1  16
ATOM     16  C   UNL     1       2.569  -1.387  -1.338  0.00  0.00    +0.143 A 
ATOM     17  N   UNL     1       3.564  -1.999  -0.744  0.00  0.00    -0.115 NA
ATOM     18  N   UNL     1       3.133  -3.135  -0.317  0.00  0.00    -0.023 NA
ATOM     19  N   UNL     1       1.890  -3.264  -0.623  0.00  0.00    -0.044 NA
ATOM     20  N   UNL     1       1.504  -2.204  -1.249  0.00  0.00    -0.228 N 
BRANCH  20  21
ATOM     21  C   UNL     1       0.159  -1.942  -1.768  0.00  0.00    +0.178 C 
BRANCH  21  22
ATOM     22  C   UNL     1       0.019  -2.564  -3.159  0.00  0.00    +0.140 C 
ATOM     23  C   UNL     1      -1.354  -2.195  -3.762  0.00  0.00    +0.035 C 
ATOM     24  C   UNL     1      -1.767  -3.513  -4.471  0.00  0.00    +0.031 C 
ATOM     25  C   UNL     1      -1.158  -4.567  -3.513  0.00  0.00    +0.160 C 
ATOM     26  O   UNL     1       0.078  -3.992  -3.060  0.00  0.00    -0.375 OA
ENDBRANCH  21  22
ENDBRANCH  20  21
ENDBRANCH   1  16
BRANCH   1  27
ATOM     27  N   UNL     1       3.321   0.911  -1.098  0.00  0.00    +0.397 N 
ATOM     28  H   UNL     1       4.279   0.571  -0.952  0.00  0.00    -0.079 HD
BRANCH  27  29
ATOM     29  C   UNL     1       3.377   2.252  -1.718  0.00  0.00    -0.039 C 
BRANCH  29  30
ATOM     30  C   UNL     1       4.761   2.461  -2.277  0.00  0.00    -0.046 A 
ATOM     31  C   UNL     1       5.045   2.123  -3.591  0.00  0.00    +0.005 A 
ATOM     32  C   UNL     1       6.333   2.327  -4.061  0.00  0.00    +0.020 A 
ATOM     33  C   UNL     1       7.282   2.868  -3.213  0.00  0.00    +0.111 A 
ATOM     34  N   UNL     1       6.975   3.179  -1.969  0.00  0.00    -0.263 NA
ATOM     35  C   UNL     1       5.762   2.993  -1.487  0.00  0.00    +0.112 A 
ENDBRANCH  29  30
ENDBRANCH  27  29
BRANCH  27  36
ATOM     36  C   UNL     1       2.635   0.987   0.209  0.00  0.00    -0.001 C 
BRANCH  36  37
ATOM     37  C   UNL     1       3.010  -0.225   1.022  0.00  0.00    +0.089 A 
ATOM     38  C   UNL     1       4.135  -0.368   1.747  0.00  0.00    +0.042 A 
ATOM     39  C   UNL     1       4.076  -1.648   2.344  0.00  0.00    +0.041 A 
ATOM     40  C   UNL     1       2.924  -2.214   1.943  0.00  0.00    +0.195 A 
ATOM     41  O   UNL     1       2.282  -1.347   1.142  0.00  0.00    -0.470 OA
ENDBRANCH  36  37
ENDBRANCH  27  36
ENDBRANCH   1  27
TORSDOF 9
