REMARK  Name = ZINC09872244
REMARK  7 active torsions:
REMARK  status: ('A' for Active; 'I' for Inactive)
REMARK    1  A    between atoms: C_4  and  S_27
REMARK    2  A    between atoms: C_5  and  N_7
REMARK    3  A    between atoms: C_8  and  C_10
REMARK    4  A    between atoms: C_10  and  N_58
REMARK    5  A    between atoms: C_14  and  C_16
REMARK    6  A    between atoms: S_27  and  C_28
REMARK    7  A    between atoms: C_28  and  C_29
REMARK                            x       y       z     vdW  Elec       q    Type
REMARK                         _______ _______ _______ _____ _____    ______ ____
ROOT
ATOM      1  C   UNL     1      -0.331   5.368  -5.930  0.00  0.00    +0.020 C 
ENDROOT
BRANCH   1   6
ATOM      2  C   UNL     1       2.004   6.053  -6.070  0.00  0.00    -0.077 C 
ATOM      3  C   UNL     1       3.279   5.815  -5.233  0.00  0.00    -0.020 C 
ATOM      4  C   UNL     1       2.871   4.777  -4.167  0.00  0.00    -0.013 C 
ATOM      5  C   UNL     1       1.383   4.476  -4.449  0.00  0.00    -0.037 C 
ATOM      6  N   UNL     1       0.921   5.670  -5.165  0.00  0.00    +0.390 N 
ATOM      7  H   UNL     1       0.735   6.429  -4.500  0.00  0.00    -0.080 HD
BRANCH   5   8
ATOM      8  C   UNL     1       0.631   4.284  -3.158  0.00  0.00    -0.057 A 
ATOM      9  C   UNL     1       0.278   5.383  -2.397  0.00  0.00    +0.006 A 
ATOM     10  C   UNL     1      -0.412   5.215  -1.210  0.00  0.00    +0.049 A 
ATOM     11  C   UNL     1      -0.749   3.940  -0.786  0.00  0.00    +0.162 A 
ATOM     12  C   UNL     1      -0.394   2.838  -1.550  0.00  0.00    +0.162 A 
ATOM     13  C   UNL     1       0.297   3.009  -2.737  0.00  0.00    +0.051 A 
ATOM     14  O   UNL     1      -0.731   1.586  -1.123  0.00  0.00    -0.488 OA
ATOM     15  C   UNL     1      -0.057   1.123   0.049  0.00  0.00    +0.232 C 
ATOM     16  C   UNL     1      -0.758   1.618   1.304  0.00  0.00    +0.082 C 
ATOM     17  C   UNL     1      -0.702   3.131   1.440  0.00  0.00    +0.232 C 
ATOM     18  O   UNL     1      -1.430   3.761   0.383  0.00  0.00    -0.488 OA
ENDBRANCH   5   8
ENDBRANCH   1   6
BRANCH   1  20
ATOM     19  N   UNL     1      -2.075   6.609  -7.171  0.00  0.00    -0.286 N 
ATOM     20  C   UNL     1      -0.944   6.648  -6.439  0.00  0.00    +0.201 C 
ATOM     21  O   UNL     1      -0.419   7.713  -6.190  0.00  0.00    -0.278 OA
ATOM     22  H   UNL     1      -2.450   5.755  -7.438  0.00  0.00    +0.155 HD
BRANCH  19  27
ATOM     23  C   UNL     1      -3.146  10.129  -7.170  0.00  0.00    +0.002 A 
ATOM     24  C   UNL     1      -3.960  10.160  -8.288  0.00  0.00    +0.001 A 
ATOM     25  C   UNL     1      -4.154   9.017  -9.040  0.00  0.00    +0.016 A 
ATOM     26  C   UNL     1      -3.529   7.833  -8.674  0.00  0.00    +0.030 A 
ATOM     27  C   UNL     1      -2.708   7.801  -7.547  0.00  0.00    +0.047 A 
ATOM     28  C   UNL     1      -2.524   8.952  -6.795  0.00  0.00    +0.024 A 
BRANCH  26  29
ATOM     29  S   UNL     1      -3.774   6.373  -9.630  0.00  0.00    -0.114 S 
BRANCH  29  30
ATOM     30  C   UNL     1      -4.891   6.900 -10.958  0.00  0.00    +0.169 C 
BRANCH  30  31
ATOM     31  C   UNL     1      -5.185   5.730 -11.861  0.00  0.00    +0.221 C 
ATOM     32  O   UNL     1      -4.690   4.647 -11.631  0.00  0.00    -0.275 OA
ATOM     33  N   UNL     1      -5.999   5.888 -12.924  0.00  0.00    -0.329 N 
ATOM     34  H   UNL     1      -6.395   6.754 -13.108  0.00  0.00    +0.145 HD
ATOM     35  H   UNL     1      -6.189   5.134 -13.505  0.00  0.00    +0.145 HD
ENDBRANCH  30  31
ENDBRANCH  29  30
ENDBRANCH  26  29
ENDBRANCH  19  27
ENDBRANCH   1  20
TORSDOF 7
