REMARK  Name = ZINC28405592
REMARK  6 active torsions:
REMARK  status: ('A' for Active; 'I' for Inactive)
REMARK    1  A    between atoms: C_1  and  C_2
REMARK    2  A    between atoms: N_4  and  C_5
REMARK    3  A    between atoms: C_6  and  C_24
REMARK    4  A    between atoms: N_7  and  C_17
REMARK    5  A    between atoms: N_9  and  C_10
REMARK    6  A    between atoms: C_17  and  C_18
REMARK                            x       y       z     vdW  Elec       q    Type
REMARK                         _______ _______ _______ _____ _____    ______ ____
ROOT
ATOM      1  C   UNL     1       0.107   0.019  -0.519  0.00  0.00    +0.099 A 
ATOM      2  C   UNL     1       1.370  -0.264  -0.110  0.00  0.00    +0.080 A 
ATOM      3  N   UNL     1       2.115   0.716   0.497  0.00  0.00    -0.315 N 
ATOM      4  C   UNL     1       1.556   1.958   0.670  0.00  0.00    +0.154 A 
ATOM      5  N   UNL     1       2.079   3.037   1.221  0.00  0.00    -0.336 N 
ATOM      6  S   UNL     1      -0.066   1.731  -0.043  0.00  0.00    -0.036 S 
ATOM      7  H   UNL     1       3.084   2.995   1.667  0.00  0.00    +0.168 HD
ENDROOT
BRANCH   5   8
ATOM      8  C   UNL     1       1.373   4.208   1.236  0.00  0.00    +0.041 A 
ATOM      9  C   UNL     1       1.458   5.094   0.159  0.00  0.00    +0.025 A 
ATOM     10  C   UNL     1       0.739   6.270   0.179  0.00  0.00    +0.002 A 
ATOM     11  C   UNL     1      -0.057   6.579   1.268  0.00  0.00    +0.000 A 
ATOM     12  C   UNL     1      -0.142   5.710   2.341  0.00  0.00    +0.002 A 
ATOM     13  C   UNL     1       0.567   4.527   2.332  0.00  0.00    +0.025 A 
ENDBRANCH   5   8
BRANCH   2  14
ATOM     14  C   UNL     1       1.935  -1.612  -0.315  0.00  0.00    +0.001 A 
ATOM     15  C   UNL     1       2.668  -2.228   0.703  0.00  0.00    +0.010 A 
ATOM     16  C   UNL     1       3.188  -3.490   0.506  0.00  0.00    +0.001 A 
ATOM     17  C   UNL     1       2.996  -4.141  -0.700  0.00  0.00    +0.000 A 
ATOM     18  C   UNL     1       2.276  -3.535  -1.714  0.00  0.00    +0.001 A 
ATOM     19  C   UNL     1       1.745  -2.276  -1.530  0.00  0.00    +0.010 A 
ENDBRANCH   2  14
BRANCH   1  23
ATOM     20  C   UNL     1      -3.066  -1.267  -2.073  0.00  0.00    +0.109 C 
ATOM     21  C   UNL     1      -2.067  -0.368  -1.392  0.00  0.00    +0.215 C 
ATOM     22  O   UNL     1      -2.387   0.754  -1.063  0.00  0.00    -0.276 OA
ATOM     23  N   UNL     1      -0.818  -0.812  -1.149  0.00  0.00    -0.279 N 
ATOM     24  H   UNL     1      -0.527  -1.830  -1.448  0.00  0.00    +0.155 HD
ENDBRANCH   1  23
BRANCH   3  25
ATOM     25  C   UNL     1       3.481   0.442   0.950  0.00  0.00    +0.159 C 
BRANCH  25  26
ATOM     26  C   UNL     1       4.337   1.663   0.732  0.00  0.00    -0.028 A 
ATOM     27  C   UNL     1       5.018   1.826  -0.460  0.00  0.00    +0.005 A 
ATOM     28  C   UNL     1       5.799   2.949  -0.662  0.00  0.00    +0.000 A 
ATOM     29  C   UNL     1       5.908   3.903   0.332  0.00  0.00    +0.000 A 
ATOM     30  C   UNL     1       5.231   3.738   1.526  0.00  0.00    +0.000 A 
ATOM     31  C   UNL     1       4.446   2.618   1.726  0.00  0.00    +0.005 A 
ENDBRANCH  25  26
ENDBRANCH   3  25
TORSDOF 5
