REMARK  Name = ZINC12521230
REMARK  11 active torsions:
REMARK  status: ('A' for Active; 'I' for Inactive)
REMARK    1  A    between atoms: C_1  and  C_2
REMARK    2  A    between atoms: C_2  and  C_3
REMARK    3  A    between atoms: C_2  and  C_4
REMARK    4  A    between atoms: C_2  and  C_5
REMARK    5  A    between atoms: C_12  and  C_14
REMARK    6  A    between atoms: N_16  and  N_17
REMARK    7  A    between atoms: C_18  and  C_20
REMARK    8  A    between atoms: C_20  and  C_21
REMARK    9  A    between atoms: C_21  and  S_22
REMARK   10  A    between atoms: S_22  and  N_25
REMARK   11  A    between atoms: N_25  and  C_26
REMARK                            x       y       z     vdW  Elec       q    Type
REMARK                         _______ _______ _______ _____ _____    ______ ____
ROOT
ATOM      1  C   UNL     1       2.914   0.777   1.454  0.00  0.00    +0.267 C 
ATOM      2  O   UNL     1       3.221  -0.401   1.431  0.00  0.00    -0.268 OA
ATOM      3  N   UNL     1       3.851   1.721   1.237  0.00  0.00    -0.230 N 
ATOM      4  H   UNL     1       3.607   2.660   1.255  0.00  0.00    +0.173 HD
ENDROOT
BRANCH   1  11
ATOM      5  C   UNL     1      -3.096   1.140   3.106  0.00  0.00    -0.001 C 
ATOM      6  C   UNL     1      -3.269   2.393   2.243  0.00  0.00    +0.009 C 
ATOM      7  C   UNL     1      -1.995   3.244   2.345  0.00  0.00    +0.043 C 
ATOM      8  C   UNL     1      -0.812   2.348   2.141  0.00  0.00    -0.006 A 
ATOM      9  C   UNL     1      -0.796   0.983   2.176  0.00  0.00    -0.036 A 
ATOM     10  C   UNL     1       0.426   0.367   1.960  0.00  0.00    +0.024 A 
ATOM     11  C   UNL     1       1.526   1.168   1.716  0.00  0.00    +0.076 A 
ATOM     12  S   UNL     1       0.815   2.803   1.804  0.00  0.00    -0.088 S 
ATOM     13  C   UNL     1      -2.075   0.201   2.463  0.00  0.00    +0.040 C 
BRANCH   5  15
ATOM     14  C   UNL     1      -4.936   0.018   1.843  0.00  0.00    +0.011 C 
ATOM     15  C   UNL     1      -4.440   0.420   3.233  0.00  0.00    -0.035 C 
ATOM     16  C   UNL     1      -4.269  -0.831   4.096  0.00  0.00    +0.011 C 
ATOM     17  C   UNL     1      -5.460   1.355   3.887  0.00  0.00    +0.011 C 
ENDBRANCH   5  15
ENDBRANCH   1  11
BRANCH   3  18
ATOM     18  N   UNL     1       5.178   1.347   0.987  0.00  0.00    -0.234 N 
ATOM     19  C   UNL     1       6.115   2.292   0.770  0.00  0.00    +0.231 C 
ATOM     20  O   UNL     1       5.809   3.465   0.793  0.00  0.00    -0.274 OA
ATOM     21  H   UNL     1       5.422   0.409   0.969  0.00  0.00    +0.173 HD
BRANCH  19  22
ATOM     22  C   UNL     1       7.542   1.890   0.501  0.00  0.00    +0.122 C 
BRANCH  22  23
ATOM     23  C   UNL     1       8.394   3.143   0.291  0.00  0.00    +0.198 C 
BRANCH  23  24
ATOM     24  S   UNL     1      10.112   2.659  -0.033  0.00  0.00    +0.044 S 
ATOM     25  O   UNL     1      10.680   2.063   1.126  0.00  0.00    -0.155 OA
ATOM     26  O   UNL     1      10.210   2.019  -1.298  0.00  0.00    -0.155 OA
BRANCH  24  27
ATOM     27  N   UNL     1      10.929   4.087  -0.217  0.00  0.00    -0.221 N 
ATOM     28  H   UNL     1      11.345   4.302  -1.067  0.00  0.00    +0.173 HD
BRANCH  27  29
ATOM     29  C   UNL     1      11.020   4.983   0.850  0.00  0.00    +0.048 A 
ATOM     30  C   UNL     1      10.259   6.146   0.850  0.00  0.00    +0.024 A 
ATOM     31  C   UNL     1      10.347   7.027   1.910  0.00  0.00    +0.002 A 
ATOM     32  C   UNL     1      11.199   6.759   2.965  0.00  0.00    +0.000 A 
ATOM     33  C   UNL     1      11.962   5.605   2.966  0.00  0.00    +0.002 A 
ATOM     34  C   UNL     1      11.875   4.717   1.912  0.00  0.00    +0.024 A 
ENDBRANCH  27  29
ENDBRANCH  24  27
ENDBRANCH  23  24
ENDBRANCH  22  23
ENDBRANCH  19  22
ENDBRANCH   3  18
TORSDOF 8
