REMARK  Name = ZINC34683654
REMARK  10 active torsions:
REMARK  status: ('A' for Active; 'I' for Inactive)
REMARK    1  A    between atoms: C_1  and  O_2
REMARK    2  A    between atoms: O_2  and  C_3
REMARK    3  A    between atoms: C_7  and  C_11
REMARK    4  A    between atoms: C_8  and  O_9
REMARK    5  A    between atoms: O_9  and  C_10
REMARK    6  A    between atoms: C_11  and  N_12
REMARK    7  A    between atoms: C_15  and  N_18
REMARK    8  A    between atoms: N_18  and  C_19
REMARK    9  A    between atoms: N_18  and  S_25
REMARK   10  A    between atoms: S_25  and  C_28
REMARK                            x       y       z     vdW  Elec       q    Type
REMARK                         _______ _______ _______ _____ _____    ______ ____
ROOT
ATOM      1  N   UNL     1      -2.352  -5.365   0.939  0.00  0.00    +0.383 N 
ATOM      2  C   UNL     1      -1.295  -4.355   1.074  0.00  0.00    -0.077 C 
ATOM      3  C   UNL     1      -0.683  -4.436   2.475  0.00  0.00    +0.006 C 
ATOM      4  C   UNL     1      -0.088  -5.832   2.686  0.00  0.00    +0.095 C 
ATOM      5  C   UNL     1      -1.183  -6.880   2.469  0.00  0.00    +0.006 C 
ATOM      6  C   UNL     1      -1.776  -6.709   1.069  0.00  0.00    -0.077 C 
ATOM      7  H   UNL     1      -3.043  -5.225   1.661  0.00  0.00    -0.081 HD
ENDROOT
BRANCH   1   8
ATOM      8  C   UNL     1      -2.989  -5.232  -0.378  0.00  0.00    -0.039 C 
BRANCH   8  13
ATOM      9  C   UNL     1      -5.551  -2.495   0.147  0.00  0.00    +0.162 A 
ATOM     10  C   UNL     1      -5.011  -1.470  -0.614  0.00  0.00    +0.049 A 
ATOM     11  C   UNL     1      -3.823  -1.664  -1.293  0.00  0.00    +0.004 A 
ATOM     12  C   UNL     1      -3.170  -2.880  -1.216  0.00  0.00    +0.005 A 
ATOM     13  C   UNL     1      -3.703  -3.908  -0.459  0.00  0.00    -0.019 A 
ATOM     14  C   UNL     1      -4.890  -3.717   0.229  0.00  0.00    +0.163 A 
BRANCH   9  16
ATOM     15  C   UNL     1      -7.341  -1.025   0.685  0.00  0.00    +0.277 C 
ATOM     16  O   UNL     1      -6.719  -2.305   0.816  0.00  0.00    -0.491 OA
ENDBRANCH   9  16
BRANCH  14  17
ATOM     17  O   UNL     1      -5.413  -4.725   0.978  0.00  0.00    -0.491 OA
ATOM     18  C   UNL     1      -6.318  -5.617   0.326  0.00  0.00    +0.277 C 
ENDBRANCH  14  17
ENDBRANCH   8  13
ENDBRANCH   1   8
BRANCH   4  19
ATOM     19  N   UNL     1       0.432  -5.941   4.051  0.00  0.00    -0.200 N 
BRANCH  19  20
ATOM     20  C   UNL     1      -0.442  -5.871   5.139  0.00  0.00    +0.052 A 
ATOM     21  C   UNL     1      -1.065  -4.670   5.455  0.00  0.00    +0.025 A 
ATOM     22  C   UNL     1      -1.928  -4.604   6.531  0.00  0.00    +0.002 A 
ATOM     23  C   UNL     1      -2.172  -5.732   7.293  0.00  0.00    +0.000 A 
ATOM     24  C   UNL     1      -1.553  -6.928   6.982  0.00  0.00    +0.002 A 
ATOM     25  C   UNL     1      -0.693  -7.003   5.904  0.00  0.00    +0.025 A 
ENDBRANCH  19  20
BRANCH  19  26
ATOM     26  S   UNL     1       2.055  -6.147   4.305  0.00  0.00    +0.075 S 
ATOM     27  O   UNL     1       2.189  -6.843   5.536  0.00  0.00    -0.150 OA
ATOM     28  O   UNL     1       2.597  -6.642   3.087  0.00  0.00    -0.150 OA
BRANCH  26  29
ATOM     29  C   UNL     1       2.752  -4.548   4.552  0.00  0.00    +0.109 A 
ATOM     30  C   UNL     1       3.216  -3.821   3.471  0.00  0.00    +0.030 A 
ATOM     31  C   UNL     1       3.762  -2.567   3.665  0.00  0.00    +0.022 A 
ATOM     32  C   UNL     1       3.844  -2.038   4.941  0.00  0.00    +0.041 A 
ATOM     33  C   UNL     1       3.380  -2.765   6.022  0.00  0.00    +0.022 A 
ATOM     34  C   UNL     1       2.828  -4.017   5.827  0.00  0.00    +0.030 A 
ATOM     35 CL   UNL     1       4.531  -0.462   5.185  0.00  0.00    -0.084 Cl
ENDBRANCH  26  29
ENDBRANCH  19  26
ENDBRANCH   4  19
TORSDOF 8
