REMARK  Name = ZINC09508631
REMARK  9 active torsions:
REMARK  status: ('A' for Active; 'I' for Inactive)
REMARK    1  A    between atoms: C_1  and  C_2
REMARK    2  A    between atoms: C_2  and  C_3
REMARK    3  A    between atoms: C_2  and  C_4
REMARK    4  A    between atoms: C_4  and  C_6
REMARK    5  A    between atoms: C_4  and  S_12
REMARK    6  A    between atoms: S_12  and  C_13
REMARK    7  A    between atoms: C_16  and  C_25
REMARK    8  A    between atoms: N_17  and  C_18
REMARK    9  A    between atoms: C_18  and  C_19
REMARK                            x       y       z     vdW  Elec       q    Type
REMARK                         _______ _______ _______ _____ _____    ______ ____
ROOT
ATOM      1  C   UNL     1      -3.621   1.346   2.278  0.00  0.00    +0.193 A 
ATOM      2  N   UNL     1      -3.812   0.580   3.329  0.00  0.00    -0.122 NA
ATOM      3  N   UNL     1      -3.111  -0.492   3.227  0.00  0.00    -0.128 NA
ATOM      4  C   UNL     1      -2.434  -0.479   2.103  0.00  0.00    +0.167 A 
ATOM      5  N   UNL     1      -2.735   0.701   1.463  0.00  0.00    -0.298 N 
ENDROOT
BRANCH   4   6
ATOM      6  C   UNL     1      -1.518  -1.533   1.617  0.00  0.00    +0.038 A 
ATOM      7  C   UNL     1      -1.631  -2.013   0.311  0.00  0.00    +0.014 A 
ATOM      8  C   UNL     1      -0.769  -2.991  -0.139  0.00  0.00    +0.021 A 
ATOM      9  C   UNL     1       0.199  -3.508   0.707  0.00  0.00    +0.042 A 
ATOM     10  C   UNL     1       0.314  -3.041   2.005  0.00  0.00    +0.040 A 
ATOM     11  C   UNL     1      -0.539  -2.057   2.465  0.00  0.00    +0.053 A 
ATOM     12 CL   UNL     1      -0.395  -1.472   4.093  0.00  0.00    -0.083 Cl
ATOM     13 CL   UNL     1       1.274  -4.745   0.135  0.00  0.00    -0.083 Cl
ENDBRANCH   4   6
BRANCH   1  14
ATOM     14  S   UNL     1      -4.368   2.913   1.977  0.00  0.00    -0.073 S 
BRANCH  14  15
ATOM     15  C   UNL     1      -5.381   3.070   3.469  0.00  0.00    +0.143 C 
BRANCH  15  16
ATOM     16  C   UNL     1      -6.037   4.426   3.490  0.00  0.00    +0.234 C 
ATOM     17  O   UNL     1      -6.232   5.021   2.451  0.00  0.00    -0.274 OA
ATOM     18  N   UNL     1      -6.408   4.978   4.662  0.00  0.00    -0.239 N 
ATOM     19  C   UNL     1      -6.996   6.191   4.681  0.00  0.00    +0.303 C 
ATOM     20  O   UNL     1      -7.191   6.787   3.640  0.00  0.00    -0.253 OA
ATOM     21  N   UNL     1      -7.366   6.742   5.853  0.00  0.00    -0.313 N 
ATOM     22  H   UNL     1      -6.252   4.502   5.493  0.00  0.00    +0.159 HD
ATOM     23  H   UNL     1      -7.210   6.266   6.684  0.00  0.00    +0.146 HD
ATOM     24  H   UNL     1      -7.789   7.615   5.867  0.00  0.00    +0.146 HD
ENDBRANCH  15  16
BRANCH  15  26
ATOM     25  C   UNL     1      -7.312   2.115   4.734  0.00  0.00    +0.009 C 
ATOM     26  C   UNL     1      -6.456   1.982   3.473  0.00  0.00    +0.005 C 
ATOM     27  C   UNL     1      -7.343   2.138   2.236  0.00  0.00    +0.009 C 
ENDBRANCH  15  26
ENDBRANCH  14  15
ENDBRANCH   1  14
BRANCH   5  28
ATOM     28  C   UNL     1      -2.218   1.165   0.173  0.00  0.00    +0.161 C 
BRANCH  28  29
ATOM     29  C   UNL     1      -0.979   1.993   0.398  0.00  0.00    -0.028 A 
ATOM     30  C   UNL     1       0.254   1.377   0.500  0.00  0.00    +0.005 A 
ATOM     31  C   UNL     1       1.392   2.137   0.700  0.00  0.00    +0.000 A 
ATOM     32  C   UNL     1       1.295   3.512   0.803  0.00  0.00    +0.000 A 
ATOM     33  C   UNL     1       0.062   4.128   0.705  0.00  0.00    +0.000 A 
ATOM     34  C   UNL     1      -1.076   3.368   0.505  0.00  0.00    +0.005 A 
ENDBRANCH  28  29
ENDBRANCH   5  28
TORSDOF 7
