REMARK  Name = ZINC45512662
REMARK  5 active torsions:
REMARK  status: ('A' for Active; 'I' for Inactive)
REMARK    1  A    between atoms: C_1  and  C_2
REMARK    2  A    between atoms: C_2  and  C_4
REMARK    3  A    between atoms: C_2  and  N_20
REMARK    4  A    between atoms: N_9  and  C_10
REMARK    5  A    between atoms: C_23  and  N_26
REMARK                            x       y       z     vdW  Elec       q    Type
REMARK                         _______ _______ _______ _____ _____    ______ ____
ROOT
ATOM      1  C   UNL     1       0.145   1.427  -0.520  0.00  0.00    -0.004 C 
ATOM      2  C   UNL     1       0.002  -0.004   0.002  0.00  0.00    +0.017 C 
ENDROOT
BRANCH   2   3
ATOM      3  C   UNL     1      -1.444  -0.422  -0.069  0.00  0.00    +0.207 C 
ATOM      4  O   UNL     1      -1.865  -0.982  -1.059  0.00  0.00    -0.277 OA
ATOM      5  N   UNL     1      -2.269  -0.175   0.967  0.00  0.00    -0.242 N 
ATOM      6  C   UNL     1      -3.562  -0.549   0.903  0.00  0.00    +0.306 C 
ATOM      7  O   UNL     1      -3.984  -1.110  -0.089  0.00  0.00    -0.252 OA
ATOM      8  N   UNL     1      -4.387  -0.302   1.940  0.00  0.00    -0.294 N 
ATOM      9  H   UNL     1      -1.932   0.273   1.759  0.00  0.00    +0.159 HD
ATOM     10  H   UNL     1      -4.050   0.146   2.732  0.00  0.00    +0.151 HD
BRANCH   8  11
ATOM     11  C   UNL     1      -5.793  -0.708   1.870  0.00  0.00    +0.037 C 
ATOM     12  C   UNL     1      -5.877  -2.225   1.685  0.00  0.00    +0.029 C 
ATOM     13  C   UNL     1      -7.345  -2.650   1.613  0.00  0.00    -0.008 C 
ATOM     14  C   UNL     1      -8.055  -2.254   2.909  0.00  0.00    +0.007 C 
ATOM     15  C   UNL     1      -7.971  -0.738   3.094  0.00  0.00    -0.008 C 
ATOM     16  C   UNL     1      -6.503  -0.313   3.167  0.00  0.00    +0.029 C 
ATOM     17  C   UNL     1      -8.646  -0.041   1.911  0.00  0.00    +0.007 C 
ATOM     18  C   UNL     1      -7.936  -0.437   0.614  0.00  0.00    -0.008 C 
ATOM     19  C   UNL     1      -8.019  -1.953   0.429  0.00  0.00    +0.007 C 
ATOM     20  C   UNL     1      -6.468  -0.012   0.687  0.00  0.00    +0.029 C 
ENDBRANCH   8  11
ENDBRANCH   2   3
BRANCH   2  21
ATOM     21  N   UNL     1       0.815  -0.909  -0.821  0.00  0.00    +0.387 N 
ATOM     22  C   UNL     1       0.662  -2.284  -0.331  0.00  0.00    -0.076 C 
ATOM     23  C   UNL     1       1.442  -3.242  -1.234  0.00  0.00    +0.006 C 
ATOM     24  C   UNL     1       2.924  -2.855  -1.220  0.00  0.00    +0.089 C 
ATOM     25  C   UNL     1       3.064  -1.395  -1.662  0.00  0.00    +0.006 C 
ATOM     26  C   UNL     1       2.224  -0.506  -0.743  0.00  0.00    -0.076 C 
ATOM     27  H   UNL     1       0.505  -0.860  -1.780  0.00  0.00    -0.081 HD
BRANCH  24  28
ATOM     28  N   UNL     1       3.665  -3.720  -2.142  0.00  0.00    -0.289 N 
ATOM     29  C   UNL     1       4.711  -4.572  -1.797  0.00  0.00    +0.070 A 
ATOM     30  C   UNL     1       5.343  -4.865  -0.598  0.00  0.00    +0.028 A 
ATOM     31  C   UNL     1       6.379  -5.779  -0.573  0.00  0.00    +0.002 A 
ATOM     32  C   UNL     1       6.788  -6.403  -1.739  0.00  0.00    +0.002 A 
ATOM     33  C   UNL     1       6.164  -6.117  -2.938  0.00  0.00    +0.028 A 
ATOM     34  C   UNL     1       5.123  -5.202  -2.973  0.00  0.00    +0.067 A 
ATOM     35  N   UNL     1       4.315  -4.712  -3.996  0.00  0.00    -0.306 N 
ATOM     36  H   UNL     1       4.365  -4.967  -4.931  0.00  0.00    +0.170 HD
ATOM     37  C   UNL     1       3.447  -3.830  -3.466  0.00  0.00    +0.328 A 
ATOM     38  O   UNL     1       2.596  -3.223  -4.089  0.00  0.00    -0.247 OA
ENDBRANCH  24  28
ENDBRANCH   2  21
TORSDOF 4
