REMARK  Name = ZINC02409857
REMARK  10 active torsions:
REMARK  status: ('A' for Active; 'I' for Inactive)
REMARK    1  A    between atoms: C_1  and  C_2
REMARK    2  A    between atoms: C_2  and  C_3
REMARK    3  A    between atoms: C_2  and  O_4
REMARK    4  A    between atoms: O_4  and  C_5
REMARK    5  A    between atoms: C_5  and  C_6
REMARK    6  A    between atoms: C_6  and  C_7
REMARK    7  A    between atoms: C_7  and  N_8
REMARK    8  A    between atoms: C_9  and  N_31
REMARK    9  A    between atoms: C_10  and  S_21
REMARK   10  A    between atoms: S_21  and  C_24
REMARK                            x       y       z     vdW  Elec       q    Type
REMARK                         _______ _______ _______ _____ _____    ______ ____
ROOT
ATOM      1  N   UNL     1      -2.180   3.418   3.739  0.00  0.00    -0.311 N 
ATOM      2  C   UNL     1      -1.668   3.550   2.472  0.00  0.00    +0.126 A 
ATOM      3  C   UNL     1      -2.001   2.483   1.708  0.00  0.00    +0.160 A 
ATOM      4  C   UNL     1      -2.776   1.602   2.499  0.00  0.00    +0.135 A 
ATOM      5  C   UNL     1      -2.875   2.230   3.823  0.00  0.00    +0.163 A 
ATOM      6  N   UNL     1      -3.544   1.629   4.781  0.00  0.00    -0.226 NA
ATOM      7  C   UNL     1      -4.138   0.452   4.542  0.00  0.00    +0.092 A 
ATOM      8  C   UNL     1      -4.860  -0.196   5.560  0.00  0.00    +0.030 A 
ATOM      9  C   UNL     1      -5.455  -1.395   5.311  0.00  0.00    +0.002 A 
ATOM     10  C   UNL     1      -5.360  -1.995   4.057  0.00  0.00    +0.002 A 
ATOM     11  C   UNL     1      -4.670  -1.399   3.048  0.00  0.00    +0.030 A 
ATOM     12  C   UNL     1      -4.042  -0.158   3.266  0.00  0.00    +0.090 A 
ATOM     13  N   UNL     1      -3.362   0.436   2.279  0.00  0.00    -0.240 NA
ENDROOT
BRANCH   3  14
ATOM     14  S   UNL     1      -1.555   2.238   0.022  0.00  0.00    +0.030 S 
ATOM     15  O   UNL     1      -1.304   3.526  -0.523  0.00  0.00    -0.164 OA
ATOM     16  O   UNL     1      -2.519   1.352  -0.529  0.00  0.00    -0.164 OA
BRANCH  14  17
ATOM     17  C   UNL     1      -0.017   1.378   0.010  0.00  0.00    +0.094 A 
ATOM     18  C   UNL     1       1.171   2.086   0.002  0.00  0.00    +0.029 A 
ATOM     19  C   UNL     1       2.377   1.412  -0.013  0.00  0.00    +0.022 A 
ATOM     20  C   UNL     1       2.397   0.029  -0.021  0.00  0.00    +0.041 A 
ATOM     21  C   UNL     1       1.208  -0.679  -0.013  0.00  0.00    +0.022 A 
ATOM     22  C   UNL     1       0.002  -0.004   0.002  0.00  0.00    +0.029 A 
ATOM     23 CL   UNL     1       3.912  -0.818  -0.039  0.00  0.00    -0.084 Cl
ENDBRANCH  14  17
ENDBRANCH   3  14
BRANCH   2  24
ATOM     24  N   UNL     1      -0.915   4.625   2.036  0.00  0.00    -0.343 N 
ATOM     25  H   UNL     1      -0.586   4.649   1.124  0.00  0.00    +0.144 HD
ATOM     26  H   UNL     1      -0.716   5.355   2.643  0.00  0.00    +0.144 HD
ENDBRANCH   2  24
BRANCH   1  27
ATOM     27  C   UNL     1      -2.016   4.386   4.827  0.00  0.00    +0.127 C 
BRANCH  27  28
ATOM     28  C   UNL     1      -3.164   5.396   4.788  0.00  0.00    +0.050 C 
BRANCH  28  29
ATOM     29  C   UNL     1      -2.992   6.407   5.924  0.00  0.00    +0.162 C 
BRANCH  29  30
ATOM     30  O   UNL     1      -4.064   7.351   5.888  0.00  0.00    -0.377 OA
BRANCH  30  32
ATOM     31  C   UNL     1      -4.638   9.640   6.410  0.00  0.00    +0.037 C 
ATOM     32  C   UNL     1      -3.998   8.344   6.914  0.00  0.00    +0.112 C 
ATOM     33  C   UNL     1      -4.751   7.851   8.151  0.00  0.00    +0.037 C 
ENDBRANCH  30  32
ENDBRANCH  29  30
ENDBRANCH  28  29
ENDBRANCH  27  28
ENDBRANCH   1  27
TORSDOF 8
