REMARK  Name = ZINC39595062
REMARK  6 active torsions:
REMARK  status: ('A' for Active; 'I' for Inactive)
REMARK    1  A    between atoms: C_7  and  C_10
REMARK    2  A    between atoms: C_14  and  C_23
REMARK    3  A    between atoms: N_25  and  C_26
REMARK    4  A    between atoms: C_26  and  C_27
REMARK    5  A    between atoms: C_27  and  C_29
REMARK    6  A    between atoms: C_27  and  N_35
REMARK                            x       y       z     vdW  Elec       q    Type
REMARK                         _______ _______ _______ _____ _____    ______ ____
ROOT
ATOM      1  C   UNL     1       0.481  -3.116  -0.084  0.00  0.00    +0.248 C 
ATOM      2  O   UNL     1      -0.690  -2.789  -0.035  0.00  0.00    -0.270 OA
ATOM      3  N   UNL     1       0.812  -4.416  -0.215  0.00  0.00    -0.296 N 
ATOM      4  C   UNL     1       2.166  -5.017  -0.175  0.00  0.00    +0.121 C 
ATOM      5  C   UNL     1       1.985  -6.337   0.606  0.00  0.00    +0.100 C 
ATOM      6  C   UNL     1       0.499  -6.695   0.433  0.00  0.00    -0.004 C 
ATOM      7  C   UNL     1      -0.097  -5.569  -0.425  0.00  0.00    +0.115 C 
ATOM      8  C   UNL     1       0.358  -8.035  -0.281  0.00  0.00    -0.010 C 
ATOM      9  C   UNL     1      -1.126  -8.397  -0.390  0.00  0.00    -0.082 C 
ATOM     10  N   UNL     1      -1.713  -8.471   0.953  0.00  0.00    +0.379 N 
ATOM     11  C   UNL     1      -1.657  -7.154   1.598  0.00  0.00    -0.082 C 
ATOM     12  C   UNL     1      -0.195  -6.740   1.791  0.00  0.00    -0.010 C 
ATOM     13  H   UNL     1      -2.675  -8.769   0.883  0.00  0.00    -0.086 HD
ATOM     14  H   UNL     1      -1.198  -9.138   1.508  0.00  0.00    -0.086 HD
ENDROOT
BRANCH   1  21
ATOM     15  C   UNL     1       0.139   0.896   1.922  0.00  0.00    +0.001 A 
ATOM     16  C   UNL     1       1.261   1.712   1.885  0.00  0.00    +0.001 A 
ATOM     17  C   UNL     1       2.406   1.271   1.250  0.00  0.00    +0.015 A 
ATOM     18  C   UNL     1       2.421   0.025   0.661  0.00  0.00    +0.020 A 
ATOM     19  C   UNL     1       1.297  -0.822   0.685  0.00  0.00    +0.001 A 
ATOM     20  C   UNL     1       0.144  -0.346   1.339  0.00  0.00    +0.010 A 
ATOM     21  C   UNL     1       1.533  -2.095   0.000  0.00  0.00    +0.052 A 
ATOM     22  C   UNL     1       2.756  -2.303  -0.554  0.00  0.00    +0.059 A 
ATOM     23  S   UNL     1       3.633  -0.910  -0.230  0.00  0.00    -0.096 S 
ENDBRANCH   1  21
BRANCH   5  24
ATOM     24  C   UNL     1       2.312  -6.134   2.063  0.00  0.00    +0.218 C 
ATOM     25  O   UNL     1       2.053  -5.078   2.601  0.00  0.00    -0.275 OA
ATOM     26  N   UNL     1       2.891  -7.125   2.768  0.00  0.00    -0.316 N 
ATOM     27  H   UNL     1       3.098  -7.970   2.338  0.00  0.00    +0.149 HD
BRANCH  26  28
ATOM     28  C   UNL     1       3.209  -6.928   4.185  0.00  0.00    +0.093 C 
BRANCH  28  29
ATOM     29  C   UNL     1       3.741  -8.235   4.775  0.00  0.00    -0.019 C 
BRANCH  29  30
ATOM     30  C   UNL     1       5.058  -8.580   4.128  0.00  0.00    -0.041 A 
ATOM     31  C   UNL     1       5.114  -9.515   3.106  0.00  0.00    +0.005 A 
ATOM     32  C   UNL     1       6.347  -9.801   2.540  0.00  0.00    +0.020 A 
ATOM     33  C   UNL     1       7.471  -9.148   3.010  0.00  0.00    +0.111 A 
ATOM     34  N   UNL     1       7.380  -8.264   3.984  0.00  0.00    -0.263 NA
ATOM     35  C   UNL     1       6.223  -7.963   4.542  0.00  0.00    +0.112 A 
ENDBRANCH  29  30
BRANCH  29  36
ATOM     36  N   UNL     1       3.934  -8.076   6.223  0.00  0.00    +0.385 N 
ATOM     37  C   UNL     1       2.621  -7.929   6.901  0.00  0.00    -0.078 C 
ATOM     38  C   UNL     1       2.930  -8.337   8.364  0.00  0.00    -0.020 C 
ATOM     39  C   UNL     1       3.941  -9.494   8.194  0.00  0.00    -0.020 C 
ATOM     40  C   UNL     1       4.548  -9.295   6.793  0.00  0.00    -0.078 C 
ATOM     41  H   UNL     1       4.515  -7.273   6.410  0.00  0.00    -0.081 HD
ENDBRANCH  29  36
ENDBRANCH  28  29
ENDBRANCH  26  28
ENDBRANCH   5  24
TORSDOF 6
