REMARK  Name = ZINC28629263
REMARK  2 active torsions:
REMARK  status: ('A' for Active; 'I' for Inactive)
REMARK    1  A    between atoms: C_4  and  C_7
REMARK    2  A    between atoms: C_23  and  C_25
REMARK                            x       y       z     vdW  Elec       q    Type
REMARK                         _______ _______ _______ _____ _____    ______ ____
ROOT
ATOM      1  C   UNL     1       4.448   2.034  -2.420  0.00  0.00    +0.059 A 
ATOM      2  C   UNL     1       3.431   2.325  -1.484  0.00  0.00    +0.043 A 
ATOM      3  C   UNL     1       2.957   1.298  -0.712  0.00  0.00    +0.136 A 
ATOM      4  N   UNL     1       3.480   0.035  -0.893  0.00  0.00    -0.178 NA
ATOM      5  H   UNL     1       5.712   0.602  -3.283  0.00  0.00    +0.170 HD
ATOM      6  C   UNL     1       4.446  -0.189  -1.796  0.00  0.00    +0.348 A 
ATOM      7  O   UNL     1       4.894  -1.315  -1.932  0.00  0.00    -0.245 OA
ATOM      8  N   UNL     1       4.920   0.801  -2.547  0.00  0.00    -0.305 N 
ATOM      9  N   UNL     1       1.990   1.413   0.244  0.00  0.00    -0.298 N 
ATOM     10  C   UNL     1       0.793   2.104   0.061  0.00  0.00    +0.054 A 
ATOM     11  C   UNL     1      -0.434   1.472   0.138  0.00  0.00    +0.025 A 
ATOM     12  C   UNL     1      -1.593   2.218   0.002  0.00  0.00    +0.002 A 
ATOM     13  C   UNL     1      -1.520   3.586  -0.184  0.00  0.00    +0.002 A 
ATOM     14  C   UNL     1      -0.292   4.219  -0.266  0.00  0.00    +0.025 A 
ATOM     15  C   UNL     1       0.871   3.470  -0.161  0.00  0.00    +0.049 A 
ATOM     16  N   UNL     1       2.121   4.067  -0.311  0.00  0.00    -0.330 N 
ATOM     17  C   UNL     1       2.975   3.758  -1.440  0.00  0.00    +0.155 C 
ATOM     18  H   UNL     1       2.199   0.919   1.205  0.00  0.00    +0.154 HD
ATOM     19  H   UNL     1       2.456   4.786   0.451  0.00  0.00    +0.147 HD
ENDROOT
BRANCH   1  23
ATOM     20  C   UNL     1       6.027   5.148  -4.844  0.00  0.00    +0.000 A 
ATOM     21  C   UNL     1       6.141   5.222  -3.467  0.00  0.00    +0.001 A 
ATOM     22  C   UNL     1       5.630   4.214  -2.675  0.00  0.00    +0.010 A 
ATOM     23  C   UNL     1       4.999   3.119  -3.265  0.00  0.00    -0.001 A 
ATOM     24  C   UNL     1       4.893   3.047  -4.654  0.00  0.00    +0.010 A 
ATOM     25  C   UNL     1       5.402   4.064  -5.435  0.00  0.00    +0.001 A 
ENDBRANCH   1  23
BRANCH  17  26
ATOM     26  C   UNL     1       2.212   4.059  -2.704  0.00  0.00    +0.066 A 
ATOM     27  C   UNL     1       2.536   5.178  -3.448  0.00  0.00    +0.025 A 
ATOM     28  C   UNL     1       1.828   5.446  -4.609  0.00  0.00    +0.003 A 
ATOM     29  C   UNL     1       0.816   4.574  -4.981  0.00  0.00    +0.020 A 
ATOM     30  C   UNL     1       0.549   3.475  -4.188  0.00  0.00    +0.111 A 
ATOM     31  N   UNL     1       1.246   3.249  -3.091  0.00  0.00    -0.258 NA
ENDBRANCH  17  26
TORSDOF 2
