REMARK  Name = ZINC40530253
REMARK  8 active torsions:
REMARK  status: ('A' for Active; 'I' for Inactive)
REMARK    1  A    between atoms: C_1  and  C_2
REMARK    2  A    between atoms: C_5  and  C_8
REMARK    3  A    between atoms: C_13  and  O_22
REMARK    4  A    between atoms: C_17  and  N_21
REMARK    5  A    between atoms: C_18  and  C_19
REMARK    6  A    between atoms: O_22  and  C_23
REMARK    7  A    between atoms: C_23  and  C_25
REMARK    8  A    between atoms: C_26  and  C_35
REMARK                            x       y       z     vdW  Elec       q    Type
REMARK                         _______ _______ _______ _____ _____    ______ ____
ROOT
ATOM      1  C   UNL     1       0.032  -4.266   0.036  0.00  0.00    +0.098 C 
ATOM      2  C   UNL     1       1.284  -4.754   0.715  0.00  0.00    +0.008 A 
ATOM      3  C   UNL     1       2.474  -4.782   0.010  0.00  0.00    +0.012 A 
ATOM      4  C   UNL     1       3.632  -5.227   0.617  0.00  0.00    +0.047 A 
ATOM      5  C   UNL     1       3.605  -5.647   1.939  0.00  0.00    +0.136 A 
ATOM      6  C   UNL     1       2.415  -5.620   2.648  0.00  0.00    +0.093 A 
ATOM      7  C   UNL     1       1.252  -5.172   2.036  0.00  0.00    +0.138 A 
ATOM      8  O   UNL     1       0.095  -5.152   2.744  0.00  0.00    -0.441 OA
ATOM      9  C   UNL     1      -1.083  -5.103   2.101  0.00  0.00    +0.199 C 
ATOM     10  C   UNL     1      -1.179  -4.691   0.818  0.00  0.00    +0.098 C 
ENDROOT
BRANCH   1  15
ATOM     11  C   UNL     1       0.159   1.502  -0.301  0.00  0.00    +0.044 C 
ATOM     12  C   UNL     1       0.126  -0.002  -0.213  0.00  0.00    -0.050 A 
ATOM     13  C   UNL     1       0.060  -0.761  -1.367  0.00  0.00    +0.003 A 
ATOM     14  C   UNL     1       0.030  -2.140  -1.286  0.00  0.00    +0.005 A 
ATOM     15  C   UNL     1       0.066  -2.761  -0.052  0.00  0.00    -0.035 A 
ATOM     16  C   UNL     1       0.133  -2.003   1.102  0.00  0.00    +0.005 A 
ATOM     17  C   UNL     1       0.168  -0.623   1.021  0.00  0.00    +0.003 A 
ENDBRANCH   1  15
BRANCH   9  18
ATOM     18  N   UNL     1      -2.222  -5.480   2.768  0.00  0.00    -0.328 N 
ATOM     19  H   UNL     1      -2.168  -5.777   3.690  0.00  0.00    +0.145 HD
ATOM     20  H   UNL     1      -3.080  -5.451   2.317  0.00  0.00    +0.145 HD
ENDBRANCH   9  18
BRANCH  10  21
ATOM     21  C   UNL     1      -2.465  -4.661   0.189  0.00  0.00    +0.101 C 
ATOM     22  N   UNL     1      -3.486  -4.637  -0.309  0.00  0.00    -0.191 NA
ENDBRANCH  10  21
BRANCH   5  23
ATOM     23  O   UNL     1       4.744  -6.086   2.537  0.00  0.00    -0.420 OA
BRANCH  23  24
ATOM     24  C   UNL     1       4.838  -7.397   2.837  0.00  0.00    +0.380 C 
ATOM     25  O   UNL     1       3.966  -8.166   2.478  0.00  0.00    -0.241 OA
BRANCH  24  26
ATOM     26  C   UNL     1       5.991  -7.897   3.595  0.00  0.00    +0.216 A 
ATOM     27  C   UNL     1       6.193  -9.194   3.948  0.00  0.00    +0.010 A 
ATOM     28  C   UNL     1       7.456  -9.221   4.684  0.00  0.00    +0.025 A 
ATOM     29  C   UNL     1       8.202 -10.229   5.301  0.00  0.00    +0.032 A 
ATOM     30  C   UNL     1       9.377  -9.916   5.925  0.00  0.00    +0.042 A 
ATOM     31  C   UNL     1       9.833  -8.604   5.950  0.00  0.00    +0.023 A 
ATOM     32  C   UNL     1       9.111  -7.596   5.348  0.00  0.00    +0.048 A 
ATOM     33  C   UNL     1       7.913  -7.890   4.707  0.00  0.00    +0.136 A 
ATOM     34  O   UNL     1       7.014  -7.138   4.043  0.00  0.00    -0.448 OA
ATOM     35 CL   UNL     1      10.307 -11.166   6.691  0.00  0.00    -0.084 Cl
ATOM     36  C   UNL     1       5.296 -10.366   3.643  0.00  0.00    +0.048 C 
ENDBRANCH  24  26
ENDBRANCH  23  24
ENDBRANCH   5  23
TORSDOF 6
