REMARK  Name = ZINC59383111
REMARK  8 active torsions:
REMARK  status: ('A' for Active; 'I' for Inactive)
REMARK    1  A    between atoms: C_1  and  C_2
REMARK    2  A    between atoms: C_2  and  C_34
REMARK    3  A    between atoms: C_23  and  C_30
REMARK    4  A    between atoms: C_24  and  C_26
REMARK    5  A    between atoms: C_26  and  O_28
REMARK    6  A    between atoms: O_28  and  C_29
REMARK    7  A    between atoms: C_30  and  O_32
REMARK    8  A    between atoms: O_32  and  C_33
REMARK                            x       y       z     vdW  Elec       q    Type
REMARK                         _______ _______ _______ _____ _____    ______ ____
ROOT
ATOM      1  C   UNL     1      -0.184   1.080  -0.586  0.00  0.00    +0.037 C 
ATOM      2  C   UNL     1      -0.193  -0.433  -0.397  0.00  0.00    +0.065 C 
ATOM      3  C   UNL     1      -1.603  -0.946  -0.084  0.00  0.00    +0.055 C 
ATOM      4  N   UNL     1      -2.067  -1.808  -0.859  0.00  0.00    -0.250 NA
ATOM      5  C   UNL     1      -3.116  -2.638  -0.956  0.00  0.00    +0.105 A 
ATOM      6  C   UNL     1      -3.388  -3.247  -2.190  0.00  0.00    +0.031 A 
ATOM      7  C   UNL     1      -4.415  -4.157  -2.301  0.00  0.00    +0.002 A 
ATOM      8  C   UNL     1      -5.181  -4.471  -1.193  0.00  0.00    +0.004 A 
ATOM      9  C   UNL     1      -4.933  -3.852   0.013  0.00  0.00    +0.048 A 
ATOM     10  C   UNL     1      -3.917  -2.908   0.140  0.00  0.00    +0.149 A 
ATOM     11  O   UNL     1      -3.781  -2.331   1.346  0.00  0.00    -0.462 OA
ATOM     12  C   UNL     1      -3.558  -0.961   1.542  0.00  0.00    +0.224 C 
ATOM     13  C   UNL     1      -2.249  -0.366   1.127  0.00  0.00    +0.133 C 
ATOM     14  C   UNL     1      -1.246  -0.156   2.224  0.00  0.00    -0.012 A 
ATOM     15  C   UNL     1      -1.608   0.466   3.406  0.00  0.00    +0.006 A 
ATOM     16  C   UNL     1      -0.720   0.567   4.460  0.00  0.00    +0.000 A 
ATOM     17  C   UNL     1       0.578   0.112   4.323  0.00  0.00    +0.002 A 
ATOM     18  C   UNL     1       0.990  -0.397   3.108  0.00  0.00    +0.023 A 
ATOM     19  C   UNL     1       0.096  -0.484   2.048  0.00  0.00    +0.032 A 
ATOM     20  N   UNL     1       0.600  -0.816   0.784  0.00  0.00    -0.333 N 
ATOM     21  S   UNL     1      -4.009  -0.535   3.271  0.00  0.00    -0.058 S 
ATOM     22  C   UNL     1      -5.739  -0.178   3.168  0.00  0.00    +0.117 C 
ATOM     23  C   UNL     1      -6.173   0.062   1.911  0.00  0.00    +0.117 C 
ATOM     24  S   UNL     1      -4.907  -0.034   0.681  0.00  0.00    -0.058 S 
ATOM     25  C   UNL     1       0.357  -1.128  -1.642  0.00  0.00    +0.037 C 
ATOM     26  H   UNL     1       1.439  -1.280   0.687  0.00  0.00    +0.147 HD
ENDROOT
BRANCH  23  27
ATOM     27  C   UNL     1      -7.575   0.374   1.593  0.00  0.00    +0.347 C 
ATOM     28  O   UNL     1      -8.341  -0.517   1.282  0.00  0.00    -0.244 OA
BRANCH  27  29
ATOM     29  O   UNL     1      -8.011   1.649   1.646  0.00  0.00    -0.464 OA
ATOM     30  C   UNL     1      -9.384   1.880   1.325  0.00  0.00    +0.280 C 
ENDBRANCH  27  29
ENDBRANCH  23  27
BRANCH  22  31
ATOM     31  C   UNL     1      -6.623  -0.145   4.342  0.00  0.00    +0.347 C 
ATOM     32  O   UNL     1      -7.782   0.201   4.220  0.00  0.00    -0.244 OA
BRANCH  31  33
ATOM     33  O   UNL     1      -6.148  -0.498   5.554  0.00  0.00    -0.464 OA
ATOM     34  C   UNL     1      -7.062  -0.442   6.650  0.00  0.00    +0.280 C 
ENDBRANCH  31  33
ENDBRANCH  22  31
TORSDOF 4
