REMARK  Name = ZINC45731585
REMARK  12 active torsions:
REMARK  status: ('A' for Active; 'I' for Inactive)
REMARK    1  A    between atoms: C_1  and  C_2
REMARK    2  A    between atoms: C_2  and  N_3
REMARK    3  A    between atoms: N_3  and  C_4
REMARK    4  A    between atoms: N_3  and  C_6
REMARK    5  A    between atoms: C_4  and  C_5
REMARK    6  A    between atoms: C_6  and  C_7
REMARK    7  A    between atoms: C_7  and  N_8
REMARK    8  A    between atoms: N_17  and  C_18
REMARK    9  A    between atoms: C_18  and  C_20
REMARK   10  A    between atoms: C_20  and  C_21
REMARK   11  A    between atoms: C_21  and  N_22
REMARK   12  A    between atoms: C_23  and  C_28
REMARK                            x       y       z     vdW  Elec       q    Type
REMARK                         _______ _______ _______ _____ _____    ______ ____
ROOT
ATOM      1  N   UNL     1      -2.325  -4.005   0.563  0.00  0.00    -0.314 N 
ATOM      2  C   UNL     1      -2.201  -4.931  -0.469  0.00  0.00    +0.068 A 
ATOM      3  C   UNL     1      -2.234  -4.817  -1.852  0.00  0.00    +0.028 A 
ATOM      4  C   UNL     1      -2.079  -5.942  -2.637  0.00  0.00    +0.002 A 
ATOM      5  C   UNL     1      -1.893  -7.183  -2.052  0.00  0.00    +0.002 A 
ATOM      6  C   UNL     1      -1.859  -7.306  -0.677  0.00  0.00    +0.028 A 
ATOM      7  C   UNL     1      -2.013  -6.182   0.122  0.00  0.00    +0.066 A 
ATOM      8  N   UNL     1      -2.025  -5.991   1.500  0.00  0.00    -0.326 N 
ATOM      9  C   UNL     1      -2.209  -4.667   1.744  0.00  0.00    +0.201 A 
ATOM     10  N   UNL     1      -2.270  -4.107   2.950  0.00  0.00    -0.147 NA
ATOM     11  H   UNL     1      -1.917  -6.683   2.170  0.00  0.00    +0.169 HD
ENDROOT
BRANCH  10  12
ATOM     12  C   UNL     1      -2.022  -4.835   4.034  0.00  0.00    +0.241 C 
ATOM     13  O   UNL     1      -1.650  -5.988   3.921  0.00  0.00    -0.274 OA
BRANCH  12  14
ATOM     14  C   UNL     1      -2.200  -4.233   5.404  0.00  0.00    +0.119 C 
BRANCH  14  15
ATOM     15  C   UNL     1      -1.851  -5.274   6.469  0.00  0.00    +0.135 C 
BRANCH  15  16
ATOM     16  N   UNL     1      -2.024  -4.688   7.800  0.00  0.00    -0.301 N 
ATOM     17  C   UNL     1      -1.081  -4.013   8.542  0.00  0.00    +0.172 A 
ATOM     18  N   UNL     1      -1.658  -3.661   9.670  0.00  0.00    -0.128 NA
ATOM     19  N   UNL     1      -2.878  -4.064   9.682  0.00  0.00    -0.121 NA
ATOM     20  C   UNL     1      -3.159  -4.692   8.563  0.00  0.00    +0.203 A 
ATOM     21  S   UNL     1      -4.708  -5.411   8.129  0.00  0.00    -0.009 SA
BRANCH  17  22
ATOM     22  C   UNL     1       0.310  -3.738   8.148  0.00  0.00    +0.056 A 
ATOM     23  C   UNL     1       1.207  -2.857   8.698  0.00  0.00    +0.019 A 
ATOM     24  C   UNL     1       2.469  -2.772   8.152  0.00  0.00    +0.008 A 
ATOM     25  C   UNL     1       2.786  -3.558   7.091  0.00  0.00    +0.046 A 
ATOM     26  S   UNL     1       1.273  -4.469   6.833  0.00  0.00    -0.094 S 
ENDBRANCH  17  22
ENDBRANCH  15  16
ENDBRANCH  14  15
ENDBRANCH  12  14
ENDBRANCH  10  12
BRANCH   1  27
ATOM     27  C   UNL     1      -2.536  -2.565   0.403  0.00  0.00    +0.106 C 
BRANCH  27  28
ATOM     28  C   UNL     1      -1.182  -1.856   0.324  0.00  0.00    -0.057 C 
BRANCH  28  29
ATOM     29  N   UNL     1      -1.392  -0.430   0.039  0.00  0.00    +0.380 N 
ATOM     30  H   UNL     1      -1.933  -0.332  -0.807  0.00  0.00    -0.082 HD
BRANCH  29  32
ATOM     31  C   UNL     1      -2.441   1.645   0.807  0.00  0.00    -0.017 C 
ATOM     32  C   UNL     1      -2.113   0.192   1.157  0.00  0.00    -0.082 C 
ENDBRANCH  29  32
BRANCH  29  33
ATOM     33  C   UNL     1      -0.091   0.231  -0.133  0.00  0.00    -0.082 C 
ATOM     34  C   UNL     1       0.609  -0.336  -1.370  0.00  0.00    -0.017 C 
ENDBRANCH  29  33
ENDBRANCH  28  29
ENDBRANCH  27  28
ENDBRANCH   1  27
TORSDOF 10
