REMARK  Name = ZINC11150587
REMARK  9 active torsions:
REMARK  status: ('A' for Active; 'I' for Inactive)
REMARK    1  A    between atoms: C_1  and  C_2
REMARK    2  A    between atoms: C_2  and  O_3
REMARK    3  A    between atoms: O_3  and  C_4
REMARK    4  A    between atoms: C_4  and  C_6
REMARK    5  A    between atoms: C_7  and  C_21
REMARK    6  A    between atoms: C_12  and  C_14
REMARK    7  A    between atoms: C_21  and  O_22
REMARK    8  A    between atoms: O_22  and  C_23
REMARK    9  A    between atoms: C_23  and  C_25
REMARK                            x       y       z     vdW  Elec       q    Type
REMARK                         _______ _______ _______ _____ _____    ______ ____
ROOT
ATOM      1  C   UNL     1      -6.026   5.840   1.196  0.00  0.00    +0.081 C 
ATOM      2  C   UNL     1      -5.325   5.755   0.044  0.00  0.00    +0.061 C 
ATOM      3  N   UNL     1      -5.871   5.189  -1.072  0.00  0.00    -0.269 N 
ATOM      4  C   UNL     1      -7.107   4.676  -1.117  0.00  0.00    +0.304 C 
ATOM      5  O   UNL     1      -7.504   4.188  -2.156  0.00  0.00    -0.252 OA
ATOM      6  N   UNL     1      -7.927   4.688  -0.047  0.00  0.00    -0.288 N 
ATOM      7  C   UNL     1      -7.434   5.281   1.207  0.00  0.00    +0.144 C 
ATOM      8  H   UNL     1      -5.331   5.154  -1.878  0.00  0.00    +0.156 HD
ATOM      9  H   UNL     1      -8.820   4.313  -0.102  0.00  0.00    +0.151 HD
ENDROOT
BRANCH   7  10
ATOM     10  C   UNL     1      -8.373   6.395   1.594  0.00  0.00    -0.022 A 
ATOM     11  C   UNL     1      -8.762   7.329   0.652  0.00  0.00    +0.007 A 
ATOM     12  C   UNL     1      -9.627   8.348   1.004  0.00  0.00    +0.020 A 
ATOM     13  C   UNL     1     -10.095   8.439   2.303  0.00  0.00    +0.041 A 
ATOM     14  C   UNL     1      -9.701   7.507   3.247  0.00  0.00    +0.020 A 
ATOM     15  C   UNL     1      -8.840   6.486   2.892  0.00  0.00    +0.007 A 
ATOM     16 CL   UNL     1     -11.177   9.722   2.748  0.00  0.00    -0.084 Cl
ENDBRANCH   7  10
BRANCH   1  17
ATOM     17  C   UNL     1      -5.464   6.430   2.352  0.00  0.00    +0.339 C 
ATOM     18  O   UNL     1      -5.027   5.726   3.244  0.00  0.00    -0.245 OA
BRANCH  17  19
ATOM     19  O   UNL     1      -5.412   7.774   2.467  0.00  0.00    -0.462 OA
BRANCH  19  21
ATOM     20  C   UNL     1      -4.860   9.830   3.610  0.00  0.00    +0.048 C 
ATOM     21  C   UNL     1      -4.831   8.301   3.661  0.00  0.00    +0.229 C 
ENDBRANCH  19  21
ENDBRANCH  17  19
ENDBRANCH   1  17
BRANCH   2  22
ATOM     22  C   UNL     1      -3.921   6.299  -0.011  0.00  0.00    +0.284 C 
BRANCH  22  23
ATOM     23  O   UNL     1      -3.003   5.226  -0.227  0.00  0.00    -0.453 OA
BRANCH  23  24
ATOM     24  C   UNL     1      -1.694   5.545  -0.302  0.00  0.00    +0.375 C 
ATOM     25  O   UNL     1      -1.343   6.704  -0.187  0.00  0.00    -0.241 OA
BRANCH  24  26
ATOM     26  C   UNL     1      -0.696   4.497  -0.522  0.00  0.00    +0.213 A 
ATOM     27  C   UNL     1       0.655   4.681  -0.618  0.00  0.00    +0.058 A 
ATOM     28  C   UNL     1       1.221   3.416  -0.828  0.00  0.00    +0.058 A 
ATOM     29  C   UNL     1       0.204   2.523  -0.851  0.00  0.00    +0.171 A 
ATOM     30  O   UNL     1      -0.950   3.180  -0.672  0.00  0.00    -0.442 OA
ATOM     31 BR   UNL     1       0.382   0.657  -1.103  0.00  0.00    -0.008 Br
ENDBRANCH  24  26
ENDBRANCH  23  24
ENDBRANCH  22  23
ENDBRANCH   2  22
TORSDOF 8
