REMARK  Name = ZINC25227646
REMARK  5 active torsions:
REMARK  status: ('A' for Active; 'I' for Inactive)
REMARK    1  A    between atoms: C_1  and  C_2
REMARK    2  A    between atoms: C_8  and  N_10
REMARK    3  A    between atoms: N_10  and  C_11
REMARK    4  A    between atoms: N_21  and  C_24
REMARK    5  A    between atoms: C_24  and  C_25
REMARK                            x       y       z     vdW  Elec       q    Type
REMARK                         _______ _______ _______ _____ _____    ______ ____
ROOT
ATOM      1  C   UNL     1      -3.791   0.623  -3.957  0.00  0.00    +0.081 C 
ATOM      2  C   UNL     1      -2.949  -0.295  -3.368  0.00  0.00    +0.059 C 
ATOM      3  C   UNL     1      -2.451  -1.464  -4.123  0.00  0.00    +0.000 A 
ATOM      4  C   UNL     1      -2.808  -1.685  -5.448  0.00  0.00    +0.009 A 
ATOM      5  C   UNL     1      -2.317  -2.792  -6.110  0.00  0.00    +0.001 A 
ATOM      6  C   UNL     1      -1.472  -3.682  -5.463  0.00  0.00    +0.001 A 
ATOM      7  C   UNL     1      -1.107  -3.479  -4.150  0.00  0.00    +0.013 A 
ATOM      8  C   UNL     1      -1.593  -2.366  -3.462  0.00  0.00    +0.045 A 
ATOM      9  C   UNL     1      -1.229  -2.114  -2.062  0.00  0.00    +0.254 C 
ATOM     10  O   UNL     1      -0.489  -2.889  -1.487  0.00  0.00    -0.270 OA
ATOM     11  N   UNL     1      -1.700  -1.041  -1.406  0.00  0.00    -0.230 N 
ATOM     12  C   UNL     1      -2.525  -0.144  -1.971  0.00  0.00    +0.255 C 
ATOM     13  O   UNL     1      -2.921   0.805  -1.320  0.00  0.00    -0.269 OA
ENDROOT
BRANCH   1  14
ATOM     14  N   UNL     1      -4.606   0.243  -4.975  0.00  0.00    -0.346 N 
ATOM     15  H   UNL     1      -4.678  -0.819  -5.254  0.00  0.00    +0.146 HD
BRANCH  14  22
ATOM     16  C   UNL     1      -7.480  -0.027  -5.207  0.00  0.00    +0.009 C 
ATOM     17  C   UNL     1      -6.622   0.583  -6.316  0.00  0.00    +0.006 C 
ATOM     18  C   UNL     1      -7.439   1.631  -7.075  0.00  0.00    +0.005 C 
ATOM     19  C   UNL     1      -6.581   2.242  -8.185  0.00  0.00    +0.000 C 
ATOM     20  C   UNL     1      -5.347   2.905  -7.569  0.00  0.00    +0.002 C 
ATOM     21  C   UNL     1      -4.530   1.857  -6.811  0.00  0.00    +0.022 C 
ATOM     22  C   UNL     1      -5.388   1.246  -5.701  0.00  0.00    +0.073 C 
ENDBRANCH  14  22
ENDBRANCH   1  14
BRANCH  11  23
ATOM     23  C   UNL     1      -1.302  -0.843  -0.010  0.00  0.00    +0.152 C 
BRANCH  23  24
ATOM     24  C   UNL     1      -0.040  -0.019   0.040  0.00  0.00    -0.026 A 
ATOM     25  C   UNL     1      -0.119   1.359   0.108  0.00  0.00    +0.009 A 
ATOM     26  C   UNL     1       1.035   2.119   0.154  0.00  0.00    +0.050 A 
ATOM     27  C   UNL     1       2.274   1.500   0.132  0.00  0.00    +0.166 A 
ATOM     28  C   UNL     1       2.353   0.112   0.063  0.00  0.00    +0.167 A 
ATOM     29  C   UNL     1       1.193  -0.644   0.017  0.00  0.00    +0.054 A 
ATOM     30  O   UNL     1       3.669  -0.251   0.055  0.00  0.00    -0.453 OA
ATOM     31  C   UNL     1       4.388   0.903   0.530  0.00  0.00    +0.466 C 
ATOM     32  O   UNL     1       3.540   2.008   0.166  0.00  0.00    -0.453 OA
ENDBRANCH  23  24
ENDBRANCH  11  23
TORSDOF 4
