REMARK  Name = ZINC21084841
REMARK  6 active torsions:
REMARK  status: ('A' for Active; 'I' for Inactive)
REMARK    1  A    between atoms: C_6  and  N_7
REMARK    2  A    between atoms: C_8  and  C_10
REMARK    3  A    between atoms: C_10  and  C_11
REMARK    4  A    between atoms: C_11  and  S_12
REMARK    5  A    between atoms: S_12  and  C_13
REMARK    6  A    between atoms: N_19  and  N_20
REMARK                            x       y       z     vdW  Elec       q    Type
REMARK                         _______ _______ _______ _____ _____    ______ ____
ROOT
ATOM      1  S   UNL     1      -3.739  -5.244  -0.444  0.00  0.00    -0.086 S 
ENDROOT
BRANCH   1   2
ATOM      2  C   UNL     1      -3.233  -6.927  -0.564  0.00  0.00    +0.190 A 
ATOM      3  N   UNL     1      -4.060  -8.008  -0.685  0.00  0.00    -0.303 N 
ATOM      4  H   UNL     1      -5.029  -7.983  -0.721  0.00  0.00    +0.171 HD
ATOM      5  C   UNL     1      -3.282  -9.130  -0.749  0.00  0.00    +0.235 A 
ATOM      6  N   UNL     1      -2.028  -8.759  -0.671  0.00  0.00    -0.111 NA
ATOM      7  N   UNL     1      -1.996  -7.362  -0.559  0.00  0.00    -0.121 NA
ATOM      8  N   UNL     1      -3.741 -10.434  -0.875  0.00  0.00    -0.205 N 
ATOM      9  H   UNL     1      -4.693 -10.611  -0.926  0.00  0.00    +0.177 HD
BRANCH   8  10
ATOM     10  N   UNL     1      -2.828 -11.496  -0.928  0.00  0.00    -0.189 NA
ATOM     11  C   UNL     1      -3.251 -12.699  -1.044  0.00  0.00    +0.037 C 
ATOM     12  C   UNL     1      -4.697 -13.136  -1.142  0.00  0.00    +0.052 C 
ATOM     13  C   UNL     1      -4.693 -14.674  -1.258  0.00  0.00    +0.006 C 
ATOM     14  C   UNL     1      -3.335 -15.087  -0.635  0.00  0.00    +0.006 C 
ATOM     15  C   UNL     1      -2.394 -13.950  -1.116  0.00  0.00    +0.052 C 
ENDBRANCH   8  10
ENDBRANCH   1   2
BRANCH   1  16
ATOM     16  C   UNL     1      -2.180  -4.325  -0.317  0.00  0.00    +0.086 C 
BRANCH  16  17
ATOM     17  C   UNL     1      -2.478  -2.828  -0.205  0.00  0.00    +0.107 C 
BRANCH  17  19
ATOM     18  N   UNL     1      -1.199  -0.722   0.010  0.00  0.00    -0.285 N 
ATOM     19  C   UNL     1      -1.183  -2.065  -0.100  0.00  0.00    +0.218 C 
ATOM     20  O   UNL     1      -0.126  -2.659  -0.113  0.00  0.00    -0.275 OA
ATOM     21  H   UNL     1      -2.044  -0.253   0.097  0.00  0.00    +0.155 HD
BRANCH  18  27
ATOM     22  C   UNL     1       1.072  -0.453  -0.766  0.00  0.00    +0.024 A 
ATOM     23  C   UNL     1       2.256   0.258  -0.777  0.00  0.00    +0.016 A 
ATOM     24  C   UNL     1       2.377   1.416  -0.030  0.00  0.00    +0.013 A 
ATOM     25  C   UNL     1       1.312   1.866   0.730  0.00  0.00    +0.016 A 
ATOM     26  C   UNL     1       0.126   1.159   0.745  0.00  0.00    +0.024 A 
ATOM     27  C   UNL     1       0.002  -0.004  -0.004  0.00  0.00    +0.033 A 
ATOM     28  I   UNL     1       4.175   2.490  -0.050  0.00  0.00    -0.044 I 
ENDBRANCH  18  27
ENDBRANCH  17  19
ENDBRANCH  16  17
ENDBRANCH   1  16
TORSDOF 6
