REMARK  Name = ZINC09944293
REMARK  8 active torsions:
REMARK  status: ('A' for Active; 'I' for Inactive)
REMARK    1  A    between atoms: C_1  and  C_2
REMARK    2  A    between atoms: N_5  and  C_8
REMARK    3  A    between atoms: C_10  and  C_17
REMARK    4  A    between atoms: C_18  and  C_19
REMARK    5  A    between atoms: C_18  and  C_21
REMARK    6  A    between atoms: C_22  and  C_33
REMARK    7  A    between atoms: C_23  and  N_32
REMARK    8  A    between atoms: N_24  and  C_26
REMARK                            x       y       z     vdW  Elec       q    Type
REMARK                         _______ _______ _______ _____ _____    ______ ____
ROOT
ATOM      1  C   UNL     1      -2.552   4.167   0.047  0.00  0.00    +0.029 C 
ATOM      2  C   UNL     1      -3.674   3.578   0.549  0.00  0.00    +0.081 C 
ENDROOT
BRANCH   1   5
ATOM      3  C   UNL     1      -0.046   1.371  -0.231  0.00  0.00    +0.100 A 
ATOM      4  C   UNL     1      -1.272   2.041  -0.197  0.00  0.00    +0.050 A 
ATOM      5  C   UNL     1      -1.292   3.421  -0.002  0.00  0.00    -0.011 A 
ATOM      6  C   UNL     1       0.002   4.097   0.148  0.00  0.00    +0.006 A 
ATOM      7  C   UNL     1       0.087   5.478   0.343  0.00  0.00    +0.010 A 
ATOM      8  C   UNL     1       1.311   6.066   0.478  0.00  0.00    +0.001 A 
ATOM      9  C   UNL     1       2.475   5.306   0.423  0.00  0.00    +0.002 A 
ATOM     10  C   UNL     1       2.427   3.958   0.233  0.00  0.00    +0.026 A 
ATOM     11  C   UNL     1       1.183   3.319   0.091  0.00  0.00    +0.048 A 
ATOM     12  N   UNL     1       1.175   1.951  -0.098  0.00  0.00    -0.343 N 
ATOM     13  H   UNL     1       2.043   1.404  -0.136  0.00  0.00    +0.167 HD
BRANCH   3  18
ATOM     14  C   UNL     1       0.456  -4.017  -1.805  0.00  0.00    +0.007 C 
ATOM     15  C   UNL     1       0.549  -2.491  -1.765  0.00  0.00    -0.011 C 
ATOM     16  C   UNL     1       1.294  -2.056  -0.500  0.00  0.00    +0.022 C 
ATOM     17  C   UNL     1       1.331  -0.528  -0.435  0.00  0.00    +0.107 C 
ATOM     18  N   UNL     1      -0.040  -0.004  -0.421  0.00  0.00    -0.317 N 
ATOM     19  C   UNL     1      -0.760  -0.368  -1.648  0.00  0.00    +0.107 C 
ATOM     20  C   UNL     1      -0.860  -1.892  -1.749  0.00  0.00    +0.022 C 
ENDBRANCH   3  18
ENDBRANCH   1   5
BRANCH   2  21
ATOM     21  C   UNL     1      -4.975   4.273   0.464  0.00  0.00    +0.123 A 
ATOM     22  C   UNL     1      -6.264   3.771   0.956  0.00  0.00    +0.119 A 
ATOM     23  C   UNL     1      -7.204   4.754   0.663  0.00  0.00    +0.138 A 
ATOM     24  N   UNL     1      -6.551   5.771   0.045  0.00  0.00    -0.217 N 
ATOM     25  N   UNL     1      -5.193   5.459  -0.061  0.00  0.00    -0.163 NA
BRANCH  24  26
ATOM     26  C   UNL     1      -7.146   6.954  -0.412  0.00  0.00    +0.067 A 
ATOM     27  C   UNL     1      -8.433   6.929  -0.934  0.00  0.00    +0.028 A 
ATOM     28  C   UNL     1      -9.019   8.098  -1.377  0.00  0.00    +0.002 A 
ATOM     29  C   UNL     1      -8.322   9.290  -1.314  0.00  0.00    +0.000 A 
ATOM     30  C   UNL     1      -7.038   9.318  -0.800  0.00  0.00    +0.002 A 
ATOM     31  C   UNL     1      -6.448   8.153  -0.349  0.00  0.00    +0.028 A 
ENDBRANCH  24  26
BRANCH  23  32
ATOM     32  N   UNL     1      -8.554   4.704   0.948  0.00  0.00    -0.342 N 
ATOM     33  H   UNL     1      -8.927   3.928   1.395  0.00  0.00    +0.144 HD
ATOM     34  H   UNL     1      -9.130   5.445   0.702  0.00  0.00    +0.144 HD
ENDBRANCH  23  32
BRANCH  22  35
ATOM     35  C   UNL     1      -6.506   2.519   1.608  0.00  0.00    +0.105 C 
ATOM     36  N   UNL     1      -6.698   1.526   2.126  0.00  0.00    -0.191 NA
ENDBRANCH  22  35
ENDBRANCH   2  21
BRANCH   2  37
ATOM     37  C   UNL     1      -3.591   2.284   1.158  0.00  0.00    +0.101 C 
ATOM     38  N   UNL     1      -3.526   1.258   1.641  0.00  0.00    -0.191 NA
ENDBRANCH   2  37
TORSDOF 7
