REMARK  Name = ZINC61020750
REMARK  10 active torsions:
REMARK  status: ('A' for Active; 'I' for Inactive)
REMARK    1  A    between atoms: C_1  and  C_2
REMARK    2  A    between atoms: C_2  and  C_3
REMARK    3  A    between atoms: C_2  and  C_4
REMARK    4  A    between atoms: C_4  and  C_5
REMARK    5  A    between atoms: C_4  and  N_11
REMARK    6  A    between atoms: C_12  and  C_14
REMARK    7  A    between atoms: C_14  and  N_15
REMARK    8  A    between atoms: N_15  and  C_16
REMARK    9  A    between atoms: C_21  and  N_22
REMARK   10  A    between atoms: C_25  and  O_28
REMARK                            x       y       z     vdW  Elec       q    Type
REMARK                         _______ _______ _______ _____ _____    ______ ____
ROOT
ATOM      1  N   UNL     1      -1.142  -4.650  -2.551  0.00  0.00    -0.334 N 
ATOM      2  H   UNL     1      -1.083  -4.016  -3.283  0.00  0.00    +0.147 HD
ENDROOT
BRANCH   1   3
ATOM      3  C   UNL     1      -1.123  -6.022  -2.813  0.00  0.00    +0.047 A 
ATOM      4  C   UNL     1      -1.087  -6.930  -1.762  0.00  0.00    +0.025 A 
ATOM      5  C   UNL     1      -1.068  -8.286  -2.025  0.00  0.00    +0.002 A 
ATOM      6  C   UNL     1      -1.084  -8.739  -3.331  0.00  0.00    +0.002 A 
ATOM      7  C   UNL     1      -1.118  -7.838  -4.379  0.00  0.00    +0.023 A 
ATOM      8  C   UNL     1      -1.144  -6.481  -4.124  0.00  0.00    +0.035 A 
BRANCH   8   9
ATOM      9  N   UNL     1      -1.185  -5.570  -5.183  0.00  0.00    -0.392 NA
ATOM     10  C   UNL     1      -0.049  -5.814  -6.080  0.00  0.00    +0.087 C 
ATOM     11  C   UNL     1      -0.043  -4.768  -7.198  0.00  0.00    +0.048 C 
ATOM     12  C   UNL     1      -1.351  -4.867  -7.989  0.00  0.00    +0.117 C 
ATOM     13  C   UNL     1      -2.531  -4.685  -7.030  0.00  0.00    +0.048 C 
ATOM     14  C   UNL     1      -2.444  -5.734  -5.919  0.00  0.00    +0.087 C 
ATOM     15  H   UNL     1      -1.128  -4.630  -4.820  0.00  0.00    +0.126 HD
BRANCH  12  16
ATOM     16  O   UNL     1      -1.384  -3.845  -8.987  0.00  0.00    -0.392 OA
ATOM     17  H   UNL     1      -2.186  -3.849  -9.527  0.00  0.00    +0.210 HD
ENDBRANCH  12  16
ENDBRANCH   8   9
ENDBRANCH   1   3
BRANCH   1  18
ATOM     18  C   UNL     1      -1.252  -4.169  -1.172  0.00  0.00    +0.197 C 
BRANCH  18  20
ATOM     19  N   UNL     1      -1.345  -1.994   0.003  0.00  0.00    -0.307 N 
ATOM     20  C   UNL     1      -1.252  -2.662  -1.164  0.00  0.00    +0.231 C 
ATOM     21  O   UNL     1      -1.168  -2.050  -2.208  0.00  0.00    -0.274 OA
ATOM     22  H   UNL     1      -1.412  -2.483   0.838  0.00  0.00    +0.149 HD
BRANCH  19  23
ATOM     23  C   UNL     1      -1.344  -0.529   0.011  0.00  0.00    +0.106 C 
BRANCH  23  24
ATOM     24  C   UNL     1      -2.046  -0.033   1.249  0.00  0.00    -0.027 A 
ATOM     25  C   UNL     1      -1.845  -0.670   2.459  0.00  0.00    +0.005 A 
ATOM     26  C   UNL     1      -2.488  -0.215   3.595  0.00  0.00    +0.000 A 
ATOM     27  C   UNL     1      -3.332   0.877   3.521  0.00  0.00    +0.000 A 
ATOM     28  C   UNL     1      -3.532   1.515   2.311  0.00  0.00    +0.000 A 
ATOM     29  C   UNL     1      -2.885   1.063   1.176  0.00  0.00    +0.005 A 
ENDBRANCH  23  24
BRANCH  23  31
ATOM     30  C   UNL     1       0.099   1.510   0.011  0.00  0.00    +0.009 C 
ATOM     31  C   UNL     1       0.098  -0.020   0.003  0.00  0.00    +0.008 C 
ATOM     32  C   UNL     1       0.829  -0.536   1.244  0.00  0.00    +0.009 C 
ENDBRANCH  23  31
ENDBRANCH  19  23
ENDBRANCH  18  20
ENDBRANCH   1  18
TORSDOF 8
