REMARK  Name = ZINC63807285
REMARK  6 active torsions:
REMARK  status: ('A' for Active; 'I' for Inactive)
REMARK    1  A    between atoms: C_1  and  N_2
REMARK    2  A    between atoms: C_3  and  C_29
REMARK    3  A    between atoms: C_5  and  C_15
REMARK    4  A    between atoms: N_17  and  C_18
REMARK    5  A    between atoms: C_18  and  C_19
REMARK    6  A    between atoms: C_19  and  C_20
REMARK                            x       y       z     vdW  Elec       q    Type
REMARK                         _______ _______ _______ _____ _____    ______ ____
ROOT
ATOM      1  C   UNL     1      -0.018   1.461   0.010  0.00  0.00    +0.133 C 
ATOM      2  N   UNL     1       0.002  -0.004   0.002  0.00  0.00    -0.292 N 
ATOM      3  C   UNL     1      -1.260  -0.740   0.004  0.00  0.00    +0.122 C 
ATOM      4  C   UNL     1      -1.188  -1.951  -0.922  0.00  0.00    +0.130 C 
ATOM      5  C   UNL     1       0.043  -2.764  -0.618  0.00  0.00    -0.021 A 
ATOM      6  C   UNL     1       0.033  -4.135  -0.759  0.00  0.00    +0.005 A 
ATOM      7  C   UNL     1       1.178  -4.865  -0.489  0.00  0.00    +0.000 A 
ATOM      8  C   UNL     1       2.335  -4.228  -0.079  0.00  0.00    +0.001 A 
ATOM      9  C   UNL     1       2.356  -2.856   0.071  0.00  0.00    +0.013 A 
ATOM     10  C   UNL     1       1.205  -2.117  -0.193  0.00  0.00    +0.041 A 
ATOM     11  C   UNL     1       1.183  -0.651  -0.013  0.00  0.00    +0.247 C 
ATOM     12  O   UNL     1       2.222  -0.035   0.125  0.00  0.00    -0.270 OA
ENDROOT
BRANCH   3  13
ATOM     13  C   UNL     1      -1.558  -1.207   1.405  0.00  0.00    -0.022 A 
ATOM     14  C   UNL     1      -0.536  -1.680   2.207  0.00  0.00    +0.009 A 
ATOM     15  C   UNL     1      -0.805  -2.109   3.494  0.00  0.00    +0.050 A 
ATOM     16  C   UNL     1      -2.100  -2.067   3.982  0.00  0.00    +0.166 A 
ATOM     17  C   UNL     1      -3.130  -1.591   3.175  0.00  0.00    +0.167 A 
ATOM     18  C   UNL     1      -2.853  -1.157   1.888  0.00  0.00    +0.055 A 
ATOM     19  O   UNL     1      -4.299  -1.649   3.878  0.00  0.00    -0.453 OA
ATOM     20  C   UNL     1      -4.042  -2.545   4.976  0.00  0.00    +0.466 C 
ATOM     21  O   UNL     1      -2.624  -2.424   5.191  0.00  0.00    -0.453 OA
ENDBRANCH   3  13
BRANCH   4  22
ATOM     22  C   UNL     1      -1.134  -1.483  -2.354  0.00  0.00    +0.223 C 
ATOM     23  O   UNL     1      -1.151  -0.297  -2.605  0.00  0.00    -0.275 OA
ATOM     24  N   UNL     1      -1.066  -2.383  -3.355  0.00  0.00    -0.314 N 
ATOM     25  H   UNL     1      -1.052  -3.332  -3.154  0.00  0.00    +0.149 HD
BRANCH  24  26
ATOM     26  C   UNL     1      -1.013  -1.928  -4.746  0.00  0.00    +0.108 C 
BRANCH  26  27
ATOM     27  C   UNL     1      -0.941  -3.140  -5.677  0.00  0.00    +0.052 C 
BRANCH  27  28
ATOM     28  C   UNL     1      -0.887  -2.672  -7.109  0.00  0.00    -0.040 C 
ATOM     29  C   UNL     1       0.221  -2.487  -7.862  0.00  0.00    -0.001 A 
ATOM     30  C   UNL     1       1.652  -2.660  -7.586  0.00  0.00    +0.010 A 
ATOM     31  C   UNL     1       2.546  -2.390  -8.563  0.00  0.00    +0.001 A 
ATOM     32  C   UNL     1       2.142  -1.949  -9.831  0.00  0.00    +0.002 A 
ATOM     33  C   UNL     1       0.846  -1.766 -10.160  0.00  0.00    +0.026 A 
ATOM     34  C   UNL     1      -0.180  -2.021  -9.209  0.00  0.00    +0.043 A 
ATOM     35  N   UNL     1      -1.485  -1.921  -9.285  0.00  0.00    -0.380 N 
ATOM     36  C   UNL     1      -2.061  -2.319  -7.995  0.00  0.00    +0.144 C 
ATOM     37  H   UNL     1      -1.987  -1.636 -10.064  0.00  0.00    +0.160 HD
ENDBRANCH  27  28
ENDBRANCH  26  27
ENDBRANCH  24  26
ENDBRANCH   4  22
TORSDOF 5
