REMARK  Name = ZINC14644437
REMARK  11 active torsions:
REMARK  status: ('A' for Active; 'I' for Inactive)
REMARK    1  A    between atoms: C_1  and  C_2
REMARK    2  A    between atoms: C_2  and  C_3
REMARK    3  A    between atoms: C_3  and  C_4
REMARK    4  A    between atoms: C_4  and  C_5
REMARK    5  A    between atoms: N_7  and  C_8
REMARK    6  A    between atoms: C_11  and  C_14
REMARK    7  A    between atoms: N_16  and  N_17
REMARK    8  A    between atoms: C_18  and  C_20
REMARK    9  A    between atoms: C_20  and  C_22
REMARK   10  A    between atoms: C_20  and  O_23
REMARK   11  A    between atoms: O_23  and  C_24
REMARK                            x       y       z     vdW  Elec       q    Type
REMARK                         _______ _______ _______ _____ _____    ______ ____
ROOT
ATOM      1  C   UNL     1      -5.843   3.224  -0.429  0.00  0.00    +0.260 C 
ATOM      2  O   UNL     1      -6.710   2.385  -0.277  0.00  0.00    -0.269 OA
ATOM      3  N   UNL     1      -6.180   4.503  -0.684  0.00  0.00    -0.230 N 
ATOM      4  H   UNL     1      -5.489   5.172  -0.805  0.00  0.00    +0.173 HD
ENDROOT
BRANCH   1   8
ATOM      5  C   UNL     1      -1.750   2.121  -0.159  0.00  0.00    +0.033 A 
ATOM      6  C   UNL     1      -2.097   3.444  -0.416  0.00  0.00    +0.024 A 
ATOM      7  C   UNL     1      -3.423   3.803  -0.510  0.00  0.00    +0.015 A 
ATOM      8  C   UNL     1      -4.420   2.841  -0.335  0.00  0.00    +0.038 A 
ATOM      9  C   UNL     1      -4.068   1.514  -0.071  0.00  0.00    +0.015 A 
ATOM     10  C   UNL     1      -2.741   1.160   0.016  0.00  0.00    +0.024 A 
BRANCH   5  13
ATOM     11  C   UNL     1       0.488   2.615   0.462  0.00  0.00    +0.217 C 
ATOM     12  O   UNL     1       0.139   3.727   0.798  0.00  0.00    -0.275 OA
ATOM     13  N   UNL     1      -0.406   1.759  -0.070  0.00  0.00    -0.285 N 
ATOM     14  H   UNL     1      -0.115   0.893  -0.395  0.00  0.00    +0.155 HD
BRANCH  11  15
ATOM     15  C   UNL     1       1.924   2.191   0.638  0.00  0.00    +0.096 C 
BRANCH  15  16
ATOM     16  C   UNL     1       2.722   3.340   1.258  0.00  0.00    +0.009 C 
BRANCH  16  18
ATOM     17  C   UNL     1       4.978   4.058   2.057  0.00  0.00    +0.004 C 
ATOM     18  C   UNL     1       4.179   2.909   1.437  0.00  0.00    -0.003 C 
ENDBRANCH  16  18
ENDBRANCH  15  16
ENDBRANCH  11  15
ENDBRANCH   5  13
ENDBRANCH   1   8
BRANCH   3  19
ATOM     19  N   UNL     1      -7.530   4.867  -0.774  0.00  0.00    -0.231 N 
ATOM     20  C   UNL     1      -7.868   6.146  -1.028  0.00  0.00    +0.270 C 
ATOM     21  O   UNL     1      -7.003   6.983  -1.180  0.00  0.00    -0.270 OA
ATOM     22  H   UNL     1      -8.222   4.198  -0.652  0.00  0.00    +0.173 HD
BRANCH  20  23
ATOM     23  C   UNL     1      -9.320   6.538  -1.125  0.00  0.00    +0.257 C 
ATOM     24  C   UNL     1      -9.992   6.344   0.236  0.00  0.00    +0.062 C 
BRANCH  23  25
ATOM     25  O   UNL     1      -9.419   7.909  -1.514  0.00  0.00    -0.479 OA
BRANCH  25  26
ATOM     26  C   UNL     1     -10.570   8.295  -2.126  0.00  0.00    +0.136 A 
ATOM     27  C   UNL     1     -11.543   7.355  -2.432  0.00  0.00    +0.048 A 
ATOM     28  C   UNL     1     -12.714   7.750  -3.049  0.00  0.00    +0.023 A 
ATOM     29  C   UNL     1     -12.912   9.081  -3.373  0.00  0.00    +0.042 A 
ATOM     30  C   UNL     1     -11.941  10.020  -3.075  0.00  0.00    +0.039 A 
ATOM     31  C   UNL     1     -10.770   9.629  -2.452  0.00  0.00    +0.061 A 
ATOM     32 BR   UNL     1      -9.441  10.912  -2.045  0.00  0.00    -0.046 Br
ATOM     33 CL   UNL     1     -14.382   9.573  -4.155  0.00  0.00    -0.084 Cl
ENDBRANCH  25  26
ENDBRANCH  23  25
ENDBRANCH  20  23
ENDBRANCH   3  19
TORSDOF 9
