REMARK  Name = ZINC41291970
REMARK  2 active torsions:
REMARK  status: ('A' for Active; 'I' for Inactive)
REMARK    1  A    between atoms: C_3  and  C_6
REMARK    2  A    between atoms: C_13  and  C_14
REMARK                            x       y       z     vdW  Elec       q    Type
REMARK                         _______ _______ _______ _____ _____    ______ ____
ROOT
ATOM      1  C   UNL     1       3.562   0.618  -0.029  0.00  0.00    +0.041 A 
ATOM      2  C   UNL     1       4.257   0.097  -1.145  0.00  0.00    -0.017 A 
ATOM      3  C   UNL     1       5.609   0.071  -1.147  0.00  0.00    +0.023 A 
ATOM      4  N   UNL     1       6.319   0.541  -0.082  0.00  0.00    -0.325 N 
ATOM      5  H   UNL     1       7.288   0.509  -0.111  0.00  0.00    +0.169 HD
ATOM      6  C   UNL     1       5.718   1.048   1.007  0.00  0.00    +0.264 A 
ATOM      7  O   UNL     1       6.388   1.460   1.939  0.00  0.00    -0.267 OA
ATOM      8  C   UNL     1       4.303   1.109   1.069  0.00  0.00    +0.138 A 
ATOM      9  C   UNL     1       6.114  -0.529  -2.446  0.00  0.00    +0.054 C 
ATOM     10  C   UNL     1       4.898  -1.263  -3.050  0.00  0.00    +0.011 C 
ATOM     11  C   UNL     1       3.717  -0.481  -2.437  0.00  0.00    +0.038 C 
ENDROOT
BRANCH   1  14
ATOM     12  C   UNL     1      -0.016   1.347   0.009  0.00  0.00    +0.042 A 
ATOM     13  C   UNL     1       1.320   1.778  -0.001  0.00  0.00    +0.050 A 
ATOM     14  C   UNL     1       2.095   0.654  -0.014  0.00  0.00    +0.136 A 
ATOM     15  O   UNL     1       1.277  -0.418  -0.012  0.00  0.00    -0.463 OA
ATOM     16  C   UNL     1       0.002  -0.004   0.002  0.00  0.00    +0.196 A 
ENDBRANCH   1  14
BRANCH   8  17
ATOM     17  C   UNL     1       3.648   1.646   2.205  0.00  0.00    +0.392 C 
ATOM     18  O   UNL     1       2.425   1.688   2.244  0.00  0.00    -0.240 OA
ATOM     19  O   UNL     1       4.306   2.068   3.149  0.00  0.00    -0.240 OA
ENDBRANCH   8  17
TORSDOF 2
