REMARK  Name = ZINC05815126
REMARK  2 active torsions:
REMARK  status: ('A' for Active; 'I' for Inactive)
REMARK    1  A    between atoms: C_1  and  C_2
REMARK    2  A    between atoms: C_16  and  C_18
REMARK                            x       y       z     vdW  Elec       q    Type
REMARK                         _______ _______ _______ _____ _____    ______ ____
ROOT
ATOM      1  C   UNL     1      -1.302  -0.760   0.011  0.00  0.00    +0.044 C 
ATOM      2  C   UNL     1       0.002  -0.004   0.002  0.00  0.00    -0.050 A 
ATOM      3  C   UNL     1       1.190  -0.706  -0.014  0.00  0.00    +0.005 A 
ATOM      4  C   UNL     1       2.420  -0.068  -0.021  0.00  0.00    +0.024 A 
ATOM      5  C   UNL     1       2.416   1.328  -0.012  0.00  0.00    +0.043 A 
ATOM      6  C   UNL     1       1.203   2.029   0.002  0.00  0.00    +0.047 A 
ATOM      7  C   UNL     1      -0.017   1.386   0.010  0.00  0.00    +0.015 A 
ATOM      8  C   UNL     1       1.562   3.478   0.005  0.00  0.00    +0.298 C 
ATOM      9  C   UNL     1       3.073   3.498  -0.005  0.00  0.00    +0.287 C 
ATOM     10  O   UNL     1       3.782   4.481  -0.005  0.00  0.00    -0.269 OA
ATOM     11  N   UNL     1       3.482   2.211  -0.014  0.00  0.00    -0.280 N 
ATOM     12  N   UNL     1       1.045   4.157   1.192  0.00  0.00    -0.195 N 
ATOM     13  C   UNL     1      -0.413   4.340   1.381  0.00  0.00    +0.137 C 
ATOM     14  C   UNL     1      -0.480   5.433   2.455  0.00  0.00    +0.086 C 
ATOM     15  C   UNL     1       0.943   5.515   2.970  0.00  0.00    +0.068 C 
ATOM     16  N   UNL     1       1.708   4.773   2.238  0.00  0.00    -0.184 NA
ATOM     17  C   UNL     1      -0.959   4.812   0.059  0.00  0.00    +0.017 A 
ATOM     18  C   UNL     1      -2.224   5.370   0.014  0.00  0.00    +0.009 A 
ATOM     19  C   UNL     1      -2.771   5.765  -1.191  0.00  0.00    +0.001 A 
ATOM     20  C   UNL     1      -2.046   5.604  -2.358  0.00  0.00    +0.004 A 
ATOM     21  C   UNL     1      -0.781   5.060  -2.317  0.00  0.00    +0.046 A 
ATOM     22  C   UNL     1      -0.218   4.664  -1.104  0.00  0.00    +0.129 A 
ATOM     23  O   UNL     1       1.041   4.153  -1.137  0.00  0.00    -0.454 OA
ATOM     24  H   UNL     1       4.412   1.938  -0.021  0.00  0.00    +0.155 HD
ENDROOT
BRANCH  15  25
ATOM     25  C   UNL     1       1.386   6.317   4.125  0.00  0.00    -0.002 A 
ATOM     26  C   UNL     1       0.465   7.088   4.839  0.00  0.00    +0.010 A 
ATOM     27  C   UNL     1       0.885   7.831   5.922  0.00  0.00    +0.001 A 
ATOM     28  C   UNL     1       2.218   7.823   6.296  0.00  0.00    +0.000 A 
ATOM     29  C   UNL     1       3.136   7.066   5.590  0.00  0.00    +0.001 A 
ATOM     30  C   UNL     1       2.729   6.314   4.508  0.00  0.00    +0.010 A 
ENDBRANCH  15  25
TORSDOF 1
