REMARK  Name = ZINC52858352
REMARK  4 active torsions:
REMARK  status: ('A' for Active; 'I' for Inactive)
REMARK    1  A    between atoms: C_3  and  N_10
REMARK    2  A    between atoms: C_4  and  C_8
REMARK    3  A    between atoms: N_10  and  C_11
REMARK    4  A    between atoms: C_17  and  O_19
REMARK                            x       y       z     vdW  Elec       q    Type
REMARK                         _______ _______ _______ _____ _____    ______ ____
ROOT
ATOM      1  N   UNL     1       3.572   2.148  -0.021  0.00  0.00    -0.338 N 
ATOM      2  H   UNL     1       4.422   1.680  -0.032  0.00  0.00    +0.146 HD
ENDROOT
BRANCH   1   5
ATOM      3  C   UNL     1      -0.017   1.382   0.010  0.00  0.00    +0.022 A 
ATOM      4  C   UNL     1       1.164   2.097   0.002  0.00  0.00    +0.025 A 
ATOM      5  C   UNL     1       2.382   1.430  -0.013  0.00  0.00    +0.045 A 
ATOM      6  C   UNL     1       2.405   0.026  -0.021  0.00  0.00    +0.074 A 
ATOM      7  C   UNL     1       1.202  -0.684  -0.013  0.00  0.00    +0.040 A 
ATOM      8  C   UNL     1       0.002  -0.004   0.002  0.00  0.00    +0.042 A 
ATOM      9 CL   UNL     1      -1.492  -0.888   0.011  0.00  0.00    -0.084 Cl
BRANCH   6  10
ATOM     10  C   UNL     1       3.654  -0.673  -0.037  0.00  0.00    +0.101 C 
ATOM     11  N   UNL     1       4.646  -1.228  -0.050  0.00  0.00    -0.191 NA
ENDBRANCH   6  10
ENDBRANCH   1   5
BRANCH   1  12
ATOM     12  C   UNL     1       3.544   3.613  -0.013  0.00  0.00    +0.099 C 
ATOM     13  C   UNL     1       3.422   4.113   1.427  0.00  0.00    +0.025 C 
ATOM     14  C   UNL     1       3.393   5.643   1.435  0.00  0.00    +0.002 C 
ATOM     15  C   UNL     1       4.684   6.181   0.816  0.00  0.00    +0.003 C 
ATOM     16  C   UNL     1       4.806   5.681  -0.625  0.00  0.00    +0.033 C 
ATOM     17  C   UNL     1       4.835   4.152  -0.633  0.00  0.00    +0.135 C 
BRANCH  17  18
ATOM     18  O   UNL     1       5.955   3.693   0.127  0.00  0.00    -0.390 OA
ATOM     19  H   UNL     1       6.810   3.997  -0.209  0.00  0.00    +0.210 HD
ENDBRANCH  17  18
ENDBRANCH   1  12
TORSDOF 4
