REMARK  Name = ZINC37359115
REMARK  7 active torsions:
REMARK  status: ('A' for Active; 'I' for Inactive)
REMARK    1  A    between atoms: C_1  and  C_2
REMARK    2  A    between atoms: C_2  and  C_3
REMARK    3  A    between atoms: C_2  and  C_4
REMARK    4  A    between atoms: C_4  and  N_5
REMARK    5  A    between atoms: C_8  and  C_23
REMARK    6  A    between atoms: C_10  and  N_22
REMARK    7  A    between atoms: N_11  and  C_15
REMARK                            x       y       z     vdW  Elec       q    Type
REMARK                         _______ _______ _______ _____ _____    ______ ____
ROOT
ATOM      1  N   UNL     1      -1.621  -2.007   1.038  0.00  0.00    -0.313 N 
ATOM      2  C   UNL     1      -2.797  -2.706   0.833  0.00  0.00    +0.218 A 
ATOM      3  N   UNL     1      -2.750  -4.035   0.852  0.00  0.00    -0.214 NA
ATOM      4  C   UNL     1      -3.830  -4.782   0.664  0.00  0.00    +0.089 A 
ATOM      5  C   UNL     1      -5.064  -4.131   0.438  0.00  0.00    +0.086 A 
ATOM      6  C   UNL     1      -6.374  -4.532   0.206  0.00  0.00    +0.131 A 
ATOM      7  N   UNL     1      -7.120  -3.419   0.064  0.00  0.00    -0.215 N 
ATOM      8  N   UNL     1      -6.312  -2.284   0.199  0.00  0.00    -0.144 NA
ATOM      9  C   UNL     1      -5.071  -2.656   0.425  0.00  0.00    +0.189 A 
ATOM     10  N   UNL     1      -3.903  -2.019   0.634  0.00  0.00    -0.193 NA
ATOM     11  H   UNL     1      -0.791  -2.487   1.186  0.00  0.00    +0.149 HD
ENDROOT
BRANCH   7  12
ATOM     12  C   UNL     1      -8.498  -3.401  -0.183  0.00  0.00    +0.086 A 
ATOM     13  C   UNL     1      -9.231  -4.579  -0.128  0.00  0.00    +0.029 A 
ATOM     14  C   UNL     1     -10.590  -4.558  -0.372  0.00  0.00    +0.002 A 
ATOM     15  C   UNL     1     -11.222  -3.365  -0.672  0.00  0.00    +0.002 A 
ATOM     16  C   UNL     1     -10.496  -2.190  -0.729  0.00  0.00    +0.022 A 
ATOM     17  C   UNL     1      -9.136  -2.203  -0.479  0.00  0.00    +0.066 A 
ATOM     18 CL   UNL     1      -8.227  -0.726  -0.543  0.00  0.00    -0.081 Cl
ENDBRANCH   7  12
BRANCH   4  19
ATOM     19  C   UNL     1      -3.746  -6.260   0.691  0.00  0.00    +0.003 A 
ATOM     20  C   UNL     1      -4.408  -7.017  -0.276  0.00  0.00    +0.010 A 
ATOM     21  C   UNL     1      -4.326  -8.394  -0.246  0.00  0.00    +0.002 A 
ATOM     22  C   UNL     1      -3.588  -9.025   0.739  0.00  0.00    +0.020 A 
ATOM     23  C   UNL     1      -2.929  -8.280   1.702  0.00  0.00    +0.042 A 
ATOM     24  C   UNL     1      -2.999  -6.901   1.679  0.00  0.00    +0.030 A 
ATOM     25 CL   UNL     1      -2.006  -9.080   2.935  0.00  0.00    -0.084 Cl
ENDBRANCH   4  19
BRANCH   6  26
ATOM     26  N   UNL     1      -6.829  -5.835   0.135  0.00  0.00    -0.342 N 
ATOM     27  H   UNL     1      -6.510  -6.496   0.771  0.00  0.00    +0.144 HD
ATOM     28  H   UNL     1      -7.466  -6.090  -0.550  0.00  0.00    +0.144 HD
ENDBRANCH   6  26
BRANCH   1  29
ATOM     29  C   UNL     1      -1.629  -0.542   1.030  0.00  0.00    +0.107 C 
BRANCH  29  31
ATOM     30  C   UNL     1      -0.195   1.501   1.148  0.00  0.00    +0.009 C 
ATOM     31  C   UNL     1      -0.211  -0.024   1.279  0.00  0.00    -0.000 C 
ATOM     32  C   UNL     1       0.237  -0.419   2.687  0.00  0.00    +0.009 C 
ENDBRANCH  29  31
ENDBRANCH   1  29
TORSDOF 5
