REMARK  Name = ZINC06681957
REMARK  5 active torsions:
REMARK  status: ('A' for Active; 'I' for Inactive)
REMARK    1  A    between atoms: C_7  and  C_11
REMARK    2  A    between atoms: N_12  and  N_13
REMARK    3  A    between atoms: C_14  and  C_16
REMARK    4  A    between atoms: C_16  and  C_17
REMARK    5  A    between atoms: C_17  and  N_18
REMARK                            x       y       z     vdW  Elec       q    Type
REMARK                         _______ _______ _______ _____ _____    ______ ____
ROOT
ATOM      1  N   UNL     1       6.214   3.228  -2.651  0.00  0.00    -0.207 N 
ATOM      2  C   UNL     1       5.567   3.367  -1.476  0.00  0.00    +0.234 C 
ATOM      3  O   UNL     1       6.170   3.232  -0.432  0.00  0.00    -0.274 OA
ATOM      4  H   UNL     1       5.668   3.350  -3.598  0.00  0.00    +0.177 HD
ENDROOT
BRANCH   1   6
ATOM      5  C   UNL     1       8.206   2.794  -3.797  0.00  0.00    +0.140 C 
ATOM      6  N   UNL     1       7.582   2.928  -2.665  0.00  0.00    -0.188 NA
BRANCH   5  13
ATOM      7  C   UNL     1      11.361   2.094  -0.406  0.00  0.00    +0.001 A 
ATOM      8  C   UNL     1      12.624   1.818  -0.909  0.00  0.00    +0.002 A 
ATOM      9  C   UNL     1      12.845   1.772  -2.268  0.00  0.00    +0.026 A 
ATOM     10  C   UNL     1      11.794   2.006  -3.150  0.00  0.00    +0.047 A 
ATOM     11  C   UNL     1      10.515   2.285  -2.640  0.00  0.00    +0.008 A 
ATOM     12  C   UNL     1      10.307   2.327  -1.263  0.00  0.00    +0.010 A 
ATOM     13  C   UNL     1       9.643   2.479  -3.812  0.00  0.00    +0.020 A 
ATOM     14  C   UNL     1      10.426   2.304  -4.911  0.00  0.00    +0.093 A 
ATOM     15  N   UNL     1      11.704   2.029  -4.526  0.00  0.00    -0.360 N 
ATOM     16  H   UNL     1      12.598   1.839  -5.138  0.00  0.00    +0.165 HD
ENDBRANCH   5  13
ENDBRANCH   1   6
BRANCH   2  17
ATOM     17  C   UNL     1       4.095   3.690  -1.461  0.00  0.00    +0.119 C 
BRANCH  17  18
ATOM     18  C   UNL     1       3.611   3.792  -0.013  0.00  0.00    +0.131 C 
BRANCH  18  19
ATOM     19  N   UNL     1       2.180   4.106   0.002  0.00  0.00    -0.339 N 
ATOM     20  C   UNL     1       1.164   3.167   0.007  0.00  0.00    +0.050 A 
ATOM     21  C   UNL     1       1.175   1.775   0.000  0.00  0.00    +0.026 A 
ATOM     22  C   UNL     1      -0.013   1.076   0.008  0.00  0.00    +0.002 A 
ATOM     23  C   UNL     1      -1.226   1.746   0.017  0.00  0.00    +0.001 A 
ATOM     24  C   UNL     1      -1.257   3.124   0.030  0.00  0.00    +0.010 A 
ATOM     25  C   UNL     1      -0.064   3.844   0.022  0.00  0.00    +0.008 A 
ATOM     26  C   UNL     1       0.252   5.284   0.026  0.00  0.00    +0.008 A 
ATOM     27  C   UNL     1       1.651   5.384   0.013  0.00  0.00    +0.050 A 
ATOM     28  C   UNL     1       2.243   6.644   0.012  0.00  0.00    +0.026 A 
ATOM     29  C   UNL     1       1.457   7.776   0.025  0.00  0.00    +0.002 A 
ATOM     30  C   UNL     1       0.074   7.674   0.037  0.00  0.00    +0.001 A 
ATOM     31  C   UNL     1      -0.531   6.436   0.038  0.00  0.00    +0.010 A 
ENDBRANCH  18  19
ENDBRANCH  17  18
ENDBRANCH   2  17
TORSDOF 5
