REMARK  Name = ZINC40983439
REMARK  10 active torsions:
REMARK  status: ('A' for Active; 'I' for Inactive)
REMARK    1  A    between atoms: C_1  and  C_2
REMARK    2  A    between atoms: C_2  and  C_3
REMARK    3  A    between atoms: C_3  and  C_4
REMARK    4  A    between atoms: C_4  and  S_5
REMARK    5  A    between atoms: S_5  and  C_6
REMARK    6  A    between atoms: C_11  and  C_27
REMARK    7  A    between atoms: C_13  and  C_17
REMARK    8  A    between atoms: C_14  and  C_16
REMARK    9  A    between atoms: N_19  and  C_20
REMARK   10  A    between atoms: C_25  and  C_26
REMARK                            x       y       z     vdW  Elec       q    Type
REMARK                         _______ _______ _______ _____ _____    ______ ____
ROOT
ATOM      1  C   UNL     1       0.622  -4.295  -3.175  0.00  0.00    +0.210 A 
ATOM      2  N   UNL     1       0.326  -5.086  -2.133  0.00  0.00    -0.187 NA
ATOM      3  C   UNL     1       0.786  -6.287  -2.354  0.00  0.00    +0.220 A 
ATOM      4  N   UNL     1       1.403  -6.288  -3.561  0.00  0.00    -0.217 N 
ATOM      5  N   UNL     1       1.277  -4.997  -4.074  0.00  0.00    -0.141 NA
ATOM      6  C   UNL     1       2.049  -7.463  -4.139  0.00  0.00    +0.213 C 
ATOM      7  C   UNL     1       1.665  -8.685  -3.348  0.00  0.00    +0.063 C 
ATOM      8  C   UNL     1       1.051  -8.624  -2.158  0.00  0.00    +0.018 C 
ATOM      9  N   UNL     1       0.714  -7.430  -1.569  0.00  0.00    -0.287 N 
ATOM     10  C   UNL     1       0.720  -9.908  -1.442  0.00  0.00    +0.061 C 
ATOM     11  H   UNL     1       0.437  -7.387  -0.640  0.00  0.00    +0.155 HD
ENDROOT
BRANCH   6  12
ATOM     12  C   UNL     1       1.605  -7.629  -5.569  0.00  0.00    +0.134 A 
ATOM     13  C   UNL     1       2.409  -7.629  -6.648  0.00  0.00    +0.047 A 
ATOM     14  C   UNL     1       1.579  -7.813  -7.777  0.00  0.00    +0.041 A 
ATOM     15  C   UNL     1       0.317  -7.915  -7.321  0.00  0.00    +0.195 A 
ATOM     16  O   UNL     1       0.340  -7.809  -5.983  0.00  0.00    -0.465 OA
ENDBRANCH   6  12
BRANCH   7  17
ATOM     17  C   UNL     1       1.964  -9.959  -3.888  0.00  0.00    +0.248 C 
ATOM     18  O   UNL     1       3.110 -10.371  -3.875  0.00  0.00    -0.270 OA
ATOM     19  N   UNL     1       0.982 -10.715  -4.415  0.00  0.00    -0.281 N 
ATOM     20  H   UNL     1       0.058 -10.425  -4.352  0.00  0.00    +0.155 HD
BRANCH  19  21
ATOM     21  C   UNL     1       1.293 -11.919  -5.056  0.00  0.00    +0.037 A 
ATOM     22  C   UNL     1       2.379 -12.673  -4.629  0.00  0.00    +0.023 A 
ATOM     23  C   UNL     1       2.684 -13.861  -5.263  0.00  0.00    +0.002 A 
ATOM     24  C   UNL     1       1.909 -14.301  -6.322  0.00  0.00    +0.000 A 
ATOM     25  C   UNL     1       0.828 -13.552  -6.749  0.00  0.00    +0.005 A 
ATOM     26  C   UNL     1       0.514 -12.366  -6.115  0.00  0.00    -0.029 A 
ATOM     27  C   UNL     1      -0.668 -11.554  -6.577  0.00  0.00    +0.045 C 
ENDBRANCH  19  21
ENDBRANCH   7  17
BRANCH   1  28
ATOM     28  S   UNL     1       0.197  -2.591  -3.319  0.00  0.00    -0.084 S 
BRANCH  28  29
ATOM     29  C   UNL     1      -0.682  -2.226  -1.774  0.00  0.00    +0.077 C 
BRANCH  29  30
ATOM     30  C   UNL     1      -1.113  -0.758  -1.768  0.00  0.00    +0.011 C 
BRANCH  30  32
ATOM     31  C   UNL     1      -2.286   1.018  -0.459  0.00  0.00    +0.004 C 
ATOM     32  C   UNL     1      -1.855  -0.450  -0.465  0.00  0.00    -0.003 C 
ENDBRANCH  30  32
ENDBRANCH  29  30
ENDBRANCH  28  29
ENDBRANCH   1  28
TORSDOF 7
