REMARK  Name = ZINC20527937
REMARK  9 active torsions:
REMARK  status: ('A' for Active; 'I' for Inactive)
REMARK    1  A    between atoms: C_1  and  C_2
REMARK    2  A    between atoms: C_2  and  C_4
REMARK    3  A    between atoms: C_2  and  N_10
REMARK    4  A    between atoms: C_11  and  C_13
REMARK    5  A    between atoms: C_13  and  S_14
REMARK    6  A    between atoms: S_14  and  C_15
REMARK    7  A    between atoms: N_19  and  N_20
REMARK    8  A    between atoms: N_21  and  N_22
REMARK    9  A    between atoms: C_23  and  C_24
REMARK                            x       y       z     vdW  Elec       q    Type
REMARK                         _______ _______ _______ _____ _____    ______ ____
ROOT
ATOM      1  C   UNL     1       5.136  -6.473  -0.084  0.00  0.00    +0.210 A 
ATOM      2  N   UNL     1       5.771  -5.325  -0.084  0.00  0.00    -0.119 NA
ATOM      3  N   UNL     1       4.815  -4.302  -0.073  0.00  0.00    -0.109 NA
ATOM      4  C   UNL     1       3.627  -4.857  -0.059  0.00  0.00    +0.254 A 
ATOM      5  N   UNL     1       3.795  -6.214  -0.069  0.00  0.00    -0.211 N 
ATOM      6  N   UNL     1       2.413  -4.186  -0.044  0.00  0.00    -0.204 N 
ATOM      7  H   UNL     1       1.471  -4.754  -0.039  0.00  0.00    +0.177 HD
ENDROOT
BRANCH   5   8
ATOM      8  N   UNL     1       2.797  -7.147  -0.064  0.00  0.00    -0.294 N 
ATOM      9  H   UNL     1       1.745  -6.826  -0.051  0.00  0.00    +0.163 HD
ATOM     10  H   UNL     1       3.046  -8.218  -0.072  0.00  0.00    +0.163 HD
ENDBRANCH   5   8
BRANCH   6  11
ATOM     11  N   UNL     1       2.387  -2.785  -0.036  0.00  0.00    -0.187 NA
ATOM     12  C   UNL     1       1.250  -2.157  -0.022  0.00  0.00    +0.139 C 
BRANCH  12  13
ATOM     13  C   UNL     1       1.223  -0.683  -0.013  0.00  0.00    +0.013 A 
ATOM     14  C   UNL     1       0.002  -0.004   0.002  0.00  0.00    +0.012 A 
ATOM     15  C   UNL     1      -0.017   1.375   0.010  0.00  0.00    +0.021 A 
ATOM     16  C   UNL     1       1.171   2.087   0.002  0.00  0.00    +0.042 A 
ATOM     17  C   UNL     1       2.385   1.421  -0.013  0.00  0.00    +0.040 A 
ATOM     18  C   UNL     1       2.419   0.041  -0.021  0.00  0.00    +0.051 A 
ATOM     19 CL   UNL     1       3.941  -0.792  -0.040  0.00  0.00    -0.083 Cl
ATOM     20 CL   UNL     1       1.138   3.823   0.011  0.00  0.00    -0.083 Cl
ENDBRANCH  12  13
ENDBRANCH   6  11
BRANCH   1  21
ATOM     21  S   UNL     1       5.883  -8.069  -0.100  0.00  0.00    -0.075 S 
BRANCH  21  22
ATOM     22  C   UNL     1       7.663  -7.721  -0.116  0.00  0.00    +0.173 C 
BRANCH  22  24
ATOM     23  N   UNL     1       9.776  -9.007  -0.144  0.00  0.00    -0.308 N 
ATOM     24  C   UNL     1       8.428  -9.019  -0.130  0.00  0.00    +0.224 C 
ATOM     25  O   UNL     1       7.832 -10.075  -0.130  0.00  0.00    -0.275 OA
ATOM     26  H   UNL     1      10.317  -8.049  -0.144  0.00  0.00    +0.149 HD
BRANCH  23  28
ATOM     27  C   UNL     1      10.685 -10.779   1.275  0.00  0.00    +0.033 C 
ATOM     28  C   UNL     1      10.520 -10.269  -0.158  0.00  0.00    +0.100 C 
BRANCH  28  29
ATOM     29  C   UNL     1      11.878 -10.044  -0.771  0.00  0.00    -0.027 A 
ATOM     30  C   UNL     1      12.584  -8.891  -0.483  0.00  0.00    +0.005 A 
ATOM     31  C   UNL     1      13.832  -8.687  -1.042  0.00  0.00    +0.000 A 
ATOM     32  C   UNL     1      14.370  -9.632  -1.895  0.00  0.00    +0.000 A 
ATOM     33  C   UNL     1      13.662 -10.783  -2.187  0.00  0.00    +0.000 A 
ATOM     34  C   UNL     1      12.416 -10.989  -1.625  0.00  0.00    +0.005 A 
ENDBRANCH  28  29
ENDBRANCH  23  28
ENDBRANCH  22  24
ENDBRANCH  21  22
ENDBRANCH   1  21
TORSDOF 8
