REMARK  Name = ZINC36593651
REMARK  13 active torsions:
REMARK  status: ('A' for Active; 'I' for Inactive)
REMARK    1  A    between atoms: C_1  and  C_2
REMARK    2  A    between atoms: C_2  and  C_3
REMARK    3  A    between atoms: C_3  and  C_5
REMARK    4  A    between atoms: C_3  and  C_6
REMARK    5  A    between atoms: C_6  and  C_8
REMARK    6  A    between atoms: C_6  and  N_12
REMARK    7  A    between atoms: C_8  and  O_10
REMARK    8  A    between atoms: O_10  and  C_11
REMARK    9  A    between atoms: C_24  and  C_26
REMARK   10  A    between atoms: C_28  and  O_34
REMARK   11  A    between atoms: C_30  and  O_32
REMARK   12  A    between atoms: O_32  and  C_33
REMARK   13  A    between atoms: O_34  and  C_35
REMARK                            x       y       z     vdW  Elec       q    Type
REMARK                         _______ _______ _______ _____ _____    ______ ____
ROOT
ATOM      1  N   UNL     1       2.264  -4.358   1.202  0.00  0.00    -0.286 N 
ATOM      2  C   UNL     1       2.245  -3.664   2.357  0.00  0.00    +0.304 C 
ATOM      3  O   UNL     1       1.713  -2.572   2.402  0.00  0.00    -0.253 OA
ATOM      4  N   UNL     1       2.815  -4.182   3.463  0.00  0.00    -0.273 N 
ATOM      5  C   UNL     1       2.710  -3.492   4.758  0.00  0.00    +0.116 C 
ATOM      6  C   UNL     1       1.912  -4.370   5.731  0.00  0.00    +0.074 C 
ATOM      7  C   UNL     1       2.410  -5.787   5.626  0.00  0.00    +0.040 A 
ATOM      8  C   UNL     1       3.136  -6.276   4.598  0.00  0.00    +0.062 A 
ATOM      9  N   UNL     1       3.392  -7.562   4.845  0.00  0.00    -0.348 N 
ATOM     10  C   UNL     1       2.856  -7.893   5.991  0.00  0.00    +0.171 A 
ATOM     11  N   UNL     1       2.234  -6.809   6.510  0.00  0.00    -0.349 N 
ATOM     12  H   UNL     1       1.754  -6.768   7.351  0.00  0.00    +0.166 HD
ATOM     13  C   UNL     1       3.554  -5.456   3.406  0.00  0.00    +0.156 C 
ATOM     14  H   UNL     1       2.754  -5.193   1.145  0.00  0.00    +0.151 HD
ATOM     15  H   UNL     1       3.896  -8.157   4.268  0.00  0.00    +0.167 HD
ENDROOT
BRANCH  13  16
ATOM     16  C   UNL     1       5.037  -5.192   3.465  0.00  0.00    -0.014 A 
ATOM     17  C   UNL     1       5.591  -4.621   4.595  0.00  0.00    +0.051 A 
ATOM     18  C   UNL     1       6.956  -4.377   4.652  0.00  0.00    +0.124 A 
ATOM     19  C   UNL     1       7.763  -4.706   3.574  0.00  0.00    +0.091 A 
ATOM     20  C   UNL     1       7.205  -5.279   2.442  0.00  0.00    +0.124 A 
ATOM     21  C   UNL     1       5.840  -5.526   2.392  0.00  0.00    +0.051 A 
BRANCH  20  22
ATOM     22  O   UNL     1       7.994  -5.603   1.384  0.00  0.00    -0.495 OA
ATOM     23  C   UNL     1       9.390  -5.325   1.506  0.00  0.00    +0.277 C 
ENDBRANCH  20  22
BRANCH  18  24
ATOM     24  O   UNL     1       7.501  -3.814   5.763  0.00  0.00    -0.495 OA
ATOM     25  C   UNL     1       8.912  -3.592   5.752  0.00  0.00    +0.277 C 
ENDBRANCH  18  24
ENDBRANCH  13  16
BRANCH   1  26
ATOM     26  C   UNL     1       1.544  -3.850   0.031  0.00  0.00    +0.186 C 
BRANCH  26  27
ATOM     27  C   UNL     1       1.188  -5.016  -0.893  0.00  0.00    +0.017 C 
ATOM     28  C   UNL     1       2.469  -5.718  -1.347  0.00  0.00    +0.010 C 
BRANCH  27  30
ATOM     29  C   UNL     1      -0.030  -5.662  -2.977  0.00  0.00    +0.004 C 
ATOM     30  C   UNL     1       0.436  -4.487  -2.116  0.00  0.00    +0.002 C 
ENDBRANCH  27  30
ENDBRANCH  26  27
BRANCH  26  31
ATOM     31  C   UNL     1       2.417  -2.871  -0.710  0.00  0.00    +0.328 C 
ATOM     32  O   UNL     1       3.527  -2.622  -0.302  0.00  0.00    -0.249 OA
BRANCH  31  33
ATOM     33  O   UNL     1       1.962  -2.275  -1.823  0.00  0.00    -0.467 OA
ATOM     34  C   UNL     1       2.844  -1.358  -2.475  0.00  0.00    +0.280 C 
ENDBRANCH  31  33
ENDBRANCH  26  31
ENDBRANCH   1  26
TORSDOF 8
