REMARK  Name = ZINC13266202
REMARK  9 active torsions:
REMARK  status: ('A' for Active; 'I' for Inactive)
REMARK    1  A    between atoms: C_1  and  C_2
REMARK    2  A    between atoms: C_2  and  C_3
REMARK    3  A    between atoms: C_2  and  C_5
REMARK    4  A    between atoms: C_2  and  N_8
REMARK    5  A    between atoms: C_9  and  C_11
REMARK    6  A    between atoms: C_11  and  S_12
REMARK    7  A    between atoms: S_12  and  C_13
REMARK    8  A    between atoms: C_17  and  C_31
REMARK    9  A    between atoms: N_23  and  C_24
REMARK                            x       y       z     vdW  Elec       q    Type
REMARK                         _______ _______ _______ _____ _____    ______ ____
ROOT
ATOM      1  C   UNL     1       5.975   2.762  -2.564  0.00  0.00    +0.177 A 
ATOM      2  N   UNL     1       6.168   3.516  -1.510  0.00  0.00    -0.223 NA
ATOM      3  C   UNL     1       7.405   3.712  -0.996  0.00  0.00    +0.080 A 
ATOM      4  C   UNL     1       7.609   4.512   0.132  0.00  0.00    +0.043 A 
ATOM      5  C   UNL     1       8.897   4.688   0.622  0.00  0.00    +0.065 A 
ATOM      6  C   UNL     1       9.986   4.069  -0.006  0.00  0.00    +0.016 A 
ATOM      7  C   UNL     1       9.800   3.286  -1.108  0.00  0.00    +0.016 A 
ATOM      8  C   UNL     1       8.515   3.096  -1.617  0.00  0.00    +0.065 A 
ATOM      9  C   UNL     1       8.270   2.259  -2.802  0.00  0.00    +0.267 A 
ATOM     10  O   UNL     1       9.185   1.702  -3.381  0.00  0.00    -0.267 OA
ATOM     11  N   UNL     1       6.992   2.131  -3.225  0.00  0.00    -0.255 N 
ENDROOT
BRANCH  11  12
ATOM     12  C   UNL     1       6.707   1.343  -4.349  0.00  0.00    +0.052 A 
ATOM     13  C   UNL     1       6.430  -0.009  -4.199  0.00  0.00    +0.029 A 
ATOM     14  C   UNL     1       6.144  -0.781  -5.307  0.00  0.00    +0.040 A 
ATOM     15  C   UNL     1       6.144  -0.211  -6.569  0.00  0.00    +0.124 A 
ATOM     16  C   UNL     1       6.425   1.137  -6.721  0.00  0.00    +0.040 A 
ATOM     17  C   UNL     1       6.706   1.914  -5.615  0.00  0.00    +0.029 A 
ATOM     18  F   UNL     1       5.869  -0.969  -7.652  0.00  0.00    -0.205 F 
ENDBRANCH  11  12
BRANCH   5  19
ATOM     19  C   UNL     1       9.120   5.533   1.815  0.00  0.00    +0.387 C 
ATOM     20  O   UNL     1       8.179   6.071   2.363  0.00  0.00    -0.241 OA
ATOM     21  O   UNL     1      10.367   5.707   2.294  0.00  0.00    -0.241 OA
ENDBRANCH   5  19
BRANCH   1  22
ATOM     22  S   UNL     1       4.330   2.559  -3.161  0.00  0.00    -0.078 S 
BRANCH  22  23
ATOM     23  C   UNL     1       3.432   3.571  -1.959  0.00  0.00    +0.173 C 
BRANCH  23  25
ATOM     24  N   UNL     1       1.090   4.234  -1.514  0.00  0.00    -0.297 N 
ATOM     25  C   UNL     1       1.960   3.546  -2.281  0.00  0.00    +0.224 C 
ATOM     26  O   UNL     1       1.557   2.906  -3.229  0.00  0.00    -0.275 OA
ATOM     27  H   UNL     1       1.412   4.746  -0.756  0.00  0.00    +0.150 HD
BRANCH  24  29
ATOM     28  C   UNL     1      -0.565   4.768  -3.234  0.00  0.00    +0.048 C 
ATOM     29  C   UNL     1      -0.341   4.209  -1.827  0.00  0.00    +0.121 C 
BRANCH  29  30
ATOM     30  C   UNL     1      -1.100   5.065  -0.811  0.00  0.00    +0.026 C 
ATOM     31  C   UNL     1      -2.107   4.356   0.097  0.00  0.00    +0.007 C 
ATOM     32  C   UNL     1      -2.601   5.261  -1.034  0.00  0.00    +0.007 C 
ENDBRANCH  29  30
BRANCH  29  33
ATOM     33  C   UNL     1      -0.832   2.823  -1.766  0.00  0.00    +0.088 C 
ATOM     34  N   UNL     1      -1.212   1.753  -1.718  0.00  0.00    -0.194 NA
ENDBRANCH  29  33
ENDBRANCH  24  29
ENDBRANCH  23  25
ENDBRANCH  22  23
ENDBRANCH   1  22
TORSDOF 8
