REMARK  Name = ZINC63376134
REMARK  8 active torsions:
REMARK  status: ('A' for Active; 'I' for Inactive)
REMARK    1  A    between atoms: C_1  and  C_2
REMARK    2  A    between atoms: C_2  and  C_3
REMARK    3  A    between atoms: C_3  and  C_4
REMARK    4  A    between atoms: C_4  and  N_5
REMARK    5  A    between atoms: C_6  and  C_8
REMARK    6  A    between atoms: C_8  and  C_10
REMARK    7  A    between atoms: C_8  and  N_11
REMARK    8  A    between atoms: C_12  and  C_14
REMARK                            x       y       z     vdW  Elec       q    Type
REMARK                         _______ _______ _______ _____ _____    ______ ____
ROOT
ATOM      1  C   UNL     1       3.268  -7.937  -4.631  0.00  0.00    +0.167 C 
ATOM      2  C   UNL     1       3.426  -8.460  -3.190  0.00  0.00    +0.065 C 
ATOM      3  C   UNL     1       4.875  -8.288  -2.809  0.00  0.00    -0.034 C 
ATOM      4  C   UNL     1       5.433  -7.695  -1.759  0.00  0.00    -0.001 A 
ATOM      5  C   UNL     1       4.847  -7.084  -0.555  0.00  0.00    +0.010 A 
ATOM      6  C   UNL     1       5.724  -6.540   0.329  0.00  0.00    +0.001 A 
ATOM      7  C   UNL     1       7.110  -6.543   0.139  0.00  0.00    +0.002 A 
ATOM      8  C   UNL     1       7.735  -7.090  -0.934  0.00  0.00    +0.026 A 
ATOM      9  C   UNL     1       6.917  -7.699  -1.930  0.00  0.00    +0.043 A 
ATOM     10  N   UNL     1       7.246  -8.305  -3.031  0.00  0.00    -0.375 N 
ATOM     11  C   UNL     1       6.025  -8.805  -3.666  0.00  0.00    +0.131 C 
ATOM     12  C   UNL     1       5.829  -8.206  -5.063  0.00  0.00    +0.134 C 
ATOM     13  N   UNL     1       4.406  -8.411  -5.430  0.00  0.00    -0.276 N 
ATOM     14  C   UNL     1       4.347  -9.101  -6.582  0.00  0.00    +0.248 C 
ATOM     15  O   UNL     1       3.324  -9.364  -7.184  0.00  0.00    -0.270 OA
ATOM     16  C   UNL     1       5.692  -9.490  -7.008  0.00  0.00    +0.042 A 
ATOM     17  C   UNL     1       6.636  -8.947  -6.079  0.00  0.00    -0.013 A 
ATOM     18  C   UNL     1       7.993  -9.141  -6.208  0.00  0.00    +0.006 A 
ATOM     19  C   UNL     1       8.422  -9.895  -7.297  0.00  0.00    +0.000 A 
ATOM     20  C   UNL     1       7.534 -10.425  -8.211  0.00  0.00    +0.001 A 
ATOM     21  C   UNL     1       6.122 -10.246  -8.102  0.00  0.00    +0.013 A 
ATOM     22  H   UNL     1       8.147  -8.409  -3.375  0.00  0.00    +0.160 HD
ENDROOT
BRANCH   1  24
ATOM     23  N   UNL     1       2.289  -5.773  -3.940  0.00  0.00    -0.303 N 
ATOM     24  C   UNL     1       3.248  -6.430  -4.622  0.00  0.00    +0.234 C 
ATOM     25  O   UNL     1       4.094  -5.809  -5.230  0.00  0.00    -0.274 OA
ATOM     26  H   UNL     1       1.612  -6.270  -3.454  0.00  0.00    +0.149 HD
BRANCH  23  27
ATOM     27  C   UNL     1       2.269  -4.308  -3.932  0.00  0.00    +0.156 C 
ATOM     28  C   UNL     1       1.529  -3.801  -5.172  0.00  0.00    +0.038 C 
BRANCH  27  30
ATOM     29  N   UNL     1       1.425  -2.500  -2.470  0.00  0.00    -0.314 N 
ATOM     30  C   UNL     1       1.564  -3.822  -2.692  0.00  0.00    +0.233 C 
ATOM     31  O   UNL     1       1.121  -4.620  -1.894  0.00  0.00    -0.274 OA
ATOM     32  H   UNL     1       1.779  -1.861  -3.109  0.00  0.00    +0.149 HD
BRANCH  29  33
ATOM     33  C   UNL     1       0.739  -2.027  -1.265  0.00  0.00    +0.104 C 
BRANCH  33  34
ATOM     34  C   UNL     1       0.718  -0.497  -1.257  0.00  0.00    +0.018 C 
BRANCH  34  36
ATOM     35  C   UNL     1      -0.019   1.526   0.010  0.00  0.00    +0.004 C 
ATOM     36  C   UNL     1       0.002  -0.004   0.002  0.00  0.00    -0.002 C 
ENDBRANCH  34  36
ENDBRANCH  33  34
ENDBRANCH  29  33
ENDBRANCH  27  30
ENDBRANCH  23  27
ENDBRANCH   1  24
TORSDOF 6
