REMARK  Name = ZINC06785457
REMARK  7 active torsions:
REMARK  status: ('A' for Active; 'I' for Inactive)
REMARK    1  A    between atoms: C_1  and  C_2
REMARK    2  A    between atoms: C_2  and  C_3
REMARK    3  A    between atoms: C_2  and  C_4
REMARK    4  A    between atoms: C_4  and  C_5
REMARK    5  A    between atoms: C_12  and  C_17
REMARK    6  A    between atoms: N_19  and  C_20
REMARK    7  A    between atoms: C_20  and  C_21
REMARK                            x       y       z     vdW  Elec       q    Type
REMARK                         _______ _______ _______ _____ _____    ______ ____
ROOT
ATOM      1  C   UNL     1      -0.007  -0.053   0.010  0.00  0.00    +0.157 C 
ATOM      2  C   UNL     1       1.056  -0.554   0.955  0.00  0.00    +0.238 C 
ATOM      3  O   UNL     1       0.853  -1.550   1.615  0.00  0.00    -0.273 OA
ATOM      4  N   UNL     1       2.229   0.096   1.072  0.00  0.00    -0.282 N 
ATOM      5  C   UNL     1       2.439   1.319   0.423  0.00  0.00    +0.055 A 
ATOM      6  C   UNL     1       3.699   1.883   0.379  0.00  0.00    +0.038 A 
ATOM      7  C   UNL     1       3.892   3.102  -0.278  0.00  0.00    +0.039 A 
ATOM      8  C   UNL     1       2.810   3.749  -0.882  0.00  0.00    +0.015 A 
ATOM      9  C   UNL     1       1.552   3.190  -0.825  0.00  0.00    +0.025 A 
ATOM     10  C   UNL     1       1.359   1.983  -0.169  0.00  0.00    +0.049 A 
ATOM     11  N   UNL     1       0.089   1.410  -0.088  0.00  0.00    -0.331 N 
ATOM     12  H   UNL     1       2.937  -0.287   1.613  0.00  0.00    +0.155 HD
ATOM     13  H   UNL     1      -0.708   1.962  -0.099  0.00  0.00    +0.147 HD
ENDROOT
BRANCH   7  14
ATOM     14  C   UNL     1       5.237   3.705  -0.333  0.00  0.00    +0.244 C 
ATOM     15  O   UNL     1       6.177   3.142   0.194  0.00  0.00    -0.270 OA
ATOM     16  N   UNL     1       5.423   4.880  -0.966  0.00  0.00    -0.308 N 
ATOM     17  H   UNL     1       4.673   5.329  -1.386  0.00  0.00    +0.149 HD
BRANCH  16  18
ATOM     18  C   UNL     1       6.759   5.479  -1.020  0.00  0.00    +0.152 C 
BRANCH  18  19
ATOM     19  C   UNL     1       6.694   6.799  -1.791  0.00  0.00    +0.228 C 
ATOM     20  C   UNL     1       8.109   7.370  -1.960  0.00  0.00    +0.275 C 
ATOM     21  O   UNL     1       8.012   8.608  -2.671  0.00  0.00    -0.485 OA
ATOM     22  C   UNL     1       7.051   9.478  -2.256  0.00  0.00    +0.162 A 
ATOM     23  C   UNL     1       7.125  10.809  -2.641  0.00  0.00    +0.049 A 
ATOM     24  C   UNL     1       6.155  11.703  -2.230  0.00  0.00    +0.004 A 
ATOM     25  C   UNL     1       5.109  11.275  -1.434  0.00  0.00    +0.004 A 
ATOM     26  C   UNL     1       5.030   9.951  -1.046  0.00  0.00    +0.049 A 
ATOM     27  C   UNL     1       6.001   9.048  -1.454  0.00  0.00    +0.163 A 
ATOM     28  O   UNL     1       5.913   7.749  -1.058  0.00  0.00    -0.480 OA
ENDBRANCH  18  19
ENDBRANCH  16  18
ENDBRANCH   7  14
BRANCH   1  29
ATOM     29  C   UNL     1       0.203  -0.674  -1.373  0.00  0.00    +0.034 C 
BRANCH  29  31
ATOM     30  C   UNL     1      -0.630  -0.722  -3.728  0.00  0.00    +0.007 C 
ATOM     31  C   UNL     1      -0.918  -0.222  -2.311  0.00  0.00    -0.015 C 
ATOM     32  C   UNL     1      -2.251  -0.797  -1.827  0.00  0.00    +0.007 C 
ENDBRANCH  29  31
ENDBRANCH   1  29
TORSDOF 5
