REMARK  Name = ZINC00985707
REMARK  9 active torsions:
REMARK  status: ('A' for Active; 'I' for Inactive)
REMARK    1  A    between atoms: C_1  and  O_2
REMARK    2  A    between atoms: O_2  and  C_3
REMARK    3  A    between atoms: C_13  and  C_17
REMARK    4  A    between atoms: C_19  and  O_27
REMARK    5  A    between atoms: C_20  and  O_25
REMARK    6  A    between atoms: C_21  and  O_23
REMARK    7  A    between atoms: O_23  and  C_24
REMARK    8  A    between atoms: O_25  and  C_26
REMARK    9  A    between atoms: O_27  and  C_28
REMARK                            x       y       z     vdW  Elec       q    Type
REMARK                         _______ _______ _______ _____ _____    ______ ____
ROOT
ATOM      1  C   UNL     1      -3.470   3.200   4.509  0.00  0.00    +0.121 A 
ATOM      2  C   UNL     1      -2.346   2.919   5.277  0.00  0.00    +0.047 A 
ATOM      3  C   UNL     1      -1.193   2.386   4.728  0.00  0.00    +0.030 A 
ATOM      4  C   UNL     1      -1.198   2.136   3.358  0.00  0.00    +0.047 A 
ATOM      5  C   UNL     1      -2.344   2.422   2.571  0.00  0.00    +0.006 A 
ATOM      6  C   UNL     1      -3.501   2.962   3.143  0.00  0.00    +0.056 A 
ATOM      7  C   UNL     1      -2.001   2.046   1.218  0.00  0.00    -0.022 A 
ATOM      8  C   UNL     1      -0.728   1.577   1.244  0.00  0.00    +0.010 A 
ATOM      9  N   UNL     1      -0.245   1.625   2.519  0.00  0.00    -0.359 N 
ATOM     10  H   UNL     1       0.642   1.341   2.790  0.00  0.00    +0.166 HD
ATOM     11  C   UNL     1      -0.013   1.086   0.008  0.00  0.00    +0.007 C 
ATOM     12  C   UNL     1      -2.164   1.255  -1.108  0.00  0.00    -0.076 C 
ATOM     13  C   UNL     1      -2.833   2.128  -0.037  0.00  0.00    +0.018 C 
ATOM     14  N   UNL     1      -0.727   1.584  -1.188  0.00  0.00    +0.387 N 
ATOM     15  H   UNL     1      -0.327   1.147  -2.027  0.00  0.00    -0.084 HD
ATOM     16  H   UNL     1      -0.616   2.603  -1.248  0.00  0.00    -0.084 HD
ENDROOT
BRANCH  11  17
ATOM     17  C   UNL     1       1.400   1.611  -0.003  0.00  0.00    -0.049 A 
ATOM     18  C   UNL     1       1.650   2.908  -0.413  0.00  0.00    +0.052 A 
ATOM     19  C   UNL     1       2.947   3.397  -0.419  0.00  0.00    +0.165 A 
ATOM     20  C   UNL     1       3.998   2.579  -0.023  0.00  0.00    +0.204 A 
ATOM     21  C   UNL     1       3.743   1.274   0.384  0.00  0.00    +0.165 A 
ATOM     22  C   UNL     1       2.442   0.794   0.393  0.00  0.00    +0.052 A 
BRANCH  21  23
ATOM     23  O   UNL     1       4.768   0.469   0.772  0.00  0.00    -0.491 OA
ATOM     24  C   UNL     1       4.432  -0.859   1.177  0.00  0.00    +0.277 C 
ENDBRANCH  21  23
BRANCH  20  25
ATOM     25  O   UNL     1       5.274   3.053  -0.033  0.00  0.00    -0.488 OA
ATOM     26  C   UNL     1       6.021   2.877  -1.238  0.00  0.00    +0.277 C 
ENDBRANCH  20  25
BRANCH  19  27
ATOM     27  O   UNL     1       3.191   4.674  -0.818  0.00  0.00    -0.491 OA
ATOM     28  C   UNL     1       2.063   5.458  -1.212  0.00  0.00    +0.277 C 
ENDBRANCH  19  27
ENDBRANCH  11  17
BRANCH   1  30
ATOM     29  C   UNL     1      -4.489   3.951   6.522  0.00  0.00    +0.277 C 
ATOM     30  O   UNL     1      -4.569   3.724   5.114  0.00  0.00    -0.495 OA
ENDBRANCH   1  30
TORSDOF 5
