REMARK  Name = ZINC13109986
REMARK  7 active torsions:
REMARK  status: ('A' for Active; 'I' for Inactive)
REMARK    1  A    between atoms: C_1  and  S_2
REMARK    2  A    between atoms: S_2  and  C_5
REMARK    3  A    between atoms: C_8  and  N_11
REMARK    4  A    between atoms: N_11  and  S_12
REMARK    5  A    between atoms: S_12  and  C_15
REMARK    6  A    between atoms: C_19  and  C_21
REMARK    7  A    between atoms: N_23  and  C_24
REMARK                            x       y       z     vdW  Elec       q    Type
REMARK                         _______ _______ _______ _____ _____    ______ ____
ROOT
ATOM      1  C   UNL     1      -1.701   9.700   0.142  0.00  0.00    +0.109 A 
ATOM      2  C   UNL     1      -2.307  10.586  -0.733  0.00  0.00    +0.030 A 
ATOM      3  C   UNL     1      -3.040  10.115  -1.806  0.00  0.00    +0.022 A 
ATOM      4  C   UNL     1      -3.169   8.756  -2.015  0.00  0.00    +0.053 A 
ATOM      5  C   UNL     1      -2.565   7.857  -1.133  0.00  0.00    +0.057 A 
ATOM      6  C   UNL     1      -1.826   8.341  -0.052  0.00  0.00    +0.043 A 
ATOM      7 CL   UNL     1      -4.085   8.166  -3.367  0.00  0.00    -0.083 Cl
ENDROOT
BRANCH   5   8
ATOM      8  C   UNL     1      -2.701   6.401  -1.347  0.00  0.00    +0.246 C 
ATOM      9  O   UNL     1      -3.346   5.983  -2.290  0.00  0.00    -0.270 OA
ATOM     10  N   UNL     1      -2.112   5.537  -0.497  0.00  0.00    -0.306 N 
ATOM     11  H   UNL     1      -1.599   5.870   0.255  0.00  0.00    +0.150 HD
BRANCH  10  12
ATOM     12  C   UNL     1      -2.248   4.094  -0.709  0.00  0.00    +0.036 C 
ATOM     13  C   UNL     1      -1.668   3.722  -2.075  0.00  0.00    +0.029 C 
ATOM     14  C   UNL     1      -1.810   2.215  -2.297  0.00  0.00    -0.008 C 
ATOM     15  C   UNL     1      -1.052   1.465  -1.200  0.00  0.00    +0.007 C 
ATOM     16  C   UNL     1      -1.632   1.836   0.166  0.00  0.00    -0.008 C 
ATOM     17  C   UNL     1      -1.490   3.344   0.388  0.00  0.00    +0.029 C 
ATOM     18  C   UNL     1      -3.112   1.451   0.214  0.00  0.00    +0.007 C 
ATOM     19  C   UNL     1      -3.870   2.201  -0.883  0.00  0.00    -0.008 C 
ATOM     20  C   UNL     1      -3.290   1.829  -2.249  0.00  0.00    +0.007 C 
ATOM     21  C   UNL     1      -3.728   3.708  -0.662  0.00  0.00    +0.029 C 
ENDBRANCH  10  12
ENDBRANCH   5   8
BRANCH   1  22
ATOM     22  S   UNL     1      -0.769  10.312   1.506  0.00  0.00    +0.072 S 
ATOM     23  O   UNL     1      -1.170  11.661   1.700  0.00  0.00    -0.150 OA
ATOM     24  O   UNL     1      -0.864   9.334   2.534  0.00  0.00    -0.150 OA
BRANCH  22  25
ATOM     25  N   UNL     1       0.818  10.352   1.036  0.00  0.00    -0.216 N 
ATOM     26  H   UNL     1       1.472   9.796   1.488  0.00  0.00    +0.174 HD
BRANCH  25  30
ATOM     27  C   UNL     1       2.003  12.842  -2.084  0.00  0.00    +0.088 A 
ATOM     28  C   UNL     1       1.699  13.382  -0.848  0.00  0.00    +0.029 A 
ATOM     29  C   UNL     1       1.306  12.559   0.189  0.00  0.00    +0.026 A 
ATOM     30  C   UNL     1       1.215  11.187  -0.011  0.00  0.00    +0.048 A 
ATOM     31  C   UNL     1       1.526  10.648  -1.252  0.00  0.00    +0.026 A 
ATOM     32  C   UNL     1       1.913  11.477  -2.287  0.00  0.00    +0.029 A 
BRANCH  27  34
ATOM     33  C   UNL     1       4.310  13.993  -3.264  0.00  0.00    +0.200 C 
ATOM     34  S   UNL     1       2.504  13.896  -3.405  0.00  0.00    -0.006 S 
ATOM     35  O   UNL     1       2.142  13.194  -4.586  0.00  0.00    -0.170 OA
ATOM     36  O   UNL     1       1.921  15.156  -3.104  0.00  0.00    -0.170 OA
ENDBRANCH  27  34
ENDBRANCH  25  30
ENDBRANCH  22  25
ENDBRANCH   1  22
TORSDOF 6
