REMARK  Name = ZINC65534598
REMARK  6 active torsions:
REMARK  status: ('A' for Active; 'I' for Inactive)
REMARK    1  A    between atoms: C_1  and  C_2
REMARK    2  A    between atoms: C_2  and  C_3
REMARK    3  A    between atoms: C_2  and  C_4
REMARK    4  A    between atoms: C_4  and  C_5
REMARK    5  A    between atoms: C_8  and  C_20
REMARK    6  A    between atoms: N_10  and  C_12
REMARK                            x       y       z     vdW  Elec       q    Type
REMARK                         _______ _______ _______ _____ _____    ______ ____
ROOT
ATOM      1  C   UNL     1      -2.050  -0.348  -1.381  0.00  0.00    +0.141 C 
ATOM      2  N   UNL     1      -3.471  -0.794  -1.380  0.00  0.00    -0.276 NA
ATOM      3  C   UNL     1      -4.091   0.100  -2.389  0.00  0.00    +0.206 C 
ATOM      4  N   UNL     1      -3.206   1.272  -2.494  0.00  0.00    -0.240 N 
ATOM      5  N   UNL     1      -2.170   1.115  -1.602  0.00  0.00    -0.221 NA
ATOM      6  H   UNL     1      -3.546  -1.761  -1.660  0.00  0.00    +0.126 HD
ATOM      7  H   UNL     1      -2.363   1.597  -0.737  0.00  0.00    +0.146 HD
ENDROOT
BRANCH   3   8
ATOM      8  C   UNL     1      -4.183  -0.602  -3.718  0.00  0.00    +0.062 A 
ATOM      9  N   UNL     1      -3.053  -1.079  -4.324  0.00  0.00    -0.308 N 
ATOM     10  C   UNL     1      -3.124  -1.708  -5.511  0.00  0.00    +0.327 A 
ATOM     11  O   UNL     1      -2.107  -2.123  -6.032  0.00  0.00    -0.247 OA
ATOM     12  N   UNL     1      -4.306  -1.885  -6.130  0.00  0.00    -0.275 N 
ATOM     13  C   UNL     1      -5.444  -1.430  -5.566  0.00  0.00    +0.254 A 
ATOM     14  O   UNL     1      -6.513  -1.589  -6.125  0.00  0.00    -0.268 OA
ATOM     15  C   UNL     1      -5.383  -0.770  -4.315  0.00  0.00    +0.094 A 
ATOM     16  H   UNL     1      -4.340  -2.340  -6.986  0.00  0.00    +0.173 HD
ATOM     17  H   UNL     1      -2.191  -0.961  -3.894  0.00  0.00    +0.170 HD
ENDBRANCH   3   8
BRANCH   4  18
ATOM     18  C   UNL     1      -3.385   2.358  -3.357  0.00  0.00    +0.083 A 
ATOM     19  C   UNL     1      -4.575   3.073  -3.338  0.00  0.00    +0.027 A 
ATOM     20  C   UNL     1      -4.749   4.146  -4.191  0.00  0.00    +0.003 A 
ATOM     21  C   UNL     1      -3.740   4.510  -5.063  0.00  0.00    +0.023 A 
ATOM     22  C   UNL     1      -2.552   3.800  -5.086  0.00  0.00    +0.078 A 
ATOM     23  C   UNL     1      -2.369   2.728  -4.231  0.00  0.00    +0.164 A 
ATOM     24  F   UNL     1      -1.207   2.038  -4.249  0.00  0.00    -0.202 F 
ATOM     25 CL   UNL     1      -1.288   4.260  -6.184  0.00  0.00    -0.081 Cl
ENDBRANCH   4  18
BRANCH   1  26
ATOM     26  C   UNL     1      -1.388  -0.642  -0.033  0.00  0.00    +0.039 C 
BRANCH  26  28
ATOM     27  C   UNL     1       0.652  -0.259   1.357  0.00  0.00    +0.007 C 
ATOM     28  C   UNL     1       0.037  -0.086  -0.033  0.00  0.00    -0.014 C 
ATOM     29  C   UNL     1       0.880  -0.842  -1.061  0.00  0.00    +0.007 C 
ENDBRANCH  26  28
ENDBRANCH   1  26
TORSDOF 4
