REMARK  Name = ZINC08635684
REMARK  6 active torsions:
REMARK  status: ('A' for Active; 'I' for Inactive)
REMARK    1  A    between atoms: C_3  and  S_6
REMARK    2  A    between atoms: S_6  and  N_9
REMARK    3  A    between atoms: N_9  and  C_10
REMARK    4  A    between atoms: C_10  and  C_11
REMARK    5  A    between atoms: C_19  and  C_21
REMARK    6  A    between atoms: C_21  and  N_62
REMARK                            x       y       z     vdW  Elec       q    Type
REMARK                         _______ _______ _______ _____ _____    ______ ____
ROOT
ATOM      1  C   UNL     1      -0.202  -0.125   0.122  0.00  0.00    -0.053 C 
ATOM      2  C   UNL     1      -1.610  -0.667  -0.138  0.00  0.00    -0.011 C 
ATOM      3  C   UNL     1      -1.607  -1.438  -1.464  0.00  0.00    -0.015 C 
ATOM      4  C   UNL     1      -0.587  -2.579  -1.364  0.00  0.00    -0.015 C 
ATOM      5  C   UNL     1       0.793  -1.984  -1.071  0.00  0.00    -0.078 C 
ATOM      6  C   UNL     1       0.228   0.051  -2.256  0.00  0.00    -0.077 C 
ATOM      7  C   UNL     1      -1.168  -0.485  -2.583  0.00  0.00    -0.041 C 
ATOM      8  N   UNL     1       0.711  -0.511  -0.976  0.00  0.00    +0.383 N 
ATOM      9  H   UNL     1       1.646  -0.136  -0.779  0.00  0.00    -0.081 HD
ENDROOT
BRANCH   1  10
ATOM     10  C   UNL     1      -0.251   1.402   0.213  0.00  0.00    +0.091 C 
BRANCH  10  11
ATOM     11  N   UNL     1       1.110   1.928   0.340  0.00  0.00    -0.191 NA
ATOM     12  H   UNL     1       1.841   1.333   0.571  0.00  0.00    +0.148 HD
BRANCH  11  13
ATOM     13  S   UNL     1       1.403   3.538   0.087  0.00  0.00    +0.065 S 
ATOM     14  O   UNL     1       2.792   3.738   0.307  0.00  0.00    -0.153 OA
ATOM     15  O   UNL     1       0.768   3.879  -1.138  0.00  0.00    -0.153 OA
BRANCH  13  18
ATOM     16  C   UNL     1       0.160   5.495   3.419  0.00  0.00    +0.010 A 
ATOM     17  C   UNL     1       1.005   4.791   2.581  0.00  0.00    +0.036 A 
ATOM     18  C   UNL     1       0.559   4.426   1.354  0.00  0.00    +0.142 A 
ATOM     19  S   UNL     1      -1.105   5.070   1.359  0.00  0.00    -0.077 S 
ATOM     20  C   UNL     1      -1.093   5.789   2.993  0.00  0.00    +0.047 A 
ENDBRANCH  13  18
ENDBRANCH  11  13
ENDBRANCH  10  11
ENDBRANCH   1  10
BRANCH   7  21
ATOM     21  C   UNL     1      -2.155   0.680  -2.680  0.00  0.00    -0.077 C 
BRANCH  21  33
ATOM     22  C   UNL     1      -2.400   2.860  -3.706  0.00  0.00    -0.060 C 
ATOM     23  C   UNL     1      -1.948   3.729  -4.882  0.00  0.00    +0.089 C 
ATOM     24  N   UNL     1      -2.355   3.092  -6.143  0.00  0.00    -0.303 N 
ATOM     25  C   UNL     1      -1.760   1.754  -6.269  0.00  0.00    +0.089 C 
ATOM     26  C   UNL     1      -2.212   0.885  -5.093  0.00  0.00    -0.060 C 
ATOM     27  C   UNL     1      -2.025   3.885  -7.228  0.00  0.00    +0.218 A 
ATOM     28  N   UNL     1      -1.260   3.385  -8.187  0.00  0.00    -0.223 NA
ATOM     29  C   UNL     1      -0.932   4.114  -9.240  0.00  0.00    +0.116 A 
ATOM     30  C   UNL     1      -1.389   5.420  -9.327  0.00  0.00    +0.039 A 
ATOM     31  C   UNL     1      -2.182   5.914  -8.304  0.00  0.00    +0.116 A 
ATOM     32  N   UNL     1      -2.478   5.130  -7.281  0.00  0.00    -0.223 NA
ATOM     33  N   UNL     1      -1.778   1.525  -3.833  0.00  0.00    +0.382 N 
ATOM     34  H   UNL     1      -0.757   1.633  -3.848  0.00  0.00    -0.082 HD
ENDBRANCH  21  33
ENDBRANCH   7  21
TORSDOF 6
