REMARK  Name = ZINC63698404
REMARK  9 active torsions:
REMARK  status: ('A' for Active; 'I' for Inactive)
REMARK    1  A    between atoms: C_7  and  C_10
REMARK    2  A    between atoms: C_10  and  C_11
REMARK    3  A    between atoms: C_11  and  N_12
REMARK    4  A    between atoms: C_13  and  C_15
REMARK    5  A    between atoms: N_17  and  C_18
REMARK    6  A    between atoms: C_18  and  C_19
REMARK    7  A    between atoms: C_19  and  C_21
REMARK    8  A    between atoms: C_19  and  S_26
REMARK    9  A    between atoms: S_26  and  C_29
REMARK                            x       y       z     vdW  Elec       q    Type
REMARK                         _______ _______ _______ _____ _____    ______ ____
ROOT
ATOM      1  C   UNL     1      -1.744  -6.548  -2.622  0.00  0.00    +0.299 C 
ATOM      2  O   UNL     1      -2.184  -6.971  -1.573  0.00  0.00    -0.265 OA
ATOM      3  N   UNL     1      -2.096  -7.130  -3.785  0.00  0.00    -0.305 N 
ATOM      4  H   UNL     1      -1.744  -6.792  -4.623  0.00  0.00    +0.149 HD
ENDROOT
BRANCH   1   6
ATOM      5  N   UNL     1      -0.458  -4.798  -1.460  0.00  0.00    -0.307 N 
ATOM      6  C   UNL     1      -0.811  -5.380  -2.623  0.00  0.00    +0.299 C 
ATOM      7  O   UNL     1      -0.370  -4.957  -3.672  0.00  0.00    -0.265 OA
ATOM      8  H   UNL     1      -0.810  -5.136  -0.622  0.00  0.00    +0.149 HD
BRANCH   5   9
ATOM      9  C   UNL     1       0.457  -3.653  -1.462  0.00  0.00    +0.109 C 
BRANCH   9  10
ATOM     10  C   UNL     1       0.691  -3.186  -0.024  0.00  0.00    +0.052 C 
BRANCH  10  17
ATOM     11  C   UNL     1      -0.016   1.348   0.009  0.00  0.00    +0.001 A 
ATOM     12  C   UNL     1       1.166   2.101   0.002  0.00  0.00    +0.002 A 
ATOM     13  C   UNL     1       2.391   1.535  -0.013  0.00  0.00    +0.026 A 
ATOM     14  C   UNL     1       2.529   0.120  -0.022  0.00  0.00    +0.043 A 
ATOM     15  N   UNL     1       3.587  -0.654  -0.037  0.00  0.00    -0.380 N 
ATOM     16  C   UNL     1       3.143  -2.053  -0.041  0.00  0.00    +0.144 C 
ATOM     17  C   UNL     1       1.631  -2.008  -0.025  0.00  0.00    -0.040 C 
ATOM     18  C   UNL     1       1.295  -0.698  -0.014  0.00  0.00    -0.001 A 
ATOM     19  C   UNL     1       0.002  -0.004   0.002  0.00  0.00    +0.010 A 
ATOM     20  H   UNL     1       4.509  -0.353  -0.045  0.00  0.00    +0.160 HD
ENDBRANCH  10  17
ENDBRANCH   9  10
ENDBRANCH   5   9
ENDBRANCH   1   6
BRANCH   3  21
ATOM     21  C   UNL     1      -3.011  -8.274  -3.783  0.00  0.00    +0.136 C 
BRANCH  21  22
ATOM     22  C   UNL     1      -3.245  -8.742  -5.221  0.00  0.00    +0.190 C 
BRANCH  22  23
ATOM     23  C   UNL     1      -4.186  -9.919  -5.219  0.00  0.00    +0.016 A 
ATOM     24  C   UNL     1      -3.976 -11.181  -5.669  0.00  0.00    +0.013 A 
ATOM     25  C   UNL     1      -4.996 -12.108  -5.564  0.00  0.00    +0.008 A 
ATOM     26  C   UNL     1      -6.175 -11.729  -5.014  0.00  0.00    +0.045 A 
ATOM     27  S   UNL     1      -5.864 -10.017  -4.617  0.00  0.00    -0.100 S 
ENDBRANCH  22  23
BRANCH  22  28
ATOM     28  S   UNL     1      -3.971  -7.389  -6.187  0.00  0.00    +0.012 S 
ATOM     29  O   UNL     1      -5.241  -7.035  -5.656  0.00  0.00    -0.168 OA
ATOM     30  O   UNL     1      -2.992  -6.393  -6.447  0.00  0.00    -0.168 OA
BRANCH  28  31
ATOM     31  C   UNL     1      -4.324  -8.095  -7.762  0.00  0.00    +0.126 A 
ATOM     32  C   UNL     1      -5.455  -8.706  -8.190  0.00  0.00    +0.035 A 
ATOM     33  C   UNL     1      -5.508  -9.190  -9.483  0.00  0.00    +0.009 A 
ATOM     34  C   UNL     1      -4.427  -9.038 -10.287  0.00  0.00    +0.047 A 
ATOM     35  S   UNL     1      -3.285  -8.184  -9.212  0.00  0.00    -0.078 S 
ENDBRANCH  28  31
ENDBRANCH  22  28
ENDBRANCH  21  22
ENDBRANCH   3  21
TORSDOF 9
