REMARK  Name = ZINC11998512
REMARK  8 active torsions:
REMARK  status: ('A' for Active; 'I' for Inactive)
REMARK    1  A    between atoms: C_1  and  C_2
REMARK    2  A    between atoms: C_5  and  N_25
REMARK    3  A    between atoms: C_7  and  S_8
REMARK    4  A    between atoms: S_8  and  N_11
REMARK    5  A    between atoms: N_11  and  C_12
REMARK    6  A    between atoms: C_12  and  C_13
REMARK    7  A    between atoms: C_13  and  N_68
REMARK    8  A    between atoms: C_21  and  C_24
REMARK                            x       y       z     vdW  Elec       q    Type
REMARK                         _______ _______ _______ _____ _____    ______ ____
ROOT
ATOM      1  S   UNL     1      -1.619   3.502  -1.203  0.00  0.00    +0.059 S 
ATOM      2  O   UNL     1      -0.297   3.991  -1.019  0.00  0.00    -0.153 OA
ATOM      3  O   UNL     1      -1.891   2.146  -1.526  0.00  0.00    -0.153 OA
ENDROOT
BRANCH   1  10
ATOM      4  C   UNL     1      -4.533   2.835  -0.755  0.00  0.00    +0.046 C 
ATOM      5  C   UNL     1      -3.831   3.507   0.397  0.00  0.00    -0.024 A 
ATOM      6  C   UNL     1      -4.521   3.774   1.565  0.00  0.00    +0.007 A 
ATOM      7  C   UNL     1      -3.882   4.395   2.620  0.00  0.00    +0.025 A 
ATOM      8  C   UNL     1      -2.542   4.742   2.511  0.00  0.00    +0.061 A 
ATOM      9  C   UNL     1      -1.850   4.467   1.339  0.00  0.00    +0.054 A 
ATOM     10  C   UNL     1      -2.496   3.851   0.285  0.00  0.00    +0.110 A 
BRANCH   8  11
ATOM     11  N   UNL     1      -1.890   5.366   3.580  0.00  0.00    -0.144 N 
ATOM     12  C   UNL     1      -0.807   6.153   3.493  0.00  0.00    +0.240 C 
ATOM     13  O   UNL     1      -0.314   6.412   2.416  0.00  0.00    -0.274 OA
ATOM     14  C   UNL     1      -0.225   6.710   4.757  0.00  0.00    +0.122 C 
ATOM     15  C   UNL     1      -1.293   6.623   5.879  0.00  0.00    +0.198 C 
ATOM     16  S   UNL     1      -2.320   5.258   5.195  0.00  0.00    +0.052 S 
ATOM     17  O   UNL     1      -3.701   5.587   5.248  0.00  0.00    -0.155 OA
ATOM     18  O   UNL     1      -1.843   3.994   5.635  0.00  0.00    -0.155 OA
ENDBRANCH   8  11
ENDBRANCH   1  10
BRANCH   1  19
ATOM     19  N   UNL     1      -2.301   4.421  -2.400  0.00  0.00    -0.191 NA
ATOM     20  H   UNL     1      -2.732   3.991  -3.155  0.00  0.00    +0.148 HD
BRANCH  19  21
ATOM     21  C   UNL     1      -2.252   5.883  -2.319  0.00  0.00    +0.094 C 
BRANCH  21  22
ATOM     22  C   UNL     1      -2.612   6.481  -3.680  0.00  0.00    -0.051 C 
ATOM     23  C   UNL     1      -2.504   8.006  -3.611  0.00  0.00    -0.011 C 
ATOM     24  C   UNL     1      -3.468   8.539  -2.549  0.00  0.00    -0.001 C 
ATOM     25  C   UNL     1      -4.900   8.145  -2.917  0.00  0.00    -0.000 C 
ATOM     26  C   UNL     1      -5.008   6.620  -2.985  0.00  0.00    -0.001 C 
ATOM     27  C   UNL     1      -4.045   6.088  -4.047  0.00  0.00    -0.011 C 
BRANCH  22  34
ATOM     28  C   UNL     1      -2.025   6.497  -6.028  0.00  0.00    -0.078 C 
ATOM     29  C   UNL     1      -1.136   5.833  -7.083  0.00  0.00    -0.016 C 
ATOM     30  C   UNL     1       0.333   6.118  -6.758  0.00  0.00    -0.018 C 
ATOM     31  C   UNL     1       0.646   5.603  -5.351  0.00  0.00    -0.016 C 
ATOM     32  C   UNL     1      -0.294   6.273  -4.346  0.00  0.00    -0.078 C 
ATOM     33  C   UNL     1       1.228   5.407  -7.774  0.00  0.00    +0.007 C 
ATOM     34  N   UNL     1      -1.691   5.940  -4.700  0.00  0.00    +0.384 N 
ATOM     35  H   UNL     1      -1.792   4.919  -4.732  0.00  0.00    -0.081 HD
ENDBRANCH  22  34
ENDBRANCH  21  22
ENDBRANCH  19  21
ENDBRANCH   1  19
TORSDOF 6
