REMARK  Name = ZINC39681312
REMARK  6 active torsions:
REMARK  status: ('A' for Active; 'I' for Inactive)
REMARK    1  A    between atoms: C_5  and  O_7
REMARK    2  A    between atoms: O_7  and  C_8
REMARK    3  A    between atoms: C_8  and  C_9
REMARK    4  A    between atoms: C_9  and  N_10
REMARK    5  A    between atoms: C_11  and  C_13
REMARK    6  A    between atoms: C_24  and  C_26
REMARK                            x       y       z     vdW  Elec       q    Type
REMARK                         _______ _______ _______ _____ _____    ______ ____
ROOT
ATOM      1  C   UNL     1       1.515  -6.529   2.238  0.00  0.00    +0.100 C 
ATOM      2  C   UNL     1       0.846  -6.000   3.527  0.00  0.00    +0.121 C 
ATOM      3  N   UNL     1       0.114  -7.165   4.075  0.00  0.00    -0.296 N 
ATOM      4  C   UNL     1       1.021  -8.314   3.840  0.00  0.00    +0.115 C 
ATOM      5  C   UNL     1       1.631  -8.048   2.450  0.00  0.00    -0.004 C 
ATOM      6  C   UNL     1       3.096  -8.475   2.425  0.00  0.00    -0.010 C 
ATOM      7  C   UNL     1       3.183  -9.996   2.578  0.00  0.00    -0.082 C 
ATOM      8  N   UNL     1       2.445 -10.643   1.486  0.00  0.00    +0.379 N 
ATOM      9  C   UNL     1       1.020 -10.301   1.573  0.00  0.00    -0.082 C 
ATOM     10  C   UNL     1       0.842  -8.793   1.377  0.00  0.00    -0.010 C 
ATOM     11  C   UNL     1      -1.102  -7.178   4.657  0.00  0.00    +0.249 C 
ATOM     12  O   UNL     1      -1.532  -8.206   5.144  0.00  0.00    -0.270 OA
ATOM     13  H   UNL     1       2.812 -10.326   0.601  0.00  0.00    -0.086 HD
ATOM     14  H   UNL     1       2.555 -11.643   1.554  0.00  0.00    -0.086 HD
ENDROOT
BRANCH  11  15
ATOM     15  C   UNL     1      -1.912  -5.944   4.702  0.00  0.00    +0.073 A 
ATOM     16  C   UNL     1      -1.291  -4.702   4.854  0.00  0.00    +0.016 A 
ATOM     17  C   UNL     1      -2.052  -3.554   4.896  0.00  0.00    +0.002 A 
ATOM     18  C   UNL     1      -3.430  -3.626   4.786  0.00  0.00    +0.023 A 
ATOM     19  C   UNL     1      -4.055  -4.851   4.635  0.00  0.00    +0.077 A 
ATOM     20  C   UNL     1      -3.303  -6.012   4.587  0.00  0.00    +0.154 A 
ATOM     21  F   UNL     1      -3.913  -7.208   4.434  0.00  0.00    -0.203 F 
ATOM     22 CL   UNL     1      -5.784  -4.931   4.499  0.00  0.00    -0.081 Cl
ENDBRANCH  11  15
BRANCH   1  24
ATOM     23  N   UNL     1       1.216  -6.081  -0.176  0.00  0.00    -0.312 N 
ATOM     24  C   UNL     1       0.652  -6.231   1.039  0.00  0.00    +0.218 C 
ATOM     25  O   UNL     1      -0.549  -6.125   1.167  0.00  0.00    -0.275 OA
ATOM     26  H   UNL     1       2.177  -6.165  -0.278  0.00  0.00    +0.149 HD
BRANCH  23  27
ATOM     27  C   UNL     1       0.378  -5.791  -1.342  0.00  0.00    +0.145 C 
BRANCH  27  28
ATOM     28  C   UNL     1       1.260  -5.670  -2.586  0.00  0.00    +0.248 C 
BRANCH  28  29
ATOM     29  O   UNL     1       1.869  -6.932  -2.863  0.00  0.00    -0.489 OA
BRANCH  29  34
ATOM     30  C   UNL     1       3.738  -5.939  -5.823  0.00  0.00    +0.004 A 
ATOM     31  C   UNL     1       4.360  -7.130  -6.147  0.00  0.00    +0.002 A 
ATOM     32  C   UNL     1       4.148  -8.256  -5.374  0.00  0.00    +0.023 A 
ATOM     33  C   UNL     1       3.314  -8.193  -4.273  0.00  0.00    +0.083 A 
ATOM     34  C   UNL     1       2.689  -6.997  -3.945  0.00  0.00    +0.139 A 
ATOM     35  C   UNL     1       2.903  -5.870  -4.724  0.00  0.00    +0.047 A 
ATOM     36 CL   UNL     1       3.049  -9.607  -3.301  0.00  0.00    -0.080 Cl
ENDBRANCH  29  34
ENDBRANCH  28  29
ENDBRANCH  27  28
ENDBRANCH  23  27
ENDBRANCH   1  24
TORSDOF 6
