REMARK  Name = ZINC11131400
REMARK  8 active torsions:
REMARK  status: ('A' for Active; 'I' for Inactive)
REMARK    1  A    between atoms: C_1  and  C_2
REMARK    2  A    between atoms: C_2  and  C_4
REMARK    3  A    between atoms: C_2  and  S_11
REMARK    4  A    between atoms: N_9  and  C_10
REMARK    5  A    between atoms: S_11  and  C_12
REMARK    6  A    between atoms: C_16  and  C_19
REMARK    7  A    between atoms: N_27  and  C_28
REMARK    8  A    between atoms: C_28  and  C_29
REMARK                            x       y       z     vdW  Elec       q    Type
REMARK                         _______ _______ _______ _____ _____    ______ ____
ROOT
ATOM      1  C   UNL     1       2.506  -4.483  -0.673  0.00  0.00    +0.174 A 
ATOM      2  N   UNL     1       1.330  -4.951  -0.305  0.00  0.00    -0.216 NA
ATOM      3  C   UNL     1       1.075  -6.254  -0.337  0.00  0.00    +0.117 A 
ATOM      4  C   UNL     1       2.037  -7.192  -0.750  0.00  0.00    +0.080 A 
ATOM      5  C   UNL     1       1.595  -8.583  -0.721  0.00  0.00    +0.004 A 
ATOM      6  C   UNL     1       0.334  -8.857  -0.311  0.00  0.00    +0.056 A 
ATOM      7  S   UNL     1      -0.339  -7.249   0.061  0.00  0.00    -0.076 S 
ATOM      8  C   UNL     1       3.304  -6.656  -1.139  0.00  0.00    +0.264 A 
ATOM      9  O   UNL     1       4.198  -7.395  -1.512  0.00  0.00    -0.267 OA
ATOM     10  N   UNL     1       3.496  -5.325  -1.087  0.00  0.00    -0.283 N 
ENDROOT
BRANCH   5  11
ATOM     11  C   UNL     1       2.510  -9.675  -1.131  0.00  0.00    -0.017 A 
ATOM     12  C   UNL     1       3.194  -9.596  -2.344  0.00  0.00    +0.008 A 
ATOM     13  C   UNL     1       4.049 -10.612  -2.717  0.00  0.00    +0.001 A 
ATOM     14  C   UNL     1       4.219 -11.714  -1.897  0.00  0.00    +0.000 A 
ATOM     15  C   UNL     1       3.538 -11.800  -0.696  0.00  0.00    +0.001 A 
ATOM     16  C   UNL     1       2.685 -10.787  -0.309  0.00  0.00    +0.008 A 
ENDBRANCH   5  11
BRANCH   1  17
ATOM     17  S   UNL     1       2.805  -2.747  -0.623  0.00  0.00    -0.075 S 
BRANCH  17  19
ATOM     18  C   UNL     1       0.969  -2.690   1.399  0.00  0.00    +0.029 C 
ATOM     19  C   UNL     1       1.199  -2.169  -0.021  0.00  0.00    +0.137 C 
BRANCH  19  20
ATOM     20  C   UNL     1       1.178  -0.662  -0.013  0.00  0.00    +0.233 C 
ATOM     21  O   UNL     1       2.220  -0.042  -0.019  0.00  0.00    -0.274 OA
ATOM     22  N   UNL     1       0.002  -0.004   0.002  0.00  0.00    -0.239 N 
ATOM     23  C   UNL     1      -0.016   1.344   0.009  0.00  0.00    +0.306 C 
ATOM     24  O   UNL     1       1.028   1.966   0.003  0.00  0.00    -0.252 OA
ATOM     25  N   UNL     1      -1.192   2.002   0.019  0.00  0.00    -0.302 N 
ATOM     26  C   UNL     1      -1.212   3.466   0.027  0.00  0.00    +0.129 C 
ATOM     27  H   UNL     1      -0.831  -0.500   0.007  0.00  0.00    +0.159 HD
ATOM     28  H   UNL     1      -2.026   1.505   0.020  0.00  0.00    +0.150 HD
ENDBRANCH  19  20
ENDBRANCH  17  19
ENDBRANCH   1  17
BRANCH  10  29
ATOM     29  C   UNL     1       4.793  -4.771  -1.484  0.00  0.00    +0.162 C 
BRANCH  29  30
ATOM     30  C   UNL     1       5.697  -4.698  -0.281  0.00  0.00    -0.028 A 
ATOM     31  C   UNL     1       5.716  -3.559   0.502  0.00  0.00    +0.005 A 
ATOM     32  C   UNL     1       6.542  -3.494   1.608  0.00  0.00    +0.000 A 
ATOM     33  C   UNL     1       7.357  -4.564   1.926  0.00  0.00    +0.000 A 
ATOM     34  C   UNL     1       7.343  -5.702   1.140  0.00  0.00    +0.000 A 
ATOM     35  C   UNL     1       6.513  -5.768   0.036  0.00  0.00    +0.005 A 
ENDBRANCH  29  30
ENDBRANCH  10  29
TORSDOF 6
