REMARK  Name = ZINC44827841
REMARK  4 active torsions:
REMARK  status: ('A' for Active; 'I' for Inactive)
REMARK    1  A    between atoms: C_1  and  C_2
REMARK    2  A    between atoms: C_2  and  C_3
REMARK    3  A    between atoms: C_3  and  C_5
REMARK    4  A    between atoms: C_3  and  C_7
REMARK                            x       y       z     vdW  Elec       q    Type
REMARK                         _______ _______ _______ _____ _____    ______ ____
ROOT
ATOM      1  C   UNL     1       0.632  -2.000  -1.327  0.00  0.00    +0.233 C 
ATOM      2  O   UNL     1       0.054  -2.616  -0.457  0.00  0.00    -0.274 OA
ATOM      3  N   UNL     1       1.196  -2.660  -2.358  0.00  0.00    -0.293 N 
ATOM      4  C   UNL     1       1.909  -1.940  -3.426  0.00  0.00    +0.136 C 
ATOM      5  C   UNL     1       3.286  -2.583  -3.615  0.00  0.00    +0.179 C 
ATOM      6  O   UNL     1       3.132  -3.994  -3.789  0.00  0.00    -0.373 OA
ATOM      7  C   UNL     1       2.545  -4.655  -2.669  0.00  0.00    +0.139 C 
ATOM      8  C   UNL     1       1.127  -4.131  -2.454  0.00  0.00    +0.105 C 
ATOM      9  C   UNL     1       0.261  -4.494  -3.663  0.00  0.00    +0.025 C 
ATOM     10  C   UNL     1       0.244  -6.011  -3.850  0.00  0.00    +0.002 C 
ATOM     11  C   UNL     1       1.672  -6.506  -4.096  0.00  0.00    +0.003 C 
ATOM     12  C   UNL     1       2.514  -6.163  -2.894  0.00  0.00    +0.033 C 
ENDROOT
BRANCH   1  13
ATOM     13  C   UNL     1       0.718  -0.497  -1.257  0.00  0.00    +0.177 C 
BRANCH  13  15
ATOM     14  C   UNL     1      -0.019   1.526   0.010  0.00  0.00    +0.005 C 
ATOM     15  C   UNL     1       0.002  -0.004   0.002  0.00  0.00    +0.024 C 
ENDBRANCH  13  15
BRANCH  13  16
ATOM     16  C   UNL     1       2.132  -0.089  -1.209  0.00  0.00    +0.075 C 
ATOM     17  N   UNL     1       3.222   0.226  -1.172  0.00  0.00    -0.196 NA
ENDBRANCH  13  16
ENDBRANCH   1  13
TORSDOF 3
