REMARK  Name = ZINC39212112
REMARK  9 active torsions:
REMARK  status: ('A' for Active; 'I' for Inactive)
REMARK    1  A    between atoms: C_1  and  O_2
REMARK    2  A    between atoms: O_2  and  C_3
REMARK    3  A    between atoms: C_5  and  C_21
REMARK    4  A    between atoms: C_8  and  O_9
REMARK    5  A    between atoms: O_9  and  C_10
REMARK    6  A    between atoms: C_10  and  C_11
REMARK    7  A    between atoms: C_15  and  C_17
REMARK    8  A    between atoms: C_22  and  C_23
REMARK    9  A    between atoms: C_22  and  C_25
REMARK                            x       y       z     vdW  Elec       q    Type
REMARK                         _______ _______ _______ _____ _____    ______ ____
ROOT
ATOM      1  C   UNL     1       0.335  -0.961  -1.363  0.00  0.00    +0.162 A 
ATOM      2  C   UNL     1       1.040  -0.096  -2.175  0.00  0.00    +0.057 A 
ATOM      3  C   UNL     1       1.641  -0.573  -3.345  0.00  0.00    -0.020 A 
ATOM      4  C   UNL     1       1.524  -1.925  -3.686  0.00  0.00    +0.012 A 
ATOM      5  C   UNL     1       0.818  -2.782  -2.869  0.00  0.00    +0.050 A 
ATOM      6  C   UNL     1       0.227  -2.308  -1.706  0.00  0.00    +0.162 A 
ENDROOT
BRANCH   1   8
ATOM      7  C   UNL     1      -0.099   0.890   0.065  0.00  0.00    +0.277 C 
ATOM      8  O   UNL     1      -0.250  -0.501  -0.225  0.00  0.00    -0.491 OA
ENDBRANCH   1   8
BRANCH   3   9
ATOM      9  C   UNL     1       2.394   0.343  -4.215  0.00  0.00    +0.026 C 
ATOM     10  C   UNL     1       3.517  -0.081  -4.831  0.00  0.00    +0.072 C 
BRANCH  10  11
ATOM     11  C   UNL     1       4.197   0.800  -5.848  0.00  0.00    +0.216 C 
ATOM     12  N   UNL     1       4.313   0.093  -7.130  0.00  0.00    -0.359 N 
ATOM     13  C   UNL     1       5.580  -0.004  -7.409  0.00  0.00    +0.060 A 
ATOM     14  C   UNL     1       6.312  -0.598  -8.537  0.00  0.00    +0.027 A 
ATOM     15  C   UNL     1       7.659  -0.547  -8.556  0.00  0.00    +0.002 A 
ATOM     16  C   UNL     1       8.410   0.055  -7.531  0.00  0.00    +0.002 A 
ATOM     17  C   UNL     1       7.839   0.628  -6.452  0.00  0.00    +0.027 A 
ATOM     18  C   UNL     1       6.375   0.634  -6.324  0.00  0.00    +0.060 A 
ATOM     19  N   UNL     1       5.568   1.101  -5.416  0.00  0.00    -0.359 N 
ATOM     20  H   UNL     1       3.579  -0.240  -7.669  0.00  0.00    +0.162 HD
ATOM     21  H   UNL     1       5.825   1.564  -4.604  0.00  0.00    +0.162 HD
ENDBRANCH  10  11
BRANCH  10  22
ATOM     22  C   UNL     1       4.063  -1.368  -4.519  0.00  0.00    +0.099 C 
ATOM     23  N   UNL     1       4.495  -2.388  -4.272  0.00  0.00    -0.191 NA
ENDBRANCH  10  22
ENDBRANCH   3   9
BRANCH   6  24
ATOM     24  O   UNL     1      -0.464  -3.159  -0.902  0.00  0.00    -0.484 OA
BRANCH  24  25
ATOM     25  C   UNL     1      -0.535  -4.525  -1.313  0.00  0.00    +0.264 C 
BRANCH  25  26
ATOM     26  C   UNL     1      -1.335  -5.311  -0.306  0.00  0.00    -0.010 A 
ATOM     27  C   UNL     1      -0.700  -5.904   0.770  0.00  0.00    +0.007 A 
ATOM     28  C   UNL     1      -1.433  -6.625   1.693  0.00  0.00    +0.001 A 
ATOM     29  C   UNL     1      -2.801  -6.753   1.541  0.00  0.00    +0.012 A 
ATOM     30  C   UNL     1      -3.436  -6.161   0.466  0.00  0.00    +0.055 A 
ATOM     31  C   UNL     1      -2.703  -5.436  -0.456  0.00  0.00    +0.019 A 
BRANCH  30  32
ATOM     32  C   UNL     1      -4.927  -6.302   0.300  0.00  0.00    +0.417 C 
ATOM     33  F   UNL     1      -5.443  -7.069   1.349  0.00  0.00    -0.166 F 
ATOM     34  F   UNL     1      -5.520  -5.035   0.314  0.00  0.00    -0.166 F 
ATOM     35  F   UNL     1      -5.203  -6.932  -0.918  0.00  0.00    -0.166 F 
ENDBRANCH  30  32
ENDBRANCH  25  26
ENDBRANCH  24  25
ENDBRANCH   6  24
TORSDOF 8
