REMARK  Name = ZINC39675362
REMARK  13 active torsions:
REMARK  status: ('A' for Active; 'I' for Inactive)
REMARK    1  A    between atoms: C_1  and  C_2
REMARK    2  A    between atoms: C_3  and  C_12
REMARK    3  A    between atoms: C_7  and  O_8
REMARK    4  A    between atoms: O_8  and  C_9
REMARK    5  A    between atoms: C_9  and  C_11
REMARK    6  A    between atoms: C_16  and  C_25
REMARK    7  A    between atoms: N_27  and  C_28
REMARK    8  A    between atoms: C_28  and  C_30
REMARK    9  A    between atoms: C_28  and  C_31
REMARK   10  A    between atoms: C_31  and  C_32
REMARK   11  A    between atoms: C_32  and  C_33
REMARK   12  A    between atoms: C_36  and  O_39
REMARK   13  A    between atoms: O_39  and  C_40
REMARK                            x       y       z     vdW  Elec       q    Type
REMARK                         _______ _______ _______ _____ _____    ______ ____
ROOT
ATOM      1  C   UNL     1      -0.154  -0.083  -2.675  0.00  0.00    +0.247 C 
ATOM      2  O   UNL     1      -0.082   1.124  -2.804  0.00  0.00    -0.270 OA
ATOM      3  N   UNL     1      -0.378  -0.864  -3.750  0.00  0.00    -0.296 N 
ATOM      4  C   UNL     1      -0.622  -2.325  -3.777  0.00  0.00    +0.121 C 
ATOM      5  C   UNL     1      -1.714  -2.519  -4.853  0.00  0.00    +0.100 C 
ATOM      6  C   UNL     1      -1.586  -1.290  -5.768  0.00  0.00    -0.004 C 
ATOM      7  C   UNL     1      -0.444  -0.453  -5.174  0.00  0.00    +0.115 C 
ATOM      8  C   UNL     1      -2.882  -0.485  -5.756  0.00  0.00    -0.010 C 
ATOM      9  C   UNL     1      -2.751   0.700  -6.716  0.00  0.00    -0.082 C 
ATOM     10  N   UNL     1      -2.470   0.206  -8.070  0.00  0.00    +0.379 N 
ATOM     11  C   UNL     1      -1.176  -0.487  -8.092  0.00  0.00    -0.082 C 
ATOM     12  C   UNL     1      -1.241  -1.722  -7.190  0.00  0.00    -0.010 C 
ATOM     13  H   UNL     1      -3.198  -0.434  -8.351  0.00  0.00    -0.086 HD
ATOM     14  H   UNL     1      -2.444   0.984  -8.712  0.00  0.00    -0.086 HD
ENDROOT
BRANCH   1  17
ATOM     15  C   UNL     1      -1.178   1.291  -0.344  0.00  0.00    +0.048 C 
ATOM     16  C   UNL     1      -0.486  -0.040  -0.207  0.00  0.00    +0.004 A 
ATOM     17  C   UNL     1       0.005  -0.694  -1.338  0.00  0.00    +0.043 A 
ATOM     18  C   UNL     1       0.645  -1.926  -1.203  0.00  0.00    +0.013 A 
ATOM     19  C   UNL     1       0.791  -2.494   0.047  0.00  0.00    +0.004 A 
ATOM     20  C   UNL     1       0.304  -1.845   1.167  0.00  0.00    +0.047 A 
ATOM     21  C   UNL     1      -0.329  -0.616   1.042  0.00  0.00    +0.135 A 
BRANCH  21  22
ATOM     22  O   UNL     1      -0.801   0.020   2.147  0.00  0.00    -0.426 OA
BRANCH  22  23
ATOM     23  C   UNL     1      -0.099   1.059   2.625  0.00  0.00    +0.309 C 
ATOM     24  O   UNL     1       0.967   1.346   2.131  0.00  0.00    -0.251 OA
ATOM     25  C   UNL     1      -0.638   1.869   3.775  0.00  0.00    +0.136 C 
ENDBRANCH  22  23
ENDBRANCH  21  22
ENDBRANCH   1  17
BRANCH   5  26
ATOM     26  C   UNL     1      -1.463  -3.785  -5.632  0.00  0.00    +0.218 C 
ATOM     27  O   UNL     1      -0.339  -4.232  -5.716  0.00  0.00    -0.275 OA
ATOM     28  N   UNL     1      -2.487  -4.419  -6.236  0.00  0.00    -0.312 N 
ATOM     29  H   UNL     1      -3.386  -4.061  -6.169  0.00  0.00    +0.149 HD
BRANCH  28  30
ATOM     30  C   UNL     1      -2.243  -5.649  -6.994  0.00  0.00    +0.070 C 
ATOM     31  C   UNL     1      -2.256  -6.846  -6.041  0.00  0.00    +0.028 C 
BRANCH  30  32
ATOM     32  C   UNL     1      -3.338  -5.824  -8.048  0.00  0.00    +0.026 C 
BRANCH  32  33
ATOM     33  C   UNL     1      -3.245  -4.692  -9.073  0.00  0.00    +0.037 C 
BRANCH  33  34
ATOM     34  C   UNL     1      -4.324  -4.865 -10.111  0.00  0.00    -0.047 A 
ATOM     35  C   UNL     1      -4.074  -5.611 -11.248  0.00  0.00    +0.007 A 
ATOM     36  C   UNL     1      -5.061  -5.771 -12.202  0.00  0.00    +0.046 A 
ATOM     37  C   UNL     1      -6.303  -5.182 -12.018  0.00  0.00    +0.120 A 
ATOM     38  C   UNL     1      -6.551  -4.434 -10.876  0.00  0.00    +0.046 A 
ATOM     39  C   UNL     1      -5.563  -4.281  -9.923  0.00  0.00    +0.007 A 
BRANCH  37  40
ATOM     40  O   UNL     1      -7.276  -5.337 -12.954  0.00  0.00    -0.495 OA
ATOM     41  C   UNL     1      -8.530  -4.702 -12.698  0.00  0.00    +0.277 C 
ENDBRANCH  37  40
ENDBRANCH  33  34
ENDBRANCH  32  33
ENDBRANCH  30  32
ENDBRANCH  28  30
ENDBRANCH   5  26
TORSDOF 9
