REMARK  Name = ZINC49209944
REMARK  6 active torsions:
REMARK  status: ('A' for Active; 'I' for Inactive)
REMARK    1  A    between atoms: C_1  and  C_2
REMARK    2  A    between atoms: N_7  and  C_8
REMARK    3  A    between atoms: N_10  and  C_11
REMARK    4  A    between atoms: C_11  and  C_13
REMARK    5  A    between atoms: C_11  and  C_14
REMARK    6  A    between atoms: C_14  and  C_15
REMARK                            x       y       z     vdW  Elec       q    Type
REMARK                         _______ _______ _______ _____ _____    ______ ____
ROOT
ATOM      1  C   UNL     1       0.256  -4.858  -0.027  0.00  0.00    +0.326 C 
ATOM      2  O   UNL     1      -0.952  -4.691  -0.021  0.00  0.00    -0.251 OA
ATOM      3  N   UNL     1       0.763  -6.107  -0.036  0.00  0.00    -0.295 N 
ATOM      4  H   UNL     1       1.724  -6.240  -0.041  0.00  0.00    +0.151 HD
ENDROOT
BRANCH   1  11
ATOM      5  C   UNL     1      -0.018   1.503   0.010  0.00  0.00    +0.053 C 
ATOM      6  C   UNL     1       0.002  -0.004   0.002  0.00  0.00    +0.006 A 
ATOM      7  C   UNL     1      -1.025  -0.859   0.002  0.00  0.00    +0.095 A 
ATOM      8  N   UNL     1      -0.732  -2.188  -0.007  0.00  0.00    -0.342 N 
ATOM      9  H   UNL     1      -1.440  -2.851  -0.008  0.00  0.00    +0.167 HD
ATOM     10  C   UNL     1       0.575  -2.571  -0.014  0.00  0.00    +0.165 A 
ATOM     11  N   UNL     1       1.076  -3.804  -0.024  0.00  0.00    -0.139 NA
ATOM     12  S   UNL     1       1.403  -1.107  -0.018  0.00  0.00    -0.058 S 
ENDBRANCH   1  11
BRANCH   3  13
ATOM     13  C   UNL     1      -0.137  -7.263  -0.040  0.00  0.00    +0.076 C 
ATOM     14  C   UNL     1      -0.544  -7.597   1.397  0.00  0.00    +0.028 C 
BRANCH  13  15
ATOM     15  C   UNL     1       0.579  -8.465  -0.659  0.00  0.00    +0.057 C 
BRANCH  15  16
ATOM     16  C   UNL     1       0.870  -8.182  -2.111  0.00  0.00    -0.046 A 
ATOM     17  C   UNL     1      -0.056  -8.520  -3.080  0.00  0.00    +0.005 A 
ATOM     18  C   UNL     1       0.211  -8.261  -4.411  0.00  0.00    +0.015 A 
ATOM     19  C   UNL     1       1.404  -7.663  -4.774  0.00  0.00    +0.018 A 
ATOM     20  C   UNL     1       2.330  -7.325  -3.804  0.00  0.00    +0.015 A 
ATOM     21  C   UNL     1       2.061  -7.580  -2.472  0.00  0.00    +0.005 A 
ATOM     22 BR   UNL     1       1.770  -7.309  -6.595  0.00  0.00    -0.050 Br
ENDBRANCH  15  16
ENDBRANCH  13  15
ENDBRANCH   3  13
TORSDOF 4
