REMARK  Name = ZINC39655751
REMARK  6 active torsions:
REMARK  status: ('A' for Active; 'I' for Inactive)
REMARK    1  A    between atoms: C_1  and  C_2
REMARK    2  A    between atoms: C_8  and  C_11
REMARK    3  A    between atoms: C_11  and  C_12
REMARK    4  A    between atoms: C_12  and  N_13
REMARK    5  A    between atoms: C_14  and  C_16
REMARK    6  A    between atoms: C_27  and  C_29
REMARK                            x       y       z     vdW  Elec       q    Type
REMARK                         _______ _______ _______ _____ _____    ______ ____
ROOT
ATOM      1  C   UNL     1       4.623  -0.109  -7.495  0.00  0.00    +0.100 C 
ATOM      2  C   UNL     1       4.722   0.718  -8.797  0.00  0.00    +0.121 C 
ATOM      3  N   UNL     1       5.637  -0.060  -9.665  0.00  0.00    -0.296 N 
ATOM      4  C   UNL     1       5.261  -1.474  -9.426  0.00  0.00    +0.115 C 
ATOM      5  C   UNL     1       4.976  -1.546  -7.912  0.00  0.00    -0.004 C 
ATOM      6  C   UNL     1       3.800  -2.480  -7.642  0.00  0.00    -0.010 C 
ATOM      7  C   UNL     1       4.196  -3.913  -8.009  0.00  0.00    -0.082 C 
ATOM      8  N   UNL     1       5.362  -4.319  -7.216  0.00  0.00    +0.379 N 
ATOM      9  C   UNL     1       6.515  -3.475  -7.551  0.00  0.00    -0.082 C 
ATOM     10  C   UNL     1       6.217  -2.024  -7.164  0.00  0.00    -0.010 C 
ATOM     11  C   UNL     1       6.596   0.412 -10.487  0.00  0.00    +0.248 C 
ATOM     12  O   UNL     1       6.853   1.600 -10.502  0.00  0.00    -0.270 OA
ATOM     13  H   UNL     1       5.149  -4.222  -6.234  0.00  0.00    -0.086 HD
ATOM     14  H   UNL     1       5.583  -5.283  -7.415  0.00  0.00    -0.086 HD
ENDROOT
BRANCH  11  15
ATOM     15  C   UNL     1       7.334  -0.514 -11.369  0.00  0.00    +0.055 A 
ATOM     16  C   UNL     1       6.684  -1.615 -11.931  0.00  0.00    +0.016 A 
ATOM     17  C   UNL     1       7.378  -2.476 -12.754  0.00  0.00    +0.021 A 
ATOM     18  C   UNL     1       8.719  -2.253 -13.023  0.00  0.00    +0.042 A 
ATOM     19  C   UNL     1       9.370  -1.165 -12.469  0.00  0.00    +0.040 A 
ATOM     20  C   UNL     1       8.685  -0.290 -11.649  0.00  0.00    +0.054 A 
ATOM     21 CL   UNL     1       9.501   1.079 -10.960  0.00  0.00    -0.083 Cl
ATOM     22 CL   UNL     1       9.585  -3.343 -14.060  0.00  0.00    -0.083 Cl
ENDBRANCH  11  15
BRANCH   1  24
ATOM     23  N   UNL     1       2.997  -0.332  -5.644  0.00  0.00    -0.315 N 
ATOM     24  C   UNL     1       3.222  -0.052  -6.943  0.00  0.00    +0.218 C 
ATOM     25  O   UNL     1       2.296   0.245  -7.668  0.00  0.00    -0.275 OA
ATOM     26  H   UNL     1       3.738  -0.570  -5.064  0.00  0.00    +0.149 HD
BRANCH  23  27
ATOM     27  C   UNL     1       1.635  -0.277  -5.107  0.00  0.00    +0.109 C 
BRANCH  27  28
ATOM     28  C   UNL     1       1.658  -0.635  -3.620  0.00  0.00    +0.056 C 
BRANCH  28  36
ATOM     29  C   UNL     1      -1.874  -5.125  -4.048  0.00  0.00    +0.044 C 
ATOM     30  C   UNL     1      -1.869  -3.721  -3.499  0.00  0.00    -0.050 A 
ATOM     31  C   UNL     1      -3.003  -3.222  -2.874  0.00  0.00    +0.005 A 
ATOM     32  C   UNL     1      -3.019  -1.942  -2.365  0.00  0.00    +0.026 A 
ATOM     33  C   UNL     1      -1.888  -1.139  -2.478  0.00  0.00    +0.047 A 
ATOM     34  N   UNL     1      -1.595   0.147  -2.084  0.00  0.00    -0.360 N 
ATOM     35  C   UNL     1      -0.314   0.463  -2.444  0.00  0.00    +0.087 A 
ATOM     36  C   UNL     1       0.257  -0.579  -3.068  0.00  0.00    -0.021 A 
ATOM     37  C   UNL     1      -0.741  -1.651  -3.111  0.00  0.00    +0.003 A 
ATOM     38  C   UNL     1      -0.745  -2.953  -3.615  0.00  0.00    +0.013 A 
ATOM     39  H   UNL     1      -2.207   0.741  -1.620  0.00  0.00    +0.165 HD
ENDBRANCH  28  36
ENDBRANCH  27  28
ENDBRANCH  23  27
ENDBRANCH   1  24
TORSDOF 5
