REMARK  Name = ZINC35886409
REMARK  7 active torsions:
REMARK  status: ('A' for Active; 'I' for Inactive)
REMARK    1  A    between atoms: C_1  and  C_2
REMARK    2  A    between atoms: N_6  and  C_28
REMARK    3  A    between atoms: C_10  and  N_15
REMARK    4  A    between atoms: N_18  and  C_19
REMARK    5  A    between atoms: C_22  and  C_25
REMARK    6  A    between atoms: C_25  and  C_26
REMARK    7  A    between atoms: C_25  and  C_27
REMARK                            x       y       z     vdW  Elec       q    Type
REMARK                         _______ _______ _______ _____ _____    ______ ____
ROOT
ATOM      1  C   UNL     1      -0.176   1.901  -0.114  0.00  0.00    +0.062 C 
ATOM      2  C   UNL     1      -0.126   0.372  -0.096  0.00  0.00    +0.256 C 
ATOM      3  C   UNL     1      -1.517  -0.167   0.036  0.00  0.00    +0.257 C 
ATOM      4  O   UNL     1      -2.379   0.656  -0.191  0.00  0.00    -0.272 OA
ATOM      5  N   UNL     1      -1.975  -1.312   0.338  0.00  0.00    -0.287 N 
ATOM      6  C   UNL     1      -1.381  -2.479   0.898  0.00  0.00    +0.147 C 
ATOM      7  C   UNL     1       0.060  -2.438   1.303  0.00  0.00    +0.013 A 
ATOM      8  C   UNL     1       0.530  -3.674   1.776  0.00  0.00    +0.032 A 
ATOM      9  C   UNL     1       1.848  -3.849   2.145  0.00  0.00    +0.035 A 
ATOM     10  C   UNL     1       2.723  -2.776   2.034  0.00  0.00    +0.027 A 
ATOM     11  C   UNL     1       2.251  -1.569   1.591  0.00  0.00    +0.048 A 
ATOM     12  C   UNL     1       0.890  -1.379   1.246  0.00  0.00    +0.126 A 
ATOM     13  O   UNL     1       0.678  -0.055   0.985  0.00  0.00    -0.480 OA
ENDROOT
BRANCH   5  14
ATOM     14  C   UNL     1      -3.404  -1.464   0.051  0.00  0.00    +0.107 C 
ATOM     15  C   UNL     1      -3.589  -2.508  -1.048  0.00  0.00    +0.027 C 
ATOM     16  C   UNL     1      -5.086  -2.811  -1.181  0.00  0.00    +0.007 C 
ATOM     17  C   UNL     1      -5.534  -3.574   0.064  0.00  0.00    +0.035 C 
ATOM     18  C   UNL     1      -5.101  -2.852   1.313  0.00  0.00    -0.042 A 
ATOM     19  C   UNL     1      -4.120  -1.887   1.307  0.00  0.00    -0.024 A 
ATOM     20  C   UNL     1      -3.762  -1.264   2.496  0.00  0.00    +0.006 A 
ATOM     21  C   UNL     1      -4.385  -1.603   3.680  0.00  0.00    +0.000 A 
ATOM     22  C   UNL     1      -5.372  -2.570   3.684  0.00  0.00    +0.000 A 
ATOM     23  C   UNL     1      -5.728  -3.190   2.505  0.00  0.00    +0.004 A 
ENDBRANCH   5  14
BRANCH   9  24
ATOM     24  N   UNL     1       2.296  -5.088   2.624  0.00  0.00    -0.269 N 
ATOM     25  C   UNL     1       3.248  -5.138   3.576  0.00  0.00    +0.308 C 
ATOM     26  O   UNL     1       3.648  -4.111   4.091  0.00  0.00    -0.252 OA
ATOM     27  N   UNL     1       3.758  -6.325   3.958  0.00  0.00    -0.269 N 
ATOM     28  H   UNL     1       1.920  -5.909   2.270  0.00  0.00    +0.156 HD
ATOM     29  H   UNL     1       3.395  -7.148   3.595  0.00  0.00    +0.156 HD
BRANCH  27  30
ATOM     30  C   UNL     1       4.811  -6.372   4.878  0.00  0.00    +0.035 A 
ATOM     31  C   UNL     1       4.875  -5.444   5.910  0.00  0.00    +0.023 A 
ATOM     32  C   UNL     1       5.916  -5.493   6.816  0.00  0.00    +0.006 A 
ATOM     33  C   UNL     1       6.894  -6.463   6.697  0.00  0.00    -0.045 A 
ATOM     34  C   UNL     1       6.833  -7.388   5.671  0.00  0.00    +0.006 A 
ATOM     35  C   UNL     1       5.792  -7.348   4.765  0.00  0.00    +0.023 A 
BRANCH  33  36
ATOM     36  C   UNL     1       8.029  -6.512   7.688  0.00  0.00    +0.013 C 
ATOM     37  C   UNL     1       8.020  -7.863   8.406  0.00  0.00    +0.012 C 
ATOM     38  C   UNL     1       9.358  -6.336   6.950  0.00  0.00    +0.012 C 
ENDBRANCH  33  36
ENDBRANCH  27  30
ENDBRANCH   9  24
TORSDOF 4
