REMARK  Name = ZINC07781558
REMARK  4 active torsions:
REMARK  status: ('A' for Active; 'I' for Inactive)
REMARK    1  A    between atoms: C_1  and  C_2
REMARK    2  A    between atoms: C_9  and  C_14
REMARK    3  A    between atoms: C_14  and  N_16
REMARK    4  A    between atoms: N_18  and  C_26
REMARK                            x       y       z     vdW  Elec       q    Type
REMARK                         _______ _______ _______ _____ _____    ______ ____
ROOT
ATOM      1  C   UNL     1       1.319  -0.137  -2.398  0.00  0.00    +0.029 C 
ATOM      2  C   UNL     1       1.536  -0.373  -0.902  0.00  0.00    +0.134 C 
ATOM      3  C   UNL     1       2.624   0.537  -0.401  0.00  0.00    +0.230 C 
ATOM      4  O   UNL     1       3.756   0.105  -0.355  0.00  0.00    -0.274 OA
ATOM      5  N   UNL     1       2.413   1.789  -0.005  0.00  0.00    -0.284 N 
ATOM      6  C   UNL     1       1.191   2.457   0.004  0.00  0.00    +0.048 A 
ATOM      7  C   UNL     1       1.174   3.843   0.007  0.00  0.00    +0.037 A 
ATOM      8  C   UNL     1      -0.042   4.528   0.021  0.00  0.00    +0.041 A 
ATOM      9  C   UNL     1      -1.246   3.821   0.032  0.00  0.00    +0.014 A 
ATOM     10  C   UNL     1      -1.231   2.443   0.021  0.00  0.00    +0.017 A 
ATOM     11  C   UNL     1      -0.022   1.761   0.012  0.00  0.00    +0.030 A 
ATOM     12  S   UNL     1       0.002  -0.004   0.002  0.00  0.00    -0.111 S 
ATOM     13  H   UNL     1       3.186   2.286   0.308  0.00  0.00    +0.155 HD
ENDROOT
BRANCH   8  14
ATOM     14  C   UNL     1      -0.055   6.007   0.024  0.00  0.00    +0.269 C 
ATOM     15  O   UNL     1       0.996   6.626   0.015  0.00  0.00    -0.268 OA
BRANCH  14  16
ATOM     16  N   UNL     1      -1.219   6.665   0.038  0.00  0.00    -0.152 NA
ATOM     17  C   UNL     1      -1.231   7.993   0.041  0.00  0.00    +0.166 A 
ATOM     18  N   UNL     1      -2.300   8.838   0.053  0.00  0.00    -0.324 N 
ATOM     19  C   UNL     1      -2.108  10.208   0.055  0.00  0.00    +0.057 A 
ATOM     20  C   UNL     1      -3.093  11.211   0.066  0.00  0.00    +0.027 A 
ATOM     21  C   UNL     1      -2.746  12.540   0.065  0.00  0.00    +0.002 A 
ATOM     22  C   UNL     1      -1.419  12.937   0.053  0.00  0.00    +0.001 A 
ATOM     23  C   UNL     1      -0.428  11.972   0.041  0.00  0.00    +0.017 A 
ATOM     24  C   UNL     1      -0.774  10.641   0.042  0.00  0.00    +0.039 A 
ATOM     25  S   UNL     1       0.151   9.124   0.037  0.00  0.00    -0.052 S 
ATOM     26  C   UNL     1      -3.660   8.292   0.065  0.00  0.00    +0.151 C 
ENDBRANCH  14  16
ENDBRANCH   8  14
TORSDOF 2
