REMARK  Name = ZINC39944266
REMARK  5 active torsions:
REMARK  status: ('A' for Active; 'I' for Inactive)
REMARK    1  A    between atoms: C_4  and  N_15
REMARK    2  A    between atoms: C_5  and  C_7
REMARK    3  A    between atoms: C_16  and  C_18
REMARK    4  A    between atoms: N_20  and  N_21
REMARK    5  A    between atoms: C_22  and  C_23
REMARK                            x       y       z     vdW  Elec       q    Type
REMARK                         _______ _______ _______ _____ _____    ______ ____
ROOT
ATOM      1  N   UNL     1       3.948  -0.151   0.364  0.00  0.00    -0.277 N 
ATOM      2  C   UNL     1       4.958   0.731   0.508  0.00  0.00    +0.305 C 
ATOM      3  O   UNL     1       4.752   1.918   0.365  0.00  0.00    -0.265 OA
ATOM      4  H   UNL     1       4.122  -1.103   0.431  0.00  0.00    +0.155 HD
ENDROOT
BRANCH   1   8
ATOM      5  C   UNL     1       0.079   1.216  -0.372  0.00  0.00    +0.001 A 
ATOM      6  C   UNL     1       1.173   1.937  -0.824  0.00  0.00    +0.002 A 
ATOM      7  C   UNL     1       2.455   1.487  -0.582  0.00  0.00    +0.024 A 
ATOM      8  C   UNL     1       2.657   0.305   0.119  0.00  0.00    +0.046 A 
ATOM      9  C   UNL     1       1.552  -0.427   0.579  0.00  0.00    +0.058 A 
ATOM     10  C   UNL     1       0.260   0.041   0.326  0.00  0.00    +0.015 A 
BRANCH   9  11
ATOM     11  C   UNL     1       1.752  -1.684   1.324  0.00  0.00    +0.249 C 
ATOM     12  O   UNL     1       2.557  -1.729   2.235  0.00  0.00    -0.270 OA
ATOM     13  N   UNL     1       1.044  -2.783   0.996  0.00  0.00    -0.293 N 
ATOM     14  C   UNL     1       0.162  -2.792  -0.182  0.00  0.00    +0.136 C 
ATOM     15  C   UNL     1       0.492  -4.030  -1.023  0.00  0.00    +0.179 C 
ATOM     16  O   UNL     1       0.448  -5.191  -0.189  0.00  0.00    -0.377 OA
ATOM     17  C   UNL     1       1.412  -5.188   0.867  0.00  0.00    +0.179 C 
ATOM     18  C   UNL     1       1.134  -4.011   1.802  0.00  0.00    +0.136 C 
ENDBRANCH   9  11
ENDBRANCH   1   8
BRANCH   2  19
ATOM     19  C   UNL     1       6.328   0.246   0.844  0.00  0.00    +0.318 C 
ATOM     20  O   UNL     1       6.534  -0.941   0.987  0.00  0.00    -0.263 OA
ATOM     21  N   UNL     1       7.337   1.128   0.988  0.00  0.00    -0.199 N 
ATOM     22  H   UNL     1       7.173   2.077   0.874  0.00  0.00    +0.178 HD
BRANCH  21  23
ATOM     23  N   UNL     1       8.624   0.673   1.304  0.00  0.00    -0.188 NA
ATOM     24  C   UNL     1       9.606   1.529   1.444  0.00  0.00    +0.136 C 
BRANCH  24  25
ATOM     25  C   UNL     1      10.894   1.074   1.759  0.00  0.00    +0.000 C 
ATOM     26  C   UNL     1      12.037   1.847   1.947  0.00  0.00    +0.005 A 
ATOM     27  C   UNL     1      12.269   3.239   1.887  0.00  0.00    +0.025 A 
ATOM     28  C   UNL     1      13.515   3.724   2.120  0.00  0.00    +0.019 A 
ATOM     29  C   UNL     1      14.588   2.877   2.420  0.00  0.00    +0.017 A 
ATOM     30  C   UNL     1      14.439   1.533   2.493  0.00  0.00    +0.027 A 
ATOM     31  C   UNL     1      13.164   0.950   2.263  0.00  0.00    +0.043 A 
ATOM     32  N   UNL     1      12.764  -0.303   2.275  0.00  0.00    -0.380 N 
ATOM     33  C   UNL     1      11.331  -0.358   1.973  0.00  0.00    +0.150 C 
ATOM     34 BR   UNL     1      13.809   5.590   2.035  0.00  0.00    -0.050 Br
ATOM     35  H   UNL     1      13.329  -1.071   2.458  0.00  0.00    +0.160 HD
ENDBRANCH  24  25
ENDBRANCH  21  23
ENDBRANCH   2  19
TORSDOF 5
