REMARK  Name = ZINC50544277
REMARK  3 active torsions:
REMARK  status: ('A' for Active; 'I' for Inactive)
REMARK    1  A    between atoms: C_3  and  N_8
REMARK    2  A    between atoms: C_5  and  C_6
REMARK    3  A    between atoms: C_13  and  C_15
REMARK                            x       y       z     vdW  Elec       q    Type
REMARK                         _______ _______ _______ _____ _____    ______ ____
ROOT
ATOM      1  N   UNL     1       3.495   0.633  -0.196  0.00  0.00    -0.290 N 
ATOM      2  C   UNL     1       4.282   1.867  -0.327  0.00  0.00    +0.109 C 
ATOM      3  C   UNL     1       5.363   1.651  -1.391  0.00  0.00    +0.019 C 
ATOM      4  C   UNL     1       6.189   0.414  -1.028  0.00  0.00    +0.004 C 
ATOM      5  C   UNL     1       5.282  -0.818  -1.005  0.00  0.00    +0.032 C 
ATOM      6  C   UNL     1       4.199  -0.629   0.068  0.00  0.00    +0.162 C 
ENDROOT
BRANCH   1   9
ATOM      7  C   UNL     1       0.035   1.351  -0.675  0.00  0.00    +0.054 A 
ATOM      8  C   UNL     1       1.369   1.752  -0.683  0.00  0.00    +0.067 A 
ATOM      9  C   UNL     1       2.122   0.660  -0.312  0.00  0.00    +0.190 A 
ATOM     10  O   UNL     1       1.298  -0.372  -0.083  0.00  0.00    -0.439 OA
ATOM     11  C   UNL     1       0.020   0.018  -0.296  0.00  0.00    +0.169 A 
BRANCH  11  12
ATOM     12  C   UNL     1      -1.122  -0.787  -0.156  0.00  0.00    +0.297 C 
ATOM     13  O   UNL     1      -1.009  -1.948   0.184  0.00  0.00    -0.292 OA
ENDBRANCH  11  12
ENDBRANCH   1   9
BRANCH   6  14
ATOM     14  C   UNL     1       3.222  -1.775   0.009  0.00  0.00    +0.231 C 
ATOM     15  O   UNL     1       2.577  -1.971  -0.999  0.00  0.00    -0.274 OA
ATOM     16  N   UNL     1       3.064  -2.581   1.078  0.00  0.00    -0.328 N 
ATOM     17  H   UNL     1       3.579  -2.424   1.885  0.00  0.00    +0.145 HD
ATOM     18  H   UNL     1       2.435  -3.318   1.040  0.00  0.00    +0.145 HD
ENDBRANCH   6  14
TORSDOF 3
