REMARK  Name = ZINC15673666
REMARK  9 active torsions:
REMARK  status: ('A' for Active; 'I' for Inactive)
REMARK    1  A    between atoms: C_1  and  N_2
REMARK    2  A    between atoms: N_2  and  C_3
REMARK    3  A    between atoms: C_3  and  C_4
REMARK    4  A    between atoms: C_10  and  C_12
REMARK    5  A    between atoms: C_12  and  C_13
REMARK    6  A    between atoms: C_18  and  C_20
REMARK    7  A    between atoms: C_20  and  C_21
REMARK    8  A    between atoms: C_23  and  C_26
REMARK    9  A    between atoms: C_26  and  C_27
REMARK                            x       y       z     vdW  Elec       q    Type
REMARK                         _______ _______ _______ _____ _____    ______ ____
ROOT
ATOM      1  C   UNL     1      -2.551  -1.446   3.937  0.00  0.00    -0.002 C 
ATOM      2  C   UNL     1      -3.252  -0.087   4.013  0.00  0.00    -0.015 C 
ATOM      3  C   UNL     1      -2.526   0.800   5.028  0.00  0.00    -0.082 C 
ATOM      4  C   UNL     1      -1.828  -1.136   6.307  0.00  0.00    -0.079 C 
ATOM      5  C   UNL     1      -2.532  -2.080   5.330  0.00  0.00    -0.019 C 
ATOM      6  N   UNL     1      -2.542   0.154   6.354  0.00  0.00    +0.379 N 
ATOM      7  H   UNL     1      -3.514  -0.008   6.640  0.00  0.00    -0.086 HD
ATOM      8  H   UNL     1      -2.083   0.770   7.035  0.00  0.00    -0.086 HD
ENDROOT
BRANCH   1   9
ATOM      9  C   UNL     1      -1.116  -1.254   3.444  0.00  0.00    +0.099 C 
BRANCH   9  12
ATOM     10  C   UNL     1       1.300  -0.730   2.058  0.00  0.00    +0.132 C 
ATOM     11  N   UNL     1       0.022  -0.500   1.381  0.00  0.00    -0.300 N 
ATOM     12  C   UNL     1      -1.136  -0.744   2.026  0.00  0.00    +0.216 C 
ATOM     13  O   UNL     1      -2.194  -0.553   1.465  0.00  0.00    -0.276 OA
BRANCH  11  14
ATOM     14  C   UNL     1       0.002  -0.004   0.002  0.00  0.00    +0.142 C 
BRANCH  14  15
ATOM     15  C   UNL     1      -0.018   1.503   0.010  0.00  0.00    -0.030 A 
ATOM     16  C   UNL     1      -1.225   2.178   0.020  0.00  0.00    +0.005 A 
ATOM     17  C   UNL     1      -1.244   3.560   0.032  0.00  0.00    +0.000 A 
ATOM     18  C   UNL     1      -0.056   4.267   0.025  0.00  0.00    +0.000 A 
ATOM     19  C   UNL     1       1.151   3.592   0.010  0.00  0.00    +0.000 A 
ATOM     20  C   UNL     1       1.169   2.210   0.003  0.00  0.00    +0.005 A 
ENDBRANCH  14  15
ENDBRANCH  11  14
ENDBRANCH   9  12
ENDBRANCH   1   9
BRANCH   5  21
ATOM     21  C   UNL     1      -1.781  -3.412   5.275  0.00  0.00    +0.061 C 
BRANCH  21  22
ATOM     22  C   UNL     1      -1.868  -4.094   6.616  0.00  0.00    +0.084 A 
ATOM     23  C   UNL     1      -2.348  -5.399   6.873  0.00  0.00    +0.071 A 
ATOM     24  C   UNL     1      -2.218  -5.537   8.214  0.00  0.00    +0.138 A 
ATOM     25  O   UNL     1      -1.708  -4.383   8.667  0.00  0.00    -0.359 OA
ATOM     26  N   UNL     1      -1.521  -3.597   7.768  0.00  0.00    -0.083 NA
BRANCH  24  27
ATOM     27  C   UNL     1      -2.581  -6.747   9.036  0.00  0.00    +0.080 C 
BRANCH  27  28
ATOM     28  C   UNL     1      -1.370  -7.677   9.136  0.00  0.00    -0.004 C 
ATOM     29  C   UNL     1      -1.026  -8.219   7.747  0.00  0.00    +0.004 C 
ATOM     30  C   UNL     1       0.185  -9.149   7.848  0.00  0.00    +0.000 C 
ATOM     31  C   UNL     1      -0.143 -10.314   8.784  0.00  0.00    +0.000 C 
ATOM     32  C   UNL     1      -0.487  -9.773  10.172  0.00  0.00    +0.000 C 
ATOM     33  C   UNL     1      -1.698  -8.843  10.072  0.00  0.00    +0.004 C 
ENDBRANCH  27  28
ENDBRANCH  24  27
ENDBRANCH  21  22
ENDBRANCH   5  21
TORSDOF 8
