REMARK  Name = ZINC11840072
REMARK  9 active torsions:
REMARK  status: ('A' for Active; 'I' for Inactive)
REMARK    1  A    between atoms: C_1  and  C_2
REMARK    2  A    between atoms: C_2  and  O_3
REMARK    3  A    between atoms: O_3  and  C_4
REMARK    4  A    between atoms: C_9  and  N_12
REMARK    5  A    between atoms: C_13  and  C_15
REMARK    6  A    between atoms: C_23  and  C_24
REMARK    7  A    between atoms: C_23  and  N_66
REMARK    8  A    between atoms: C_24  and  C_31
REMARK    9  A    between atoms: C_25  and  C_26
REMARK                            x       y       z     vdW  Elec       q    Type
REMARK                         _______ _______ _______ _____ _____    ______ ____
ROOT
ATOM      1  C   UNL     1       1.777   3.914  -0.873  0.00  0.00    +0.082 C 
ATOM      2  C   UNL     1       2.337   2.995   0.215  0.00  0.00    +0.020 C 
ATOM      3  C   UNL     1       1.558   2.405  -0.960  0.00  0.00    -0.021 C 
ATOM      4  C   UNL     1       0.149   1.870  -0.685  0.00  0.00    -0.011 C 
ATOM      5  C   UNL     1       0.242   0.366  -0.407  0.00  0.00    -0.078 C 
ATOM      6  C   UNL     1       2.308   0.138  -1.663  0.00  0.00    -0.078 C 
ATOM      7  C   UNL     1       2.344   1.628  -2.020  0.00  0.00    -0.011 C 
ATOM      8  N   UNL     1       0.896  -0.293  -1.559  0.00  0.00    +0.382 N 
ATOM      9  H   UNL     1       0.403  -0.025  -2.419  0.00  0.00    -0.081 HD
ENDROOT
BRANCH   1  11
ATOM     10  N   UNL     1       0.725   6.108  -0.426  0.00  0.00    -0.312 N 
ATOM     11  C   UNL     1       0.589   4.770  -0.516  0.00  0.00    +0.217 C 
ATOM     12  O   UNL     1      -0.490   4.255  -0.311  0.00  0.00    -0.275 OA
ATOM     13  H   UNL     1       1.588   6.520  -0.590  0.00  0.00    +0.149 HD
BRANCH  10  19
ATOM     14  C   UNL     1      -2.371  10.518  -0.634  0.00  0.00    +0.403 C 
ATOM     15  O   UNL     1      -1.994  11.492  -0.013  0.00  0.00    -0.226 OA
ATOM     16  N   UNL     1      -2.008   9.283  -0.235  0.00  0.00    -0.267 N 
ATOM     17  C   UNL     1      -1.156   9.098   0.948  0.00  0.00    +0.113 C 
ATOM     18  C   UNL     1       0.055   8.246   0.556  0.00  0.00    +0.041 C 
ATOM     19  C   UNL     1      -0.430   6.940  -0.080  0.00  0.00    +0.076 C 
ATOM     20  C   UNL     1      -1.230   7.254  -1.346  0.00  0.00    +0.041 C 
ATOM     21  C   UNL     1      -2.456   8.095  -0.975  0.00  0.00    +0.113 C 
BRANCH  14  22
ATOM     22  O   UNL     1      -3.152  10.672  -1.720  0.00  0.00    -0.451 OA
BRANCH  22  24
ATOM     23  C   UNL     1      -4.387  12.006  -3.339  0.00  0.00    +0.048 C 
ATOM     24  C   UNL     1      -3.503  12.031  -2.091  0.00  0.00    +0.230 C 
ENDBRANCH  22  24
ENDBRANCH  14  22
ENDBRANCH  10  19
ENDBRANCH   1  11
BRANCH   8  25
ATOM     25  C   UNL     1       0.828  -1.760  -1.405  0.00  0.00    -0.048 C 
BRANCH  25  26
ATOM     26  C   UNL     1       1.303  -2.403  -2.683  0.00  0.00    -0.086 C 
ATOM     27  C   UNL     1       2.566  -2.803  -2.797  0.00  0.00    +0.043 C 
ATOM     28  C   UNL     1       0.346  -2.592  -3.832  0.00  0.00    +0.037 C 
BRANCH  27  29
ATOM     29  C   UNL     1       3.067  -3.297  -4.088  0.00  0.00    +0.128 A 
ATOM     30  C   UNL     1       4.296  -3.840  -4.314  0.00  0.00    +0.049 A 
ATOM     31  C   UNL     1       4.346  -4.172  -5.682  0.00  0.00    +0.042 A 
ATOM     32  C   UNL     1       3.164  -3.813  -6.221  0.00  0.00    +0.195 A 
ATOM     33  O   UNL     1       2.394  -3.284  -5.255  0.00  0.00    -0.464 OA
ENDBRANCH  27  29
ENDBRANCH  25  26
ENDBRANCH   8  25
TORSDOF 7
