REMARK  Name = ZINC06410871
REMARK  5 active torsions:
REMARK  status: ('A' for Active; 'I' for Inactive)
REMARK    1  A    between atoms: C_10  and  N_11
REMARK    2  A    between atoms: C_12  and  C_14
REMARK    3  A    between atoms: C_14  and  C_26
REMARK    4  A    between atoms: C_15  and  C_16
REMARK    5  A    between atoms: C_20  and  N_22
REMARK                            x       y       z     vdW  Elec       q    Type
REMARK                         _______ _______ _______ _____ _____    ______ ____
ROOT
ATOM      1  N   UNL     1       2.291   1.843  -0.257  0.00  0.00    -0.280 N 
ATOM      2  C   UNL     1       1.230   2.650  -0.063  0.00  0.00    +0.259 C 
ATOM      3  O   UNL     1       1.386   3.853   0.013  0.00  0.00    -0.269 OA
ATOM      4  H   UNL     1       2.159   0.892  -0.395  0.00  0.00    +0.155 HD
ENDROOT
BRANCH   1  14
ATOM      5  C   UNL     1       6.588   0.729  -2.660  0.00  0.00    +0.001 A 
ATOM      6  C   UNL     1       5.306   0.181  -2.672  0.00  0.00    +0.001 A 
ATOM      7  C   UNL     1       4.314   0.703  -1.898  0.00  0.00    +0.010 A 
ATOM      8  C   UNL     1       4.585   1.804  -1.071  0.00  0.00    +0.003 A 
ATOM      9  C   UNL     1       5.886   2.365  -1.063  0.00  0.00    -0.016 A 
ATOM     10  C   UNL     1       6.884   1.800  -1.875  0.00  0.00    +0.008 A 
ATOM     11  C   UNL     1       6.157   3.472  -0.240  0.00  0.00    +0.008 A 
ATOM     12  C   UNL     1       5.170   4.000   0.536  0.00  0.00    +0.002 A 
ATOM     13  C   UNL     1       3.887   3.461   0.532  0.00  0.00    +0.024 A 
ATOM     14  C   UNL     1       3.581   2.376  -0.261  0.00  0.00    +0.041 A 
ENDBRANCH   1  14
BRANCH   2  15
ATOM     15  C   UNL     1      -0.120   2.074   0.058  0.00  0.00    +0.114 C 
ATOM     16  C   UNL     1      -1.205   2.898   0.251  0.00  0.00    +0.032 C 
BRANCH  16  17
ATOM     17  C   UNL     1      -2.563   2.349   0.186  0.00  0.00    -0.021 A 
ATOM     18  C   UNL     1      -2.844   1.261  -0.651  0.00  0.00    +0.009 A 
ATOM     19  C   UNL     1      -4.121   0.748  -0.701  0.00  0.00    +0.023 A 
ATOM     20  C   UNL     1      -5.130   1.312   0.064  0.00  0.00    +0.071 A 
ATOM     21  C   UNL     1      -4.862   2.392   0.891  0.00  0.00    +0.145 A 
ATOM     22  C   UNL     1      -3.588   2.913   0.957  0.00  0.00    +0.042 A 
ATOM     23 CL   UNL     1      -6.738   0.663  -0.012  0.00  0.00    -0.081 Cl
BRANCH  21  24
ATOM     24  N   UNL     1      -5.946   2.986   1.704  0.00  0.00    +0.058 N 
ATOM     25  O   UNL     1      -5.712   3.935   2.431  0.00  0.00    -0.126 OA
ATOM     26  O   UNL     1      -7.072   2.526   1.647  0.00  0.00    -0.126 OA
ENDBRANCH  21  24
ENDBRANCH  16  17
BRANCH  15  27
ATOM     27  C   UNL     1      -0.304   0.657  -0.032  0.00  0.00    +0.104 C 
ATOM     28  N   UNL     1      -0.450  -0.468  -0.103  0.00  0.00    -0.191 NA
ENDBRANCH  15  27
ENDBRANCH   2  15
TORSDOF 5
