REMARK  Name = ZINC64041928
REMARK  8 active torsions:
REMARK  status: ('A' for Active; 'I' for Inactive)
REMARK    1  A    between atoms: C_1  and  C_2
REMARK    2  A    between atoms: C_5  and  C_9
REMARK    3  A    between atoms: C_7  and  C_8
REMARK    4  A    between atoms: C_9  and  C_11
REMARK    5  A    between atoms: C_11  and  C_13
REMARK    6  A    between atoms: C_11  and  S_14
REMARK    7  A    between atoms: S_14  and  C_15
REMARK    8  A    between atoms: C_19  and  C_21
REMARK                            x       y       z     vdW  Elec       q    Type
REMARK                         _______ _______ _______ _____ _____    ______ ____
ROOT
ATOM      1  C   UNL     1       0.876  -7.327  -2.764  0.00  0.00    +0.340 C 
ATOM      2  N   UNL     1      -0.473  -7.386  -3.352  0.00  0.00    -0.219 N 
ATOM      3  N   UNL     1      -0.421  -6.572  -4.493  0.00  0.00    -0.145 NA
ATOM      4  C   UNL     1       0.775  -6.063  -4.628  0.00  0.00    +0.238 C 
ATOM      5  O   UNL     1       1.615  -6.463  -3.639  0.00  0.00    -0.443 OA
ATOM      6  H   UNL     1      -1.237  -7.883  -3.020  0.00  0.00    +0.173 HD
ENDROOT
BRANCH   4   7
ATOM      7  C   UNL     1       1.148  -5.205  -5.673  0.00  0.00    +0.043 C 
ATOM      8  C   UNL     1       0.344  -4.749  -6.718  0.00  0.00    +0.008 A 
ATOM      9  C   UNL     1      -1.009  -4.978  -7.050  0.00  0.00    +0.010 A 
ATOM     10  C   UNL     1      -1.541  -4.388  -8.151  0.00  0.00    +0.001 A 
ATOM     11  C   UNL     1      -0.781  -3.553  -8.973  0.00  0.00    +0.002 A 
ATOM     12  C   UNL     1       0.524  -3.289  -8.714  0.00  0.00    +0.026 A 
ATOM     13  C   UNL     1       1.149  -3.869  -7.580  0.00  0.00    +0.043 A 
ATOM     14  N   UNL     1       2.381  -3.772  -7.119  0.00  0.00    -0.380 N 
ATOM     15  C   UNL     1       2.505  -4.577  -5.899  0.00  0.00    +0.154 C 
ATOM     16  H   UNL     1       3.091  -3.249  -7.521  0.00  0.00    +0.160 HD
ENDBRANCH   4   7
BRANCH   1  17
ATOM     17  S   UNL     1       0.808  -6.628  -1.092  0.00  0.00    -0.085 S 
BRANCH  17  18
ATOM     18  C   UNL     1       0.063  -4.992  -1.331  0.00  0.00    +0.119 C 
ATOM     19  C   UNL     1      -1.375  -5.154  -1.829  0.00  0.00    +0.027 C 
BRANCH  18  20
ATOM     20  C   UNL     1       0.059  -4.245  -0.021  0.00  0.00    +0.176 C 
ATOM     21  O   UNL     1       0.072  -4.857   1.025  0.00  0.00    -0.291 OA
BRANCH  20  26
ATOM     22  C   UNL     1      -0.018   1.503   0.010  0.00  0.00    +0.044 C 
ATOM     23  C   UNL     1       0.002  -0.004   0.002  0.00  0.00    -0.047 A 
ATOM     24  C   UNL     1       0.006  -0.686  -1.203  0.00  0.00    +0.004 A 
ATOM     25  C   UNL     1       0.024  -2.064  -1.219  0.00  0.00    +0.011 A 
ATOM     26  C   UNL     1       0.040  -2.774  -0.013  0.00  0.00    +0.019 A 
ATOM     27  C   UNL     1       0.036  -2.078   1.200  0.00  0.00    +0.015 A 
ATOM     28  C   UNL     1       0.023  -0.699   1.199  0.00  0.00    -0.047 A 
ATOM     29  C   UNL     1       0.025   0.054   2.504  0.00  0.00    +0.044 C 
ENDBRANCH  20  26
ENDBRANCH  18  20
ENDBRANCH  17  18
ENDBRANCH   1  17
TORSDOF 5
