REMARK  Name = ZINC09385561
REMARK  8 active torsions:
REMARK  status: ('A' for Active; 'I' for Inactive)
REMARK    1  A    between atoms: C_1  and  C_2
REMARK    2  A    between atoms: C_2  and  C_26
REMARK    3  A    between atoms: N_5  and  N_9
REMARK    4  A    between atoms: C_10  and  C_12
REMARK    5  A    between atoms: C_12  and  N_13
REMARK    6  A    between atoms: C_14  and  C_16
REMARK    7  A    between atoms: C_26  and  C_27
REMARK    8  A    between atoms: C_27  and  C_28
REMARK                            x       y       z     vdW  Elec       q    Type
REMARK                         _______ _______ _______ _____ _____    ______ ____
ROOT
ATOM      1  N   UNL     1       7.288   3.409  -0.049  0.00  0.00    -0.222 N 
ATOM      2  C   UNL     1       6.015   2.967  -0.039  0.00  0.00    +0.247 C 
ATOM      3  O   UNL     1       5.787   1.776  -0.043  0.00  0.00    -0.273 OA
ATOM      4  H   UNL     1       7.471   4.362  -0.046  0.00  0.00    +0.174 HD
ENDROOT
BRANCH   1   9
ATOM      5  C   UNL     1       9.939  -0.113  -1.490  0.00  0.00    +0.041 C 
ATOM      6  C   UNL     1      10.110   1.185  -0.699  0.00  0.00    +0.112 C 
ATOM      7  C   UNL     1       9.099   2.221  -1.149  0.00  0.00    +0.263 C 
ATOM      8  O   UNL     1       8.989   2.704  -2.255  0.00  0.00    -0.271 OA
ATOM      9  N   UNL     1       8.348   2.492  -0.063  0.00  0.00    -0.137 N 
ATOM     10  C   UNL     1       8.743   1.783   1.000  0.00  0.00    +0.326 C 
ATOM     11  O   UNL     1       8.220   1.859   2.095  0.00  0.00    -0.251 OA
ATOM     12  N   UNL     1       9.780   0.973   0.721  0.00  0.00    -0.284 N 
ATOM     13  H   UNL     1      10.226   0.370   1.336  0.00  0.00    +0.151 HD
BRANCH   6  14
ATOM     14  C   UNL     1      11.535   1.722  -0.849  0.00  0.00    +0.040 C 
BRANCH  14  15
ATOM     15  C   UNL     1      12.532   0.657  -0.389  0.00  0.00    +0.038 C 
BRANCH  15  16
ATOM     16  C   UNL     1      13.936   1.186  -0.537  0.00  0.00    -0.047 A 
ATOM     17  C   UNL     1      14.629   0.986  -1.716  0.00  0.00    +0.003 A 
ATOM     18  C   UNL     1      15.914   1.476  -1.854  0.00  0.00    +0.000 A 
ATOM     19  C   UNL     1      16.510   2.156  -0.809  0.00  0.00    +0.000 A 
ATOM     20  C   UNL     1      15.819   2.350   0.373  0.00  0.00    +0.000 A 
ATOM     21  C   UNL     1      14.532   1.866   0.508  0.00  0.00    +0.003 A 
ENDBRANCH  15  16
ENDBRANCH  14  15
ENDBRANCH   6  14
ENDBRANCH   1   9
BRANCH   2  22
ATOM     22  C   UNL     1       4.876   3.953  -0.023  0.00  0.00    +0.202 C 
BRANCH  22  23
ATOM     23  N   UNL     1       3.603   3.228  -0.015  0.00  0.00    -0.303 N 
ATOM     24  C   UNL     1       2.439   3.908  -0.001  0.00  0.00    +0.244 C 
ATOM     25  O   UNL     1       2.446   5.124   0.005  0.00  0.00    -0.270 OA
ATOM     26  H   UNL     1       3.597   2.258  -0.020  0.00  0.00    +0.150 HD
BRANCH  24  27
ATOM     27  C   UNL     1       1.155   3.177   0.008  0.00  0.00    +0.037 A 
ATOM     28  C   UNL     1       1.154   1.770   0.001  0.00  0.00    +0.013 A 
ATOM     29  C   UNL     1      -0.013   1.076   0.008  0.00  0.00    +0.009 A 
ATOM     30  C   UNL     1      -1.241   1.762   0.018  0.00  0.00    -0.018 A 
ATOM     31  C   UNL     1      -2.460   1.065   0.030  0.00  0.00    +0.008 A 
ATOM     32  C   UNL     1      -3.633   1.757   0.043  0.00  0.00    +0.001 A 
ATOM     33  C   UNL     1      -3.644   3.151   0.051  0.00  0.00    +0.001 A 
ATOM     34  C   UNL     1      -2.483   3.860   0.044  0.00  0.00    +0.008 A 
ATOM     35  C   UNL     1      -1.252   3.180   0.030  0.00  0.00    -0.017 A 
ATOM     36  C   UNL     1      -0.037   3.881   0.022  0.00  0.00    +0.021 A 
ENDBRANCH  24  27
ENDBRANCH  22  23
ENDBRANCH   2  22
TORSDOF 7
