REMARK  Name = ZINC63719174
REMARK  11 active torsions:
REMARK  status: ('A' for Active; 'I' for Inactive)
REMARK    1  A    between atoms: C_1  and  C_2
REMARK    2  A    between atoms: C_2  and  C_3
REMARK    3  A    between atoms: C_3  and  O_4
REMARK    4  A    between atoms: O_4  and  C_5
REMARK    5  A    between atoms: C_6  and  C_11
REMARK    6  A    between atoms: C_11  and  N_12
REMARK    7  A    between atoms: C_13  and  C_15
REMARK    8  A    between atoms: C_15  and  S_16
REMARK    9  A    between atoms: S_16  and  C_17
REMARK   10  A    between atoms: N_21  and  C_22
REMARK   11  A    between atoms: C_25  and  C_28
REMARK                            x       y       z     vdW  Elec       q    Type
REMARK                         _______ _______ _______ _____ _____    ______ ____
ROOT
ATOM      1  N   UNL     1       1.715  -4.808   0.067  0.00  0.00    -0.310 N 
ATOM      2  C   UNL     1       1.361  -5.494  -1.038  0.00  0.00    +0.224 C 
ATOM      3  O   UNL     1       0.298  -6.077  -1.075  0.00  0.00    -0.275 OA
ATOM      4  H   UNL     1       2.565  -4.342   0.097  0.00  0.00    +0.149 HD
ENDROOT
BRANCH   1   5
ATOM      5  C   UNL     1       0.815  -4.766   1.223  0.00  0.00    +0.145 C 
BRANCH   5   7
ATOM      6  C   UNL     1       1.384  -2.553   2.271  0.00  0.00    +0.219 A 
ATOM      7  C   UNL     1       1.441  -3.940   2.317  0.00  0.00    +0.031 A 
ATOM      8  C   UNL     1       2.079  -4.553   3.381  0.00  0.00    +0.012 A 
ATOM      9  C   UNL     1       2.641  -3.753   4.366  0.00  0.00    +0.020 A 
ATOM     10  C   UNL     1       2.547  -2.380   4.256  0.00  0.00    +0.114 A 
ATOM     11  N   UNL     1       1.936  -1.824   3.227  0.00  0.00    -0.221 NA
BRANCH   6  12
ATOM     12  O   UNL     1       0.761  -1.940   1.234  0.00  0.00    -0.476 OA
BRANCH  12  13
ATOM     13  C   UNL     1       0.742  -0.511   1.242  0.00  0.00    +0.230 C 
BRANCH  13  15
ATOM     14  C   UNL     1      -0.019   1.526   0.010  0.00  0.00    +0.007 C 
ATOM     15  C   UNL     1       0.002  -0.004   0.002  0.00  0.00    +0.038 C 
ENDBRANCH  13  15
ENDBRANCH  12  13
ENDBRANCH   6  12
ENDBRANCH   5   7
ENDBRANCH   1   5
BRANCH   2  16
ATOM     16  C   UNL     1       2.287  -5.537  -2.226  0.00  0.00    +0.173 C 
BRANCH  16  17
ATOM     17  S   UNL     1       1.534  -6.532  -3.543  0.00  0.00    -0.076 S 
BRANCH  17  18
ATOM     18  C   UNL     1       2.721  -6.486  -4.844  0.00  0.00    +0.196 A 
ATOM     19  N   UNL     1       3.879  -5.867  -4.823  0.00  0.00    -0.122 NA
ATOM     20  N   UNL     1       4.489  -6.043  -5.940  0.00  0.00    -0.137 NA
ATOM     21  C   UNL     1       3.766  -6.778  -6.737  0.00  0.00    +0.230 A 
ATOM     22  N   UNL     1       2.614  -7.093  -6.065  0.00  0.00    -0.277 N 
BRANCH  22  23
ATOM     23  C   UNL     1       1.547  -7.873  -6.534  0.00  0.00    +0.050 A 
ATOM     24  C   UNL     1       1.046  -8.906  -5.753  0.00  0.00    +0.026 A 
ATOM     25  C   UNL     1      -0.006  -9.672  -6.217  0.00  0.00    +0.005 A 
ATOM     26  C   UNL     1      -0.559  -9.411  -7.457  0.00  0.00    -0.050 A 
ATOM     27  C   UNL     1      -0.063  -8.382  -8.236  0.00  0.00    +0.005 A 
ATOM     28  C   UNL     1       0.985  -7.609  -7.776  0.00  0.00    +0.026 A 
ATOM     29  C   UNL     1      -1.706 -10.249  -7.960  0.00  0.00    +0.044 C 
ENDBRANCH  22  23
ENDBRANCH  17  18
ENDBRANCH  16  17
ENDBRANCH   2  16
TORSDOF 9
