REMARK  Name = ZINC22007825
REMARK  7 active torsions:
REMARK  status: ('A' for Active; 'I' for Inactive)
REMARK    1  A    between atoms: C_1  and  C_2
REMARK    2  A    between atoms: C_2  and  N_3
REMARK    3  A    between atoms: N_3  and  C_4
REMARK    4  A    between atoms: N_3  and  C_6
REMARK    5  A    between atoms: C_4  and  C_5
REMARK    6  A    between atoms: C_9  and  N_12
REMARK    7  A    between atoms: C_15  and  C_24
REMARK                            x       y       z     vdW  Elec       q    Type
REMARK                         _______ _______ _______ _____ _____    ______ ____
ROOT
ATOM      1  N   UNL     1      -1.274  -6.020   0.959  0.00  0.00    -0.247 NA
ATOM      2  C   UNL     1      -1.040  -6.467   2.177  0.00  0.00    +0.074 C 
ATOM      3  C   UNL     1      -0.801  -5.529   3.276  0.00  0.00    +0.051 C 
ATOM      4  C   UNL     1      -0.839  -5.969   4.580  0.00  0.00    +0.101 C 
ATOM      5  C   UNL     1      -1.119  -7.386   4.873  0.00  0.00    +0.204 C 
ATOM      6  O   UNL     1      -1.399  -7.737   6.004  0.00  0.00    -0.286 OA
ATOM      7  C   UNL     1      -1.055  -8.373   3.779  0.00  0.00    +0.032 A 
ATOM      8  C   UNL     1      -1.021  -7.920   2.448  0.00  0.00    +0.011 A 
ATOM      9  C   UNL     1      -0.965  -8.842   1.408  0.00  0.00    +0.011 A 
ATOM     10  C   UNL     1      -0.949 -10.194   1.692  0.00  0.00    +0.001 A 
ATOM     11  C   UNL     1      -0.987 -10.639   3.003  0.00  0.00    +0.001 A 
ATOM     12  C   UNL     1      -1.032  -9.740   4.046  0.00  0.00    +0.012 A 
ENDROOT
BRANCH   1  16
ATOM     13  C   UNL     1      -1.324  -1.965   0.226  0.00  0.00    +0.014 A 
ATOM     14  C   UNL     1      -0.651  -2.812  -0.639  0.00  0.00    +0.024 A 
ATOM     15  C   UNL     1      -0.628  -4.169  -0.403  0.00  0.00    +0.029 A 
ATOM     16  C   UNL     1      -1.290  -4.692   0.720  0.00  0.00    +0.065 A 
ATOM     17  C   UNL     1      -1.969  -3.825   1.590  0.00  0.00    +0.029 A 
ATOM     18  C   UNL     1      -1.975  -2.471   1.339  0.00  0.00    +0.024 A 
BRANCH  13  19
ATOM     19  N   UNL     1      -1.340  -0.589  -0.022  0.00  0.00    -0.394 NA
ATOM     20  H   UNL     1      -1.866  -0.123   0.702  0.00  0.00    +0.126 HD
BRANCH  19  22
ATOM     21  C   UNL     1       0.642  -0.208   1.365  0.00  0.00    +0.022 C 
ATOM     22  C   UNL     1       0.037  -0.077  -0.034  0.00  0.00    +0.081 C 
ENDBRANCH  19  22
BRANCH  19  23
ATOM     23  C   UNL     1      -1.968  -0.335  -1.325  0.00  0.00    +0.081 C 
ATOM     24  C   UNL     1      -3.440  -0.751  -1.272  0.00  0.00    +0.022 C 
ENDBRANCH  19  23
ENDBRANCH  13  19
ENDBRANCH   1  16
BRANCH   4  25
ATOM     25  C   UNL     1      -0.605  -5.049   5.652  0.00  0.00    +0.103 C 
ATOM     26  N   UNL     1      -0.420  -4.320   6.503  0.00  0.00    -0.191 NA
ENDBRANCH   4  25
TORSDOF 5
