REMARK  Name = ZINC04456013
REMARK  3 active torsions:
REMARK  status: ('A' for Active; 'I' for Inactive)
REMARK    1  A    between atoms: C_10  and  C_11
REMARK    2  A    between atoms: C_22  and  S_27
REMARK    3  A    between atoms: S_27  and  N_30
REMARK                            x       y       z     vdW  Elec       q    Type
REMARK                         _______ _______ _______ _____ _____    ______ ____
ROOT
ATOM      1  C   UNL     1      -2.497   0.952   0.019  0.00  0.00    +0.105 C 
ATOM      2  C   UNL     1      -3.017   0.795  -1.399  0.00  0.00    +0.029 C 
ATOM      3  C   UNL     1      -3.180   2.074  -2.230  0.00  0.00    +0.033 C 
ATOM      4  C   UNL     1      -2.961   1.548  -3.650  0.00  0.00    -0.030 C 
ATOM      5  C   UNL     1      -2.209   0.454  -3.618  0.00  0.00    -0.023 C 
ATOM      6  C   UNL     1      -1.838   0.174  -2.207  0.00  0.00    +0.049 C 
ATOM      7  C   UNL     1      -1.626  -1.204  -1.713  0.00  0.00    -0.018 A 
ATOM      8  C   UNL     1      -1.239  -2.235  -2.540  0.00  0.00    +0.034 A 
ATOM      9  C   UNL     1      -1.040  -3.504  -2.028  0.00  0.00    +0.105 A 
ATOM     10  C   UNL     1      -1.229  -3.741  -0.678  0.00  0.00    +0.030 A 
ATOM     11  C   UNL     1      -1.621  -2.716   0.158  0.00  0.00    +0.025 A 
ATOM     12  C   UNL     1      -1.831  -1.439  -0.349  0.00  0.00    +0.031 A 
ATOM     13  N   UNL     1      -2.263  -0.423   0.512  0.00  0.00    -0.336 N 
ATOM     14  H   UNL     1      -2.413  -0.625   1.449  0.00  0.00    +0.147 HD
ENDROOT
BRANCH   1  24
ATOM     15  C   UNL     1      -1.221   5.909   0.045  0.00  0.00    +0.001 A 
ATOM     16  C   UNL     1      -2.425   5.206   0.052  0.00  0.00    +0.001 A 
ATOM     17  C   UNL     1      -2.442   3.845   0.045  0.00  0.00    +0.009 A 
ATOM     18  C   UNL     1      -1.229   3.135   0.031  0.00  0.00    -0.013 A 
ATOM     19  C   UNL     1      -0.005   3.850   0.023  0.00  0.00    -0.018 A 
ATOM     20  C   UNL     1      -0.028   5.255   0.030  0.00  0.00    +0.008 A 
ATOM     21  C   UNL     1       1.207   3.140   0.007  0.00  0.00    +0.008 A 
ATOM     22  C   UNL     1       1.191   1.778   0.000  0.00  0.00    +0.001 A 
ATOM     23  C   UNL     1      -0.013   1.076   0.008  0.00  0.00    +0.006 A 
ATOM     24  C   UNL     1      -1.206   1.730   0.017  0.00  0.00    -0.019 A 
ENDBRANCH   1  24
BRANCH   9  25
ATOM     25  S   UNL     1      -0.546  -4.817  -3.093  0.00  0.00    +0.056 S 
ATOM     26  O   UNL     1      -0.956  -6.025  -2.466  0.00  0.00    -0.153 OA
ATOM     27  O   UNL     1      -0.966  -4.458  -4.402  0.00  0.00    -0.153 OA
BRANCH  25  28
ATOM     28  N   UNL     1       1.109  -4.834  -3.115  0.00  0.00    -0.204 NA
ATOM     29  H   UNL     1       1.608  -4.186  -2.593  0.00  0.00    +0.144 HD
ATOM     30  H   UNL     1       1.581  -5.492  -3.650  0.00  0.00    +0.144 HD
ENDBRANCH  25  28
ENDBRANCH   9  25
TORSDOF 3
