REMARK  Name = ZINC04822544
REMARK  5 active torsions:
REMARK  status: ('A' for Active; 'I' for Inactive)
REMARK    1  A    between atoms: C_1  and  C_2
REMARK    2  A    between atoms: C_5  and  C_29
REMARK    3  A    between atoms: C_6  and  N_8
REMARK    4  A    between atoms: N_11  and  S_14
REMARK    5  A    between atoms: S_14  and  C_17
REMARK                            x       y       z     vdW  Elec       q    Type
REMARK                         _______ _______ _______ _____ _____    ______ ____
ROOT
ATOM      1  S   UNL     1       4.628   7.623   0.077  0.00  0.00    +0.061 S 
ATOM      2  O   UNL     1       5.314   7.790   1.310  0.00  0.00    -0.153 OA
ATOM      3  O   UNL     1       5.242   7.884  -1.178  0.00  0.00    -0.153 OA
ENDROOT
BRANCH   1   4
ATOM      4  C   UNL     1       3.193   8.642   0.156  0.00  0.00    +0.108 A 
ATOM      5  C   UNL     1       2.600   9.090  -1.012  0.00  0.00    +0.030 A 
ATOM      6  C   UNL     1       1.472   9.885  -0.960  0.00  0.00    +0.030 A 
ATOM      7  C   UNL     1       0.937  10.244   0.268  0.00  0.00    +0.067 A 
ATOM      8  C   UNL     1       1.538   9.796   1.446  0.00  0.00    +0.069 A 
ATOM      9  C   UNL     1       2.667   8.994   1.384  0.00  0.00    +0.056 A 
ATOM     10  N   UNL     1       0.788  10.311   2.501  0.00  0.00    -0.306 N 
ATOM     11  H   UNL     1       0.963  10.169   3.444  0.00  0.00    +0.170 HD
ATOM     12  C   UNL     1      -0.222  11.039   1.988  0.00  0.00    +0.325 A 
ATOM     13  O   UNL     1      -1.065  11.626   2.641  0.00  0.00    -0.247 OA
ATOM     14  N   UNL     1      -0.159  11.017   0.643  0.00  0.00    -0.306 N 
ATOM     15  H   UNL     1      -0.772  11.464   0.039  0.00  0.00    +0.170 HD
ENDBRANCH   1   4
BRANCH   1  19
ATOM     16  N   UNL     1       2.353   3.888   0.001  0.00  0.00    -0.327 N 
ATOM     17  C   UNL     1       2.511   4.662   1.240  0.00  0.00    +0.122 C 
ATOM     18  C   UNL     1       3.910   5.286   1.273  0.00  0.00    +0.128 C 
ATOM     19  N   UNL     1       4.110   6.050   0.032  0.00  0.00    -0.174 NA
ATOM     20  C   UNL     1       3.838   5.381  -1.249  0.00  0.00    +0.128 C 
ATOM     21  C   UNL     1       2.442   4.753  -1.183  0.00  0.00    +0.122 C 
BRANCH  16  27
ATOM     22  C   UNL     1      -2.561   3.863   0.047  0.00  0.00    +0.044 C 
ATOM     23  C   UNL     1      -1.243   3.133   0.031  0.00  0.00    -0.049 A 
ATOM     24  C   UNL     1      -1.220   1.750   0.017  0.00  0.00    +0.004 A 
ATOM     25  C   UNL     1      -0.013   1.076   0.008  0.00  0.00    +0.005 A 
ATOM     26  C   UNL     1       1.175   1.782   0.000  0.00  0.00    -0.029 A 
ATOM     27  C   UNL     1       1.155   3.171   0.008  0.00  0.00    +0.033 A 
ATOM     28  C   UNL     1      -0.060   3.845   0.023  0.00  0.00    +0.026 A 
ATOM     29  C   UNL     1       2.490   1.046  -0.017  0.00  0.00    +0.045 C 
ENDBRANCH  16  27
ENDBRANCH   1  19
TORSDOF 3
