REMARK  Name = ZINC01853923
REMARK  9 active torsions:
REMARK  status: ('A' for Active; 'I' for Inactive)
REMARK    1  A    between atoms: C_4  and  C_7
REMARK    2  A    between atoms: C_7  and  O_8
REMARK    3  A    between atoms: O_8  and  C_9
REMARK    4  A    between atoms: C_9  and  C_11
REMARK    5  A    between atoms: C_11  and  N_12
REMARK    6  A    between atoms: C_13  and  C_15
REMARK    7  A    between atoms: C_15  and  N_24
REMARK    8  A    between atoms: C_16  and  C_17
REMARK    9  A    between atoms: C_25  and  C_27
REMARK                            x       y       z     vdW  Elec       q    Type
REMARK                         _______ _______ _______ _____ _____    ______ ____
ROOT
ATOM      1  C   UNL     1       9.198  -3.485   3.884  0.00  0.00    +0.097 C 
ATOM      2  C   UNL     1       9.593  -4.136   5.003  0.00  0.00    +0.036 C 
ENDROOT
BRANCH   2   3
ATOM      3  C   UNL     1      10.793  -4.987   4.974  0.00  0.00    -0.023 A 
ATOM      4  C   UNL     1      11.752  -4.815   3.971  0.00  0.00    +0.009 A 
ATOM      5  C   UNL     1      12.874  -5.616   3.950  0.00  0.00    +0.016 A 
ATOM      6  C   UNL     1      13.052  -6.589   4.920  0.00  0.00    +0.018 A 
ATOM      7  C   UNL     1      12.107  -6.764   5.917  0.00  0.00    +0.016 A 
ATOM      8  C   UNL     1      10.982  -5.967   5.953  0.00  0.00    +0.009 A 
ATOM      9 BR   UNL     1      14.594  -7.683   4.883  0.00  0.00    -0.050 Br
ENDBRANCH   2   3
BRANCH   1  11
ATOM     10  N   UNL     1       7.701  -1.868   2.834  0.00  0.00    -0.300 N 
ATOM     11  C   UNL     1       8.094  -2.516   3.949  0.00  0.00    +0.259 C 
ATOM     12  O   UNL     1       7.537  -2.298   5.008  0.00  0.00    -0.269 OA
ATOM     13  H   UNL     1       8.145  -2.041   1.990  0.00  0.00    +0.150 HD
BRANCH  10  14
ATOM     14  C   UNL     1       6.601  -0.902   2.898  0.00  0.00    +0.225 C 
BRANCH  14  15
ATOM     15  C   UNL     1       6.360  -0.323   1.528  0.00  0.00    +0.325 C 
ATOM     16  O   UNL     1       7.038  -0.681   0.594  0.00  0.00    -0.249 OA
BRANCH  15  17
ATOM     17  O   UNL     1       5.393   0.590   1.345  0.00  0.00    -0.459 OA
BRANCH  17  18
ATOM     18  C   UNL     1       5.221   1.096   0.020  0.00  0.00    +0.267 C 
BRANCH  18  22
ATOM     19  C   UNL     1       2.041   3.947  -0.014  0.00  0.00    +0.000 A 
ATOM     20  C   UNL     1       3.338   4.362   0.225  0.00  0.00    +0.000 A 
ATOM     21  C   UNL     1       4.367   3.439   0.236  0.00  0.00    +0.007 A 
ATOM     22  C   UNL     1       4.099   2.102   0.009  0.00  0.00    -0.010 A 
ATOM     23  C   UNL     1       2.801   1.688  -0.229  0.00  0.00    +0.007 A 
ATOM     24  C   UNL     1       1.773   2.611  -0.242  0.00  0.00    +0.000 A 
ENDBRANCH  18  22
ENDBRANCH  17  18
ENDBRANCH  15  17
ENDBRANCH  14  15
ENDBRANCH  10  14
ENDBRANCH   1  11
BRANCH   1  25
ATOM     25  N   UNL     1       9.839  -3.735   2.667  0.00  0.00    -0.275 N 
ATOM     26  C   UNL     1      10.424  -2.725   1.994  0.00  0.00    +0.284 C 
ATOM     27  O   UNL     1      10.301  -1.579   2.388  0.00  0.00    -0.266 OA
ATOM     28  H   UNL     1       9.862  -4.636   2.308  0.00  0.00    +0.155 HD
BRANCH  26  29
ATOM     29  C   UNL     1      11.207  -3.005   0.788  0.00  0.00    +0.191 A 
ATOM     30  C   UNL     1      11.928  -2.094   0.069  0.00  0.00    +0.056 A 
ATOM     31  C   UNL     1      12.515  -2.793  -0.996  0.00  0.00    +0.058 A 
ATOM     32  C   UNL     1      12.132  -4.085  -0.883  0.00  0.00    +0.171 A 
ATOM     33  O   UNL     1      11.349  -4.210   0.197  0.00  0.00    -0.444 OA
ATOM     34 BR   UNL     1      12.626  -5.487  -2.053  0.00  0.00    -0.008 Br
ENDBRANCH  26  29
ENDBRANCH   1  25
TORSDOF 9
