REMARK  Name = ZINC06660758
REMARK  8 active torsions:
REMARK  status: ('A' for Active; 'I' for Inactive)
REMARK    1  A    between atoms: C_1  and  C_2
REMARK    2  A    between atoms: C_2  and  C_3
REMARK    3  A    between atoms: C_3  and  C_4
REMARK    4  A    between atoms: C_4  and  N_5
REMARK    5  A    between atoms: C_17  and  C_24
REMARK    6  A    between atoms: C_25  and  C_27
REMARK    7  A    between atoms: C_27  and  C_28
REMARK    8  A    between atoms: C_27  and  C_29
REMARK                            x       y       z     vdW  Elec       q    Type
REMARK                         _______ _______ _______ _____ _____    ______ ____
ROOT
ATOM      1  N   UNL     1       2.829  -0.440  -0.871  0.00  0.00    -0.242 N 
ATOM      2  C   UNL     1       3.841   0.391  -0.593  0.00  0.00    +0.224 C 
ATOM      3  O   UNL     1       4.973   0.051  -0.324  0.00  0.00    -0.275 OA
ATOM      4  C   UNL     1       3.352   1.819  -0.664  0.00  0.00    +0.073 C 
ATOM      5  C   UNL     1       1.849   1.667  -1.029  0.00  0.00    +0.088 C 
ATOM      6  C   UNL     1       1.667   0.169  -1.133  0.00  0.00    +0.225 C 
ATOM      7  O   UNL     1       0.629  -0.393  -1.410  0.00  0.00    -0.275 OA
ATOM      8  C   UNL     1       1.098   2.192   0.201  0.00  0.00    +0.050 C 
ATOM      9  C   UNL     1       0.656   3.615   0.009  0.00  0.00    -0.027 A 
ATOM     10  C   UNL     1       1.328   4.790  -0.245  0.00  0.00    +0.008 A 
ATOM     11  C   UNL     1       0.626   5.975  -0.373  0.00  0.00    -0.050 A 
ATOM     12  C   UNL     1      -0.751   5.976  -0.245  0.00  0.00    +0.005 A 
ATOM     13  C   UNL     1      -1.428   4.802   0.010  0.00  0.00    +0.024 A 
ATOM     14  C   UNL     1      -0.729   3.604   0.141  0.00  0.00    +0.036 A 
ATOM     15  N   UNL     1      -1.180   2.306   0.390  0.00  0.00    -0.286 N 
ATOM     16  C   UNL     1      -0.168   1.419   0.446  0.00  0.00    +0.211 C 
ATOM     17  O   UNL     1      -0.261   0.227   0.649  0.00  0.00    -0.277 OA
ATOM     18  C   UNL     1       1.359   7.262  -0.651  0.00  0.00    +0.044 C 
ATOM     19  C   UNL     1       3.356   2.433   0.752  0.00  0.00    -0.055 C 
ATOM     20  H   UNL     1      -2.113   2.071   0.511  0.00  0.00    +0.155 HD
ATOM     21  N   UNL     1       2.044   2.075   1.296  0.00  0.00    +0.394 N 
ATOM     22  H   UNL     1       2.058   1.111   1.652  0.00  0.00    -0.083 HD
ATOM     23  H   UNL     1       1.788   2.716   2.057  0.00  0.00    -0.083 HD
ENDROOT
BRANCH  19  24
ATOM     24  C   UNL     1       4.491   1.836   1.586  0.00  0.00    -0.031 C 
ATOM     25  C   UNL     1       5.837   2.259   0.993  0.00  0.00    +0.005 C 
ATOM     26  C   UNL     1       4.386   2.344   3.026  0.00  0.00    +0.005 C 
ENDBRANCH  19  24
BRANCH   1  27
ATOM     27  C   UNL     1       2.982  -1.897  -0.887  0.00  0.00    +0.116 C 
BRANCH  27  28
ATOM     28  C   UNL     1       2.693  -2.455   0.508  0.00  0.00    +0.019 C 
BRANCH  28  30
ATOM     29  C   UNL     1       2.563  -4.535   1.887  0.00  0.00    +0.004 C 
ATOM     30  C   UNL     1       2.853  -3.976   0.492  0.00  0.00    -0.002 C 
ENDBRANCH  28  30
ENDBRANCH  27  28
ENDBRANCH   1  27
TORSDOF 4
