REMARK  Name = ZINC08648726
REMARK  11 active torsions:
REMARK  status: ('A' for Active; 'I' for Inactive)
REMARK    1  A    between atoms: C_1  and  C_2
REMARK    2  A    between atoms: C_2  and  C_3
REMARK    3  A    between atoms: C_3  and  C_4
REMARK    4  A    between atoms: C_4  and  C_5
REMARK    5  A    between atoms: C_5  and  C_24
REMARK    6  A    between atoms: N_8  and  C_18
REMARK    7  A    between atoms: N_9  and  C_12
REMARK    8  A    between atoms: C_24  and  C_26
REMARK    9  A    between atoms: C_24  and  C_30
REMARK   10  A    between atoms: C_26  and  N_27
REMARK   11  A    between atoms: C_35  and  C_36
REMARK                            x       y       z     vdW  Elec       q    Type
REMARK                         _______ _______ _______ _____ _____    ______ ____
ROOT
ATOM      1  C   UNL     1       5.359   3.749   0.202  0.00  0.00    +0.135 C 
ATOM      2  C   UNL     1       6.165   2.542   0.635  0.00  0.00    +0.252 C 
ATOM      3  O   UNL     1       7.254   2.547   1.168  0.00  0.00    -0.273 OA
ATOM      4  N   UNL     1       5.430   1.461   0.312  0.00  0.00    -0.180 N 
ATOM      5  N   UNL     1       4.226   1.818  -0.288  0.00  0.00    -0.180 N 
ATOM      6  C   UNL     1       4.102   3.154  -0.398  0.00  0.00    +0.252 C 
ATOM      7  O   UNL     1       3.169   3.761  -0.880  0.00  0.00    -0.273 OA
ENDROOT
BRANCH   5   8
ATOM      8  C   UNL     1       3.264   0.901  -0.728  0.00  0.00    +0.057 A 
ATOM      9  C   UNL     1       2.828  -0.110   0.119  0.00  0.00    +0.025 A 
ATOM     10  C   UNL     1       1.879  -1.013  -0.318  0.00  0.00    +0.002 A 
ATOM     11  C   UNL     1       1.364  -0.912  -1.597  0.00  0.00    +0.000 A 
ATOM     12  C   UNL     1       1.796   0.093  -2.443  0.00  0.00    +0.002 A 
ATOM     13  C   UNL     1       2.745   1.000  -2.012  0.00  0.00    +0.025 A 
ENDBRANCH   5   8
BRANCH   4  14
ATOM     14  C   UNL     1       5.827   0.141   0.550  0.00  0.00    +0.057 A 
ATOM     15  C   UNL     1       6.345  -0.217   1.788  0.00  0.00    +0.025 A 
ATOM     16  C   UNL     1       6.733  -1.522   2.022  0.00  0.00    +0.002 A 
ATOM     17  C   UNL     1       6.615  -2.470   1.021  0.00  0.00    +0.000 A 
ATOM     18  C   UNL     1       6.104  -2.115  -0.214  0.00  0.00    +0.002 A 
ATOM     19  C   UNL     1       5.710  -0.813  -0.452  0.00  0.00    +0.025 A 
ENDBRANCH   4  14
BRANCH   1  20
ATOM     20  C   UNL     1       6.124   4.555  -0.849  0.00  0.00    +0.026 C 
BRANCH  20  21
ATOM     21  C   UNL     1       6.409   3.669  -2.063  0.00  0.00    +0.001 C 
BRANCH  21  23
ATOM     22  C   UNL     1       7.460   3.590  -4.329  0.00  0.00    +0.004 C 
ATOM     23  C   UNL     1       7.174   4.476  -3.115  0.00  0.00    -0.003 C 
ENDBRANCH  21  23
ENDBRANCH  20  21
ENDBRANCH   1  20
BRANCH   1  24
ATOM     24  C   UNL     1       5.020   4.628   1.408  0.00  0.00    +0.069 C 
BRANCH  24  25
ATOM     25  C   UNL     1       4.226   3.826   2.407  0.00  0.00    -0.038 A 
ATOM     26  C   UNL     1       2.949   3.399   2.092  0.00  0.00    +0.006 A 
ATOM     27  C   UNL     1       2.221   2.663   3.008  0.00  0.00    +0.020 A 
ATOM     28  C   UNL     1       2.771   2.353   4.240  0.00  0.00    +0.041 A 
ATOM     29  C   UNL     1       4.049   2.780   4.553  0.00  0.00    +0.023 A 
ATOM     30  C   UNL     1       4.778   3.512   3.635  0.00  0.00    -0.046 A 
ATOM     31  C   UNL     1       6.172   3.972   3.974  0.00  0.00    +0.044 C 
ATOM     32 CL   UNL     1       1.857   1.428   5.390  0.00  0.00    -0.084 Cl
ENDBRANCH  24  25
BRANCH  24  33
ATOM     33  C   UNL     1       4.192   5.829   0.946  0.00  0.00    +0.220 C 
BRANCH  33  34
ATOM     34  N   UNL     1       3.968   6.732   2.078  0.00  0.00    +0.023 N 
ATOM     35  O   UNL     1       4.115   7.933   1.938  0.00  0.00    -0.132 OA
ATOM     36  O   UNL     1       3.636   6.282   3.160  0.00  0.00    -0.132 OA
ENDBRANCH  33  34
ENDBRANCH  24  33
ENDBRANCH   1  24
TORSDOF 9
