REMARK  Name = ZINC12469139
REMARK  5 active torsions:
REMARK  status: ('A' for Active; 'I' for Inactive)
REMARK    1  A    between atoms: C_4  and  C_30
REMARK    2  A    between atoms: C_6  and  N_7
REMARK    3  A    between atoms: C_11  and  N_15
REMARK    4  A    between atoms: C_18  and  C_21
REMARK    5  A    between atoms: C_18  and  N_24
REMARK                            x       y       z     vdW  Elec       q    Type
REMARK                         _______ _______ _______ _____ _____    ______ ____
ROOT
ATOM      1  N   UNL     1      -1.118  -0.972  -0.329  0.00  0.00    -0.209 N 
ATOM      2  C   UNL     1      -1.284  -2.299  -0.261  0.00  0.00    +0.228 C 
ATOM      3  O   UNL     1      -0.397  -3.122  -0.336  0.00  0.00    -0.275 OA
ATOM      4  C   UNL     1      -2.753  -2.608  -0.073  0.00  0.00    +0.125 C 
ATOM      5  C   UNL     1      -3.415  -1.216  -0.045  0.00  0.00    +0.153 C 
ATOM      6  C   UNL     1      -2.249  -0.265  -0.214  0.00  0.00    +0.244 C 
ATOM      7  O   UNL     1      -2.328   0.944  -0.242  0.00  0.00    -0.273 OA
ENDROOT
BRANCH   1  13
ATOM      8  C   UNL     1       0.656   0.451   0.488  0.00  0.00    +0.025 A 
ATOM      9  C   UNL     1       1.893   1.041   0.316  0.00  0.00    +0.022 A 
ATOM     10  C   UNL     1       2.615   0.812  -0.842  0.00  0.00    +0.053 A 
ATOM     11  C   UNL     1       2.099  -0.008  -1.831  0.00  0.00    +0.075 A 
ATOM     12  C   UNL     1       0.863  -0.600  -1.663  0.00  0.00    +0.037 A 
ATOM     13  C   UNL     1       0.137  -0.372  -0.502  0.00  0.00    +0.045 A 
ATOM     14 CL   UNL     1       4.169   1.556  -1.056  0.00  0.00    -0.083 Cl
BRANCH  11  15
ATOM     15  C   UNL     1       2.887  -0.254  -3.092  0.00  0.00    +0.419 C 
ATOM     16  F   UNL     1       2.166  -1.108  -3.933  0.00  0.00    -0.166 F 
ATOM     17  F   UNL     1       3.114   0.962  -3.745  0.00  0.00    -0.166 F 
ATOM     18  F   UNL     1       4.113  -0.845  -2.767  0.00  0.00    -0.166 F 
ENDBRANCH  11  15
ENDBRANCH   1  13
BRANCH   5  19
ATOM     19  N   UNL     1      -4.371  -1.075  -1.151  0.00  0.00    -0.291 NA
ATOM     20  C   UNL     1      -5.375  -2.147  -1.118  0.00  0.00    +0.084 C 
ATOM     21  C   UNL     1      -6.262  -2.054  -2.362  0.00  0.00    +0.013 C 
ATOM     22  C   UNL     1      -6.950  -0.686  -2.391  0.00  0.00    +0.015 C 
ATOM     23  C   UNL     1      -5.883   0.413  -2.376  0.00  0.00    +0.013 C 
ATOM     24  C   UNL     1      -5.007   0.248  -1.132  0.00  0.00    +0.084 C 
BRANCH  22  25
ATOM     25  N   UNL     1      -7.757  -0.569  -3.613  0.00  0.00    +0.389 N 
ATOM     26  C   UNL     1      -6.878  -0.630  -4.787  0.00  0.00    -0.077 C 
ATOM     27  C   UNL     1      -7.722  -0.590  -6.063  0.00  0.00    -0.019 C 
ATOM     28  C   UNL     1      -8.529   0.711  -6.094  0.00  0.00    -0.004 C 
ATOM     29  C   UNL     1      -9.387   0.799  -4.829  0.00  0.00    -0.019 C 
ATOM     30  C   UNL     1      -8.482   0.708  -3.598  0.00  0.00    -0.077 C 
ATOM     31  H   UNL     1      -8.419  -1.330  -3.651  0.00  0.00    -0.080 HD
ENDBRANCH  22  25
BRANCH  22  32
ATOM     32  C   UNL     1      -7.838  -0.543  -1.183  0.00  0.00    +0.200 C 
ATOM     33  O   UNL     1      -7.448   0.072  -0.213  0.00  0.00    -0.278 OA
ATOM     34  N   UNL     1      -9.067  -1.097  -1.180  0.00  0.00    -0.330 N 
ATOM     35  H   UNL     1      -9.408  -1.524  -1.981  0.00  0.00    +0.145 HD
ATOM     36  H   UNL     1      -9.609  -1.070  -0.376  0.00  0.00    +0.145 HD
ENDBRANCH  22  32
ENDBRANCH   5  19
TORSDOF 5
