REMARK  Name = ZINC47396488
REMARK  6 active torsions:
REMARK  status: ('A' for Active; 'I' for Inactive)
REMARK    1  A    between atoms: C_1  and  N_2
REMARK    2  A    between atoms: N_2  and  C_3
REMARK    3  A    between atoms: C_3  and  C_4
REMARK    4  A    between atoms: C_9  and  O_10
REMARK    5  A    between atoms: N_13  and  C_14
REMARK    6  A    between atoms: C_19  and  C_20
REMARK                            x       y       z     vdW  Elec       q    Type
REMARK                         _______ _______ _______ _____ _____    ______ ____
ROOT
ATOM      1  C   UNL     1       0.008   1.462   0.009  0.00  0.00    +0.134 C 
ATOM      2  N   UNL     1       0.018  -0.003   0.002  0.00  0.00    -0.284 N 
ATOM      3  C   UNL     1       0.004  -0.671  -1.169  0.00  0.00    +0.307 C 
ATOM      4  O   UNL     1       0.012  -1.887  -1.175  0.00  0.00    -0.252 OA
ATOM      5  N   UNL     1      -0.020   0.009  -2.332  0.00  0.00    -0.269 N 
ATOM      6  H   UNL     1      -0.109   0.974  -2.328  0.00  0.00    +0.156 HD
ENDROOT
BRANCH   5   7
ATOM      7  C   UNL     1       0.083  -0.679  -3.546  0.00  0.00    +0.043 A 
ATOM      8  C   UNL     1       0.704  -1.917  -3.594  0.00  0.00    +0.024 A 
ATOM      9  C   UNL     1       0.806  -2.595  -4.794  0.00  0.00    +0.002 A 
ATOM     10  C   UNL     1       0.290  -2.044  -5.954  0.00  0.00    +0.001 A 
ATOM     11  C   UNL     1      -0.331  -0.813  -5.923  0.00  0.00    +0.011 A 
ATOM     12  C   UNL     1      -0.446  -0.121  -4.717  0.00  0.00    +0.010 A 
BRANCH  12  13
ATOM     13  C   UNL     1      -1.115   1.196  -4.677  0.00  0.00    +0.021 A 
ATOM     14  C   UNL     1      -0.916   2.290  -5.476  0.00  0.00    +0.016 A 
ATOM     15  C   UNL     1      -1.668   3.422  -5.247  0.00  0.00    +0.008 A 
ATOM     16  C   UNL     1      -2.579   3.419  -4.241  0.00  0.00    +0.046 A 
ATOM     17  S   UNL     1      -2.400   1.771  -3.579  0.00  0.00    -0.097 S 
ENDBRANCH  12  13
ENDBRANCH   5   7
BRANCH   2  18
ATOM     18  C   UNL     1       0.044  -0.742   1.267  0.00  0.00    +0.147 C 
BRANCH  18  19
ATOM     19  C   UNL     1      -1.368  -1.006   1.723  0.00  0.00    +0.011 A 
ATOM     20  C   UNL     1      -1.942  -0.204   2.691  0.00  0.00    +0.009 A 
ATOM     21  C   UNL     1      -3.237  -0.445   3.111  0.00  0.00    +0.001 A 
ATOM     22  C   UNL     1      -3.961  -1.489   2.564  0.00  0.00    +0.004 A 
ATOM     23  C   UNL     1      -3.391  -2.293   1.596  0.00  0.00    +0.046 A 
ATOM     24  C   UNL     1      -2.094  -2.050   1.169  0.00  0.00    +0.122 A 
BRANCH  24  25
ATOM     25  O   UNL     1      -1.533  -2.836   0.212  0.00  0.00    -0.506 OA
ATOM     26  H   UNL     1      -1.066  -3.607   0.561  0.00  0.00    +0.292 HD
ENDBRANCH  24  25
ENDBRANCH  18  19
ENDBRANCH   2  18
TORSDOF 5
