REMARK  Name = ZINC32092497
REMARK  6 active torsions:
REMARK  status: ('A' for Active; 'I' for Inactive)
REMARK    1  A    between atoms: C_1  and  C_2
REMARK    2  A    between atoms: C_5  and  N_8
REMARK    3  A    between atoms: C_9  and  C_11
REMARK    4  A    between atoms: C_14  and  O_29
REMARK    5  A    between atoms: C_19  and  C_22
REMARK    6  A    between atoms: C_20  and  C_21
REMARK                            x       y       z     vdW  Elec       q    Type
REMARK                         _______ _______ _______ _____ _____    ______ ____
ROOT
ATOM      1  C   UNL     1       0.332  -6.716   1.016  0.00  0.00    +0.204 C 
ATOM      2  C   UNL     1       1.550  -7.318   0.309  0.00  0.00    +0.131 C 
ATOM      3  C   UNL     1       2.812  -7.067   1.083  0.00  0.00    +0.191 C 
ATOM      4  N   UNL     1       2.840  -7.004   2.383  0.00  0.00    -0.198 NA
ATOM      5  C   UNL     1       1.665  -7.140   3.067  0.00  0.00    +0.159 A 
ATOM      6  N   UNL     1       0.446  -7.005   2.448  0.00  0.00    -0.233 N 
ATOM      7  N   UNL     1      -0.547  -7.191   3.402  0.00  0.00    -0.168 NA
ATOM      8  C   UNL     1       0.034  -7.436   4.562  0.00  0.00    +0.098 A 
ATOM      9  C   UNL     1       1.432  -7.409   4.374  0.00  0.00    +0.021 A 
ATOM     10  C   UNL     1       2.478  -7.639   5.435  0.00  0.00    +0.050 C 
ENDROOT
BRANCH   8  11
ATOM     11  C   UNL     1      -0.665  -7.694   5.846  0.00  0.00    +0.003 A 
ATOM     12  C   UNL     1      -1.798  -8.505   5.873  0.00  0.00    +0.013 A 
ATOM     13  C   UNL     1      -2.445  -8.744   7.069  0.00  0.00    +0.039 A 
ATOM     14  C   UNL     1      -1.969  -8.178   8.240  0.00  0.00    +0.123 A 
ATOM     15  C   UNL     1      -0.844  -7.370   8.217  0.00  0.00    +0.039 A 
ATOM     16  C   UNL     1      -0.188  -7.132   7.027  0.00  0.00    +0.013 A 
ATOM     17  F   UNL     1      -2.605  -8.414   9.409  0.00  0.00    -0.205 F 
ENDBRANCH   8  11
BRANCH   1  19
ATOM     18  N   UNL     1       0.214  -4.728  -0.452  0.00  0.00    -0.284 N 
ATOM     19  C   UNL     1       0.302  -5.225   0.798  0.00  0.00    +0.242 C 
ATOM     20  O   UNL     1       0.358  -4.472   1.748  0.00  0.00    -0.273 OA
ATOM     21  H   UNL     1       0.098  -5.327  -1.205  0.00  0.00    +0.155 HD
BRANCH  18  26
ATOM     22  C   UNL     1       0.527   0.872  -1.306  0.00  0.00    +0.044 C 
ATOM     23  C   UNL     1       0.444  -0.616  -1.079  0.00  0.00    -0.050 A 
ATOM     24  C   UNL     1       1.167  -1.198  -0.055  0.00  0.00    +0.005 A 
ATOM     25  C   UNL     1       1.093  -2.561   0.156  0.00  0.00    +0.023 A 
ATOM     26  C   UNL     1       0.291  -3.346  -0.662  0.00  0.00    +0.033 A 
ATOM     27  C   UNL     1      -0.434  -2.758  -1.690  0.00  0.00    +0.023 A 
ATOM     28  C   UNL     1      -0.360  -1.394  -1.892  0.00  0.00    +0.005 A 
ENDBRANCH  18  26
ENDBRANCH   1  19
BRANCH   3  29
ATOM     29  O   UNL     1       3.966  -6.902   0.403  0.00  0.00    -0.495 OA
ATOM     30  H   UNL     1       4.735  -6.745   0.967  0.00  0.00    +0.293 HD
ENDBRANCH   3  29
TORSDOF 4
