REMARK  Name = ZINC18191896
REMARK  9 active torsions:
REMARK  status: ('A' for Active; 'I' for Inactive)
REMARK    1  A    between atoms: C_1  and  C_2
REMARK    2  A    between atoms: C_3  and  C_12
REMARK    3  A    between atoms: C_12  and  C_13
REMARK    4  A    between atoms: N_15  and  N_16
REMARK    5  A    between atoms: C_17  and  C_18
REMARK    6  A    between atoms: C_17  and  C_24
REMARK    7  A    between atoms: C_25  and  C_36
REMARK    8  A    between atoms: N_27  and  C_30
REMARK    9  A    between atoms: C_28  and  O_29
REMARK                            x       y       z     vdW  Elec       q    Type
REMARK                         _______ _______ _______ _____ _____    ______ ____
ROOT
ATOM      1  N   UNL     1       0.062  -2.314   2.977  0.00  0.00    -0.179 NA
ATOM      2  C   UNL     1       0.081  -3.600   3.209  0.00  0.00    +0.103 C 
ENDROOT
BRANCH   2   3
ATOM      3  C   UNL     1       0.101  -4.101   4.602  0.00  0.00    +0.003 A 
ATOM      4  C   UNL     1       0.117  -5.474   4.853  0.00  0.00    +0.010 A 
ATOM      5  C   UNL     1       0.141  -5.934   6.153  0.00  0.00    +0.001 A 
ATOM      6  C   UNL     1       0.139  -5.038   7.207  0.00  0.00    +0.000 A 
ATOM      7  C   UNL     1       0.118  -3.676   6.965  0.00  0.00    +0.001 A 
ATOM      8  C   UNL     1       0.099  -3.203   5.670  0.00  0.00    +0.010 A 
ENDBRANCH   2   3
BRANCH   2   9
ATOM      9  C   UNL     1       0.084  -4.555   2.080  0.00  0.00    +0.086 A 
ATOM     10  C   UNL     1      -1.051  -5.115   1.455  0.00  0.00    +0.073 A 
ATOM     11  N   UNL     1      -0.645  -5.908   0.500  0.00  0.00    -0.168 NA
ATOM     12  N   UNL     1       0.754  -5.905   0.468  0.00  0.00    -0.200 N 
ATOM     13  C   UNL     1       1.200  -5.071   1.442  0.00  0.00    +0.225 A 
ATOM     14  C   UNL     1      -2.486  -4.843   1.825  0.00  0.00    +0.068 C 
BRANCH  12  15
ATOM     15  C   UNL     1       1.557  -6.637  -0.418  0.00  0.00    +0.069 A 
ATOM     16  C   UNL     1       2.748  -6.098  -0.885  0.00  0.00    +0.028 A 
ATOM     17  C   UNL     1       3.539  -6.823  -1.754  0.00  0.00    +0.002 A 
ATOM     18  C   UNL     1       3.141  -8.081  -2.167  0.00  0.00    +0.000 A 
ATOM     19  C   UNL     1       1.953  -8.619  -1.707  0.00  0.00    +0.002 A 
ATOM     20  C   UNL     1       1.160  -7.901  -0.834  0.00  0.00    +0.028 A 
ENDBRANCH  12  15
BRANCH  13  21
ATOM     21  O   UNL     1       2.494  -4.795   1.736  0.00  0.00    -0.492 OA
ATOM     22  H   UNL     1       2.884  -5.389   2.392  0.00  0.00    +0.294 HD
ENDBRANCH  13  21
ENDBRANCH   2   9
BRANCH   1  25
ATOM     23  C   UNL     1       0.022  -0.514   1.420  0.00  0.00    +0.237 C 
ATOM     24  O   UNL     1       0.021   0.270   2.346  0.00  0.00    -0.274 OA
ATOM     25  N   UNL     1       0.043  -1.840   1.659  0.00  0.00    -0.206 N 
ATOM     26  H   UNL     1       0.044  -2.466   0.918  0.00  0.00    +0.177 HD
BRANCH  23  27
ATOM     27  C   UNL     1       0.002  -0.004   0.002  0.00  0.00    +0.135 C 
BRANCH  27  30
ATOM     28  C   UNL     1      -2.531   1.790   0.022  0.00  0.00    +0.063 C 
ATOM     29  C   UNL     1      -1.108   2.287   0.019  0.00  0.00    +0.018 A 
ATOM     30  C   UNL     1      -0.018   1.503   0.010  0.00  0.00    -0.011 A 
ATOM     31  C   UNL     1       1.147   2.390   0.004  0.00  0.00    +0.004 A 
ATOM     32  C   UNL     1       2.527   2.179  -0.010  0.00  0.00    +0.010 A 
ATOM     33  C   UNL     1       3.377   3.249  -0.014  0.00  0.00    +0.001 A 
ATOM     34  C   UNL     1       2.879   4.545  -0.003  0.00  0.00    +0.002 A 
ATOM     35  C   UNL     1       1.521   4.776   0.012  0.00  0.00    +0.026 A 
ATOM     36  C   UNL     1       0.638   3.701   0.015  0.00  0.00    +0.047 A 
ATOM     37  N   UNL     1      -0.736   3.603   0.028  0.00  0.00    -0.358 N 
ATOM     38  H   UNL     1      -1.348   4.355   0.037  0.00  0.00    +0.166 HD
ENDBRANCH  27  30
ENDBRANCH  23  27
ENDBRANCH   1  25
TORSDOF 7
