REMARK  Name = ZINC30965871
REMARK  7 active torsions:
REMARK  status: ('A' for Active; 'I' for Inactive)
REMARK    1  A    between atoms: C_4  and  C_7
REMARK    2  A    between atoms: C_7  and  C_8
REMARK    3  A    between atoms: C_8  and  C_10
REMARK    4  A    between atoms: C_8  and  N_20
REMARK    5  A    between atoms: C_21  and  C_23
REMARK    6  A    between atoms: C_23  and  C_24
REMARK    7  A    between atoms: C_24  and  N_25
REMARK                            x       y       z     vdW  Elec       q    Type
REMARK                         _______ _______ _______ _____ _____    ______ ____
ROOT
ATOM      1  N   UNL     1      -0.453   1.393   3.718  0.00  0.00    -0.305 N 
ATOM      2  C   UNL     1       0.000   1.080   2.488  0.00  0.00    +0.215 C 
ATOM      3  O   UNL     1       0.994   0.397   2.363  0.00  0.00    -0.276 OA
ATOM      4  H   UNL     1      -1.355   2.012   3.831  0.00  0.00    +0.149 HD
ENDROOT
BRANCH   1   5
ATOM      5  C   UNL     1       0.256   0.907   4.905  0.00  0.00    +0.143 C 
BRANCH   5   6
ATOM      6  C   UNL     1      -0.220  -0.482   5.240  0.00  0.00    +0.129 A 
ATOM      7  N   UNL     1      -1.091  -1.211   4.490  0.00  0.00    -0.340 N 
ATOM      8  H   UNL     1      -1.502  -0.789   3.561  0.00  0.00    +0.167 HD
ATOM      9  C   UNL     1      -1.271  -2.421   5.130  0.00  0.00    +0.066 A 
ATOM     10  C   UNL     1      -2.025  -3.555   4.859  0.00  0.00    +0.028 A 
ATOM     11  C   UNL     1      -1.983  -4.626   5.725  0.00  0.00    +0.002 A 
ATOM     12  C   UNL     1      -1.193  -4.577   6.866  0.00  0.00    +0.002 A 
ATOM     13  C   UNL     1      -0.445  -3.470   7.149  0.00  0.00    +0.030 A 
ATOM     14  C   UNL     1      -0.472  -2.372   6.285  0.00  0.00    +0.089 A 
ATOM     15  N   UNL     1       0.146  -1.163   6.287  0.00  0.00    -0.231 NA
ENDBRANCH   5   6
BRANCH   5  16
ATOM     16  C   UNL     1      -0.025   1.841   6.084  0.00  0.00    +0.065 C 
BRANCH  16  20
ATOM     17  C   UNL     1       1.632   5.694   5.275  0.00  0.00    +0.000 A 
ATOM     18  C   UNL     1       0.335   5.406   4.895  0.00  0.00    +0.000 A 
ATOM     19  C   UNL     1      -0.202   4.160   5.156  0.00  0.00    +0.004 A 
ATOM     20  C   UNL     1       0.559   3.200   5.798  0.00  0.00    -0.045 A 
ATOM     21  C   UNL     1       1.855   3.490   6.183  0.00  0.00    +0.004 A 
ATOM     22  C   UNL     1       2.393   4.735   5.917  0.00  0.00    +0.000 A 
ENDBRANCH  16  20
ENDBRANCH   5  16
ENDBRANCH   1   5
BRANCH   2  23
ATOM     23  C   UNL     1      -0.729   1.579   1.267  0.00  0.00    +0.117 C 
BRANCH  23  24
ATOM     24  C   UNL     1      -0.013   1.086   0.008  0.00  0.00    +0.136 C 
BRANCH  24  25
ATOM     25  N   UNL     1      -0.721   1.571  -1.179  0.00  0.00    -0.293 N 
ATOM     26  C   UNL     1      -0.371   2.792  -1.737  0.00  0.00    +0.059 A 
ATOM     27  C   UNL     1       0.639   3.574  -1.197  0.00  0.00    +0.027 A 
ATOM     28  C   UNL     1       0.956   4.784  -1.783  0.00  0.00    +0.002 A 
ATOM     29  C   UNL     1       0.274   5.225  -2.907  0.00  0.00    +0.001 A 
ATOM     30  C   UNL     1      -0.733   4.461  -3.457  0.00  0.00    +0.015 A 
ATOM     31  C   UNL     1      -1.063   3.239  -2.876  0.00  0.00    +0.063 A 
ATOM     32  C   UNL     1      -2.131   2.384  -3.422  0.00  0.00    +0.262 A 
ATOM     33  O   UNL     1      -2.760   2.723  -4.406  0.00  0.00    -0.267 OA
ATOM     34  N   UNL     1      -2.393   1.212  -2.803  0.00  0.00    -0.274 N 
ATOM     35  H   UNL     1      -3.188   0.554  -3.185  0.00  0.00    +0.173 HD
ATOM     36  C   UNL     1      -1.701   0.827  -1.720  0.00  0.00    +0.330 A 
ATOM     37  O   UNL     1      -1.974  -0.240  -1.204  0.00  0.00    -0.246 OA
ENDBRANCH  24  25
ENDBRANCH  23  24
ENDBRANCH   2  23
TORSDOF 7
