REMARK  Name = ZINC19770582
REMARK  11 active torsions:
REMARK  status: ('A' for Active; 'I' for Inactive)
REMARK    1  A    between atoms: C_1  and  C_2
REMARK    2  A    between atoms: C_2  and  C_3
REMARK    3  A    between atoms: C_2  and  C_4
REMARK    4  A    between atoms: C_4  and  C_6
REMARK    5  A    between atoms: C_4  and  N_29
REMARK    6  A    between atoms: N_13  and  C_16
REMARK    7  A    between atoms: C_16  and  C_17
REMARK    8  A    between atoms: C_20  and  C_22
REMARK    9  A    between atoms: C_22  and  N_23
REMARK   10  A    between atoms: N_29  and  S_30
REMARK   11  A    between atoms: S_30  and  C_33
REMARK                            x       y       z     vdW  Elec       q    Type
REMARK                         _______ _______ _______ _____ _____    ______ ____
ROOT
ATOM      1  C   UNL     1      -2.613  -8.108  -6.451  0.00  0.00    +0.152 A 
ATOM      2  N   UNL     1      -3.661  -7.730  -7.135  0.00  0.00    -0.133 NA
ATOM      3  N   UNL     1      -4.462  -7.069  -6.373  0.00  0.00    -0.134 NA
ATOM      4  C   UNL     1      -3.965  -7.004  -5.173  0.00  0.00    +0.132 A 
ATOM      5  N   UNL     1      -2.771  -7.645  -5.193  0.00  0.00    -0.315 N 
ATOM      6  C   UNL     1      -1.845  -7.776  -4.068  0.00  0.00    +0.106 C 
ATOM      7  C   UNL     1      -2.636  -7.730  -2.757  0.00  0.00    -0.056 C 
ATOM      8  N   UNL     1      -2.765  -6.341  -2.302  0.00  0.00    +0.384 N 
ATOM      9  C   UNL     1      -3.498  -5.510  -3.260  0.00  0.00    -0.071 C 
ATOM     10  C   UNL     1      -4.572  -6.351  -3.957  0.00  0.00    +0.058 C 
ATOM     11  H   UNL     1      -3.359  -6.360  -1.377  0.00  0.00    -0.081 HD
ENDROOT
BRANCH   1  12
ATOM     12  C   UNL     1      -1.448  -8.911  -6.970  0.00  0.00    +0.146 C 
BRANCH  12  14
ATOM     13  C   UNL     1       0.022  -6.891  -6.976  0.00  0.00    +0.009 C 
ATOM     14  C   UNL     1      -0.557  -8.017  -7.835  0.00  0.00    +0.009 C 
ATOM     15  C   UNL     1       0.584  -8.850  -8.422  0.00  0.00    +0.009 C 
ENDBRANCH  12  14
BRANCH  12  16
ATOM     16  N   UNL     1      -1.946 -10.030  -7.775  0.00  0.00    -0.184 NA
ATOM     17  H   UNL     1      -2.353  -9.846  -8.780  0.00  0.00    +0.148 HD
BRANCH  16  18
ATOM     18  S   UNL     1      -2.127 -11.527  -7.090  0.00  0.00    +0.027 S 
ATOM     19  O   UNL     1      -2.638 -12.344  -8.134  0.00  0.00    -0.158 OA
ATOM     20  O   UNL     1      -0.865 -11.810  -6.500  0.00  0.00    -0.158 OA
ATOM     21  C   UNL     1      -3.383 -11.301  -5.801  0.00  0.00    +0.214 C 
ENDBRANCH  16  18
ENDBRANCH  12  16
ENDBRANCH   1  12
BRANCH   8  22
ATOM     22  C   UNL     1      -1.450  -5.762  -2.001  0.00  0.00    -0.036 C 
BRANCH  22  23
ATOM     23  C   UNL     1      -1.631  -4.454  -1.274  0.00  0.00    -0.027 A 
ATOM     24  C   UNL     1      -1.721  -4.223   0.059  0.00  0.00    +0.009 A 
ATOM     25  C   UNL     1      -1.888  -2.925   0.504  0.00  0.00    +0.009 A 
ATOM     26  C   UNL     1      -1.957  -1.922  -0.405  0.00  0.00    -0.027 A 
ATOM     27  S   UNL     1      -1.791  -2.808  -1.946  0.00  0.00    -0.102 S 
BRANCH  26  28
ATOM     28  C   UNL     1      -2.135  -0.444  -0.174  0.00  0.00    -0.036 C 
BRANCH  28  29
ATOM     29  N   UNL     1      -0.819   0.192  -0.033  0.00  0.00    +0.383 N 
ATOM     30  C   UNL     1      -0.936   1.656  -0.044  0.00  0.00    -0.078 C 
ATOM     31  C   UNL     1       0.460   2.281  -0.042  0.00  0.00    -0.019 C 
ATOM     32  C   UNL     1       1.218   1.821   1.206  0.00  0.00    -0.004 C 
ATOM     33  C   UNL     1       1.285   0.292   1.219  0.00  0.00    -0.019 C 
ATOM     34  C   UNL     1      -0.136  -0.276   1.180  0.00  0.00    -0.078 C 
ATOM     35  H   UNL     1      -0.205  -0.102  -0.898  0.00  0.00    -0.081 HD
ENDBRANCH  28  29
ENDBRANCH  26  28
ENDBRANCH  22  23
ENDBRANCH   8  22
TORSDOF 8
