REMARK  Name = ZINC46568716
REMARK  6 active torsions:
REMARK  status: ('A' for Active; 'I' for Inactive)
REMARK    1  A    between atoms: C_4  and  C_7
REMARK    2  A    between atoms: C_10  and  C_13
REMARK    3  A    between atoms: N_14  and  N_15
REMARK    4  A    between atoms: N_15  and  C_16
REMARK    5  A    between atoms: C_19  and  S_22
REMARK    6  A    between atoms: S_22  and  N_25
REMARK                            x       y       z     vdW  Elec       q    Type
REMARK                         _______ _______ _______ _____ _____    ______ ____
ROOT
ATOM      1  C   UNL     1       7.408  -2.752  -0.087  0.00  0.00    +0.138 C 
ATOM      2  N   UNL     1       7.429  -4.051  -0.099  0.00  0.00    -0.190 NA
ENDROOT
BRANCH   1   6
ATOM      3  C   UNL     1       3.698  -0.688  -0.038  0.00  0.00    -0.018 A 
ATOM      4  C   UNL     1       4.895   0.030  -0.041  0.00  0.00    +0.009 A 
ATOM      5  C   UNL     1       6.098  -0.638  -0.057  0.00  0.00    +0.010 A 
ATOM      6  C   UNL     1       6.121  -2.036  -0.070  0.00  0.00    -0.005 A 
ATOM      7  C   UNL     1       4.921  -2.754  -0.067  0.00  0.00    +0.010 A 
ATOM      8  C   UNL     1       3.719  -2.083  -0.046  0.00  0.00    +0.009 A 
BRANCH   3  12
ATOM      9  C   UNL     1      -0.017   1.379   0.010  0.00  0.00    +0.000 A 
ATOM     10  C   UNL     1       1.169   2.092   0.002  0.00  0.00    +0.001 A 
ATOM     11  C   UNL     1       2.377   1.427  -0.013  0.00  0.00    +0.008 A 
ATOM     12  C   UNL     1       2.402   0.033  -0.021  0.00  0.00    -0.018 A 
ATOM     13  C   UNL     1       1.205  -0.680  -0.013  0.00  0.00    +0.008 A 
ATOM     14  C   UNL     1       0.002  -0.004   0.002  0.00  0.00    +0.001 A 
ENDBRANCH   3  12
ENDBRANCH   1   6
BRANCH   2  15
ATOM     15  N   UNL     1       8.653  -4.732  -0.115  0.00  0.00    -0.238 N 
ATOM     16  H   UNL     1       9.485  -4.234  -0.118  0.00  0.00    +0.174 HD
BRANCH  15  17
ATOM     17  C   UNL     1       8.675  -6.127  -0.129  0.00  0.00    +0.048 A 
ATOM     18  C   UNL     1       7.483  -6.843  -0.131  0.00  0.00    +0.026 A 
ATOM     19  C   UNL     1       7.509  -8.223  -0.145  0.00  0.00    +0.030 A 
ATOM     20  C   UNL     1       8.719  -8.894  -0.155  0.00  0.00    +0.105 A 
ATOM     21  C   UNL     1       9.906  -8.185  -0.153  0.00  0.00    +0.030 A 
ATOM     22  C   UNL     1       9.889  -6.805  -0.145  0.00  0.00    +0.026 A 
BRANCH  20  23
ATOM     23  S   UNL     1       8.746 -10.656  -0.172  0.00  0.00    +0.056 S 
ATOM     24  O   UNL     1      10.000 -11.047   0.371  0.00  0.00    -0.153 OA
ATOM     25  O   UNL     1       7.510 -11.086   0.380  0.00  0.00    -0.153 OA
BRANCH  23  26
ATOM     26  N   UNL     1       8.748 -11.130  -1.758  0.00  0.00    -0.204 NA
ATOM     27  H   UNL     1       9.181 -11.960  -2.016  0.00  0.00    +0.144 HD
ATOM     28  H   UNL     1       8.317 -10.579  -2.430  0.00  0.00    +0.144 HD
ENDBRANCH  23  26
ENDBRANCH  20  23
ENDBRANCH  15  17
ENDBRANCH   2  15
TORSDOF 6
