REMARK  Name = ZINC66832634
REMARK  4 active torsions:
REMARK  status: ('A' for Active; 'I' for Inactive)
REMARK    1  A    between atoms: C_6  and  C_7
REMARK    2  A    between atoms: C_9  and  C_12
REMARK    3  A    between atoms: C_19  and  C_21
REMARK    4  A    between atoms: C_21  and  C_22
REMARK                            x       y       z     vdW  Elec       q    Type
REMARK                         _______ _______ _______ _____ _____    ______ ____
ROOT
ATOM      1  C   UNL     1      -1.247  -0.649   0.866  0.00  0.00    +0.109 A 
ATOM      2  N   UNL     1      -2.485  -0.251   0.631  0.00  0.00    -0.234 NA
ATOM      3  C   UNL     1      -3.481  -1.071   0.937  0.00  0.00    +0.133 A 
ATOM      4  C   UNL     1      -3.193  -2.295   1.480  0.00  0.00    +0.080 A 
ATOM      5  S   UNL     1      -1.512  -2.276   1.549  0.00  0.00    -0.075 S 
ENDROOT
BRANCH   1  11
ATOM      6  C   UNL     1       0.013   1.346   0.070  0.00  0.00    +0.014 A 
ATOM      7  C   UNL     1       1.200   2.008  -0.159  0.00  0.00    +0.050 A 
ATOM      8  C   UNL     1       2.410   1.404   0.156  0.00  0.00    +0.162 A 
ATOM      9  C   UNL     1       2.428   0.126   0.707  0.00  0.00    +0.163 A 
ATOM     10  C   UNL     1       1.240  -0.544   0.937  0.00  0.00    +0.060 A 
ATOM     11  C   UNL     1       0.024   0.064   0.620  0.00  0.00    +0.011 A 
ATOM     12  O   UNL     1       3.606  -0.477   1.028  0.00  0.00    -0.485 OA
ATOM     13  C   UNL     1       4.791   0.071   0.441  0.00  0.00    +0.270 C 
ATOM     14  C   UNL     1       4.740   1.597   0.591  0.00  0.00    +0.270 C 
ATOM     15  O   UNL     1       3.570   2.075  -0.082  0.00  0.00    -0.485 OA
ENDBRANCH   1  11
BRANCH   3  16
ATOM     16  C   UNL     1      -4.878  -0.672   0.695  0.00  0.00    +0.266 C 
ATOM     17  O   UNL     1      -5.754  -1.515   0.657  0.00  0.00    -0.268 OA
ATOM     18  N   UNL     1      -5.186   0.628   0.514  0.00  0.00    -0.293 N 
ATOM     19  C   UNL     1      -4.140   1.659   0.566  0.00  0.00    +0.108 C 
ATOM     20  C   UNL     1      -4.553   2.731   1.579  0.00  0.00    +0.019 C 
ATOM     21  C   UNL     1      -5.942   3.261   1.217  0.00  0.00    +0.003 C 
ATOM     22  C   UNL     1      -6.959   2.119   1.279  0.00  0.00    +0.023 C 
ATOM     23  C   UNL     1      -6.572   1.040   0.256  0.00  0.00    +0.085 C 
BRANCH  23  24
ATOM     24  C   UNL     1      -7.502  -0.166   0.404  0.00  0.00    +0.118 C 
BRANCH  24  25
ATOM     25  C   UNL     1      -7.372  -1.052  -0.808  0.00  0.00    +0.212 C 
ATOM     26  O   UNL     1      -6.610  -0.748  -1.702  0.00  0.00    -0.276 OA
ATOM     27  N   UNL     1      -8.101  -2.181  -0.899  0.00  0.00    -0.329 N 
ATOM     28  H   UNL     1      -8.710  -2.424  -0.184  0.00  0.00    +0.145 HD
ATOM     29  H   UNL     1      -8.017  -2.751  -1.679  0.00  0.00    +0.145 HD
ENDBRANCH  24  25
ENDBRANCH  23  24
ENDBRANCH   3  16
TORSDOF 4
