REMARK  Name = ZINC05982317
REMARK  5 active torsions:
REMARK  status: ('A' for Active; 'I' for Inactive)
REMARK    1  A    between atoms: C_1  and  C_2
REMARK    2  A    between atoms: C_2  and  C_4
REMARK    3  A    between atoms: C_2  and  S_16
REMARK    4  A    between atoms: S_16  and  C_17
REMARK    5  A    between atoms: N_27  and  C_28
REMARK                            x       y       z     vdW  Elec       q    Type
REMARK                         _______ _______ _______ _____ _____    ______ ____
ROOT
ATOM      1  C   UNL     1       2.330   0.877   1.406  0.00  0.00    +0.173 A 
ATOM      2  N   UNL     1       1.535   0.084   2.080  0.00  0.00    -0.223 NA
ATOM      3  C   UNL     1       1.963  -0.590   3.166  0.00  0.00    +0.079 A 
ATOM      4  C   UNL     1       1.115  -1.440   3.883  0.00  0.00    +0.028 A 
ATOM      5  C   UNL     1       1.590  -2.099   4.981  0.00  0.00    +0.002 A 
ATOM      6  C   UNL     1       2.905  -1.939   5.399  0.00  0.00    +0.001 A 
ATOM      7  C   UNL     1       3.758  -1.115   4.719  0.00  0.00    +0.015 A 
ATOM      8  C   UNL     1       3.301  -0.429   3.594  0.00  0.00    +0.065 A 
ATOM      9  C   UNL     1       4.172   0.470   2.825  0.00  0.00    +0.263 A 
ATOM     10  O   UNL     1       5.333   0.649   3.144  0.00  0.00    -0.267 OA
ATOM     11  N   UNL     1       3.635   1.091   1.749  0.00  0.00    -0.284 N 
ENDROOT
BRANCH  11  12
ATOM     12  C   UNL     1       4.459   1.998   0.947  0.00  0.00    +0.093 C 
ATOM     13  C   UNL     1       5.697   1.251   0.409  0.00  0.00    +0.025 C 
ATOM     14  C   UNL     1       6.832   2.304   0.473  0.00  0.00    +0.002 C 
ATOM     15  C   UNL     1       6.524   3.060   1.790  0.00  0.00    +0.002 C 
ATOM     16  C   UNL     1       4.984   3.148   1.824  0.00  0.00    +0.025 C 
ENDBRANCH  11  12
BRANCH   1  17
ATOM     17  S   UNL     1       1.685   1.712  -0.005  0.00  0.00    -0.077 S 
BRANCH  17  19
ATOM     18  C   UNL     1      -0.729   1.579   1.267  0.00  0.00    +0.027 C 
ATOM     19  C   UNL     1      -0.013   1.086   0.008  0.00  0.00    +0.117 C 
BRANCH  19  20
ATOM     20  C   UNL     1      -0.742   1.585  -1.213  0.00  0.00    +0.124 A 
ATOM     21  N   UNL     1      -1.658   0.769  -1.795  0.00  0.00    -0.309 N 
ATOM     22  H   UNL     1      -1.831  -0.138  -1.409  0.00  0.00    +0.170 HD
ATOM     23  C   UNL     1      -2.340   1.170  -2.893  0.00  0.00    +0.259 A 
ATOM     24  O   UNL     1      -3.164   0.449  -3.424  0.00  0.00    -0.267 OA
ATOM     25  C   UNL     1      -2.047   2.512  -3.418  0.00  0.00    +0.065 A 
ATOM     26  C   UNL     1      -2.694   3.021  -4.543  0.00  0.00    +0.015 A 
ATOM     27  C   UNL     1      -2.380   4.285  -4.992  0.00  0.00    +0.001 A 
ATOM     28  C   UNL     1      -1.428   5.052  -4.335  0.00  0.00    +0.002 A 
ATOM     29  C   UNL     1      -0.777   4.568  -3.222  0.00  0.00    +0.028 A 
ATOM     30  C   UNL     1      -1.077   3.289  -2.747  0.00  0.00    +0.078 A 
ATOM     31  N   UNL     1      -0.465   2.775  -1.651  0.00  0.00    -0.233 NA
ENDBRANCH  19  20
ENDBRANCH  17  19
ENDBRANCH   1  17
TORSDOF 4
