REMARK  Name = ZINC00340592
REMARK  2 active torsions:
REMARK  status: ('A' for Active; 'I' for Inactive)
REMARK    1  A    between atoms: C_7  and  C_11
REMARK    2  A    between atoms: N_15  and  C_16
REMARK                            x       y       z     vdW  Elec       q    Type
REMARK                         _______ _______ _______ _____ _____    ______ ____
ROOT
ATOM      1  C   UNL     1       0.690  -3.265   0.032  0.00  0.00    +0.189 A 
ATOM      2  N   UNL     1      -0.626  -3.225   0.109  0.00  0.00    -0.108 NA
ATOM      3  N   UNL     1      -1.118  -4.407   0.014  0.00  0.00    -0.022 NA
ATOM      4  N   UNL     1      -0.180  -5.279  -0.128  0.00  0.00    -0.039 NA
ATOM      5  N   UNL     1       1.037  -4.576  -0.128  0.00  0.00    -0.193 N 
ENDROOT
BRANCH   1  12
ATOM      6  C   UNL     1       1.010   0.398   2.922  0.00  0.00    +0.001 A 
ATOM      7  C   UNL     1       2.058   1.246   2.594  0.00  0.00    +0.002 A 
ATOM      8  C   UNL     1       2.872   0.972   1.517  0.00  0.00    +0.026 A 
ATOM      9  C   UNL     1       2.644  -0.167   0.750  0.00  0.00    +0.047 A 
ATOM     10  C   UNL     1       1.582  -1.021   1.088  0.00  0.00    +0.010 A 
ATOM     11  C   UNL     1       0.770  -0.726   2.181  0.00  0.00    +0.011 A 
ATOM     12  C   UNL     1       1.610  -2.113   0.100  0.00  0.00    +0.046 A 
ATOM     13  C   UNL     1       2.648  -1.853  -0.737  0.00  0.00    +0.095 A 
ATOM     14  N   UNL     1       3.267  -0.700  -0.358  0.00  0.00    -0.360 N 
ATOM     15  H   UNL     1       4.035  -0.310  -0.804  0.00  0.00    +0.165 HD
ENDBRANCH   1  12
BRANCH   5  16
ATOM     16  C   UNL     1       2.329  -5.105  -0.262  0.00  0.00    +0.070 A 
ATOM     17  C   UNL     1       3.358  -4.637   0.543  0.00  0.00    +0.031 A 
ATOM     18  C   UNL     1       4.630  -5.160   0.410  0.00  0.00    +0.040 A 
ATOM     19  C   UNL     1       4.877  -6.151  -0.525  0.00  0.00    +0.124 A 
ATOM     20  C   UNL     1       3.851  -6.619  -1.329  0.00  0.00    +0.040 A 
ATOM     21  C   UNL     1       2.578  -6.103  -1.195  0.00  0.00    +0.031 A 
ATOM     22  F   UNL     1       6.121  -6.662  -0.654  0.00  0.00    -0.205 F 
ENDBRANCH   5  16
TORSDOF 2
