REMARK  Name = ZINC00054577
REMARK  4 active torsions:
REMARK  status: ('A' for Active; 'I' for Inactive)
REMARK    1  A    between atoms: C_1  and  C_2
REMARK    2  A    between atoms: C_8  and  C_10
REMARK    3  A    between atoms: C_8  and  C_11
REMARK    4  A    between atoms: C_17  and  C_19
REMARK                            x       y       z     vdW  Elec       q    Type
REMARK                         _______ _______ _______ _____ _____    ______ ____
ROOT
ATOM      1  C   UNL     1      -0.002   1.499   0.038  0.00  0.00    +0.109 C 
ATOM      2  C   UNL     1       0.014  -0.008   0.021  0.00  0.00    +0.216 C 
ATOM      3  O   UNL     1       1.070  -0.603   0.004  0.00  0.00    -0.276 OA
ATOM      4  N   UNL     1      -1.146  -0.694   0.026  0.00  0.00    -0.264 N 
ATOM      5  C   UNL     1      -1.132  -2.082   0.011  0.00  0.00    +0.180 C 
ATOM      6  N   UNL     1      -0.100  -2.872  -0.002  0.00  0.00    -0.153 NA
ATOM      7  N   UNL     1      -0.202  -4.245  -0.017  0.00  0.00    -0.170 N 
ATOM      8  C   UNL     1      -1.583  -4.777  -0.016  0.00  0.00    +0.134 C 
ATOM      9  S   UNL     1      -2.527  -3.197   0.014  0.00  0.00    -0.056 S 
ATOM     10  C   UNL     1      -1.859  -5.607   1.239  0.00  0.00    +0.051 C 
ATOM     11  C   UNL     1       0.879  -5.048  -0.031  0.00  0.00    +0.233 C 
ATOM     12  O   UNL     1       0.743  -6.251   0.052  0.00  0.00    -0.274 OA
ATOM     13  C   UNL     1       2.259  -4.452  -0.150  0.00  0.00    +0.111 C 
ATOM     14  H   UNL     1      -1.991  -0.218   0.040  0.00  0.00    +0.157 HD
ENDROOT
BRANCH   8  15
ATOM     15  C   UNL     1      -1.867  -5.568  -1.266  0.00  0.00    -0.012 A 
ATOM     16  C   UNL     1      -3.139  -6.054  -1.503  0.00  0.00    +0.006 A 
ATOM     17  C   UNL     1      -3.400  -6.780  -2.650  0.00  0.00    +0.000 A 
ATOM     18  C   UNL     1      -2.389  -7.019  -3.561  0.00  0.00    +0.000 A 
ATOM     19  C   UNL     1      -1.117  -6.532  -3.326  0.00  0.00    +0.000 A 
ATOM     20  C   UNL     1      -0.857  -5.802  -2.180  0.00  0.00    +0.006 A 
ENDBRANCH   8  15
TORSDOF 1
