REMARK  Name = ZINC02347918
REMARK  7 active torsions:
REMARK  status: ('A' for Active; 'I' for Inactive)
REMARK    1  A    between atoms: C_1  and  C_2
REMARK    2  A    between atoms: C_11  and  N_27
REMARK    3  A    between atoms: C_13  and  S_15
REMARK    4  A    between atoms: S_15  and  C_16
REMARK    5  A    between atoms: C_16  and  C_17
REMARK    6  A    between atoms: N_19  and  C_20
REMARK    7  A    between atoms: N_19  and  C_21
REMARK                            x       y       z     vdW  Elec       q    Type
REMARK                         _______ _______ _______ _____ _____    ______ ____
ROOT
ATOM      1  C   UNL     1       0.302  -1.831  -1.078  0.00  0.00    +0.008 C 
ATOM      2  C   UNL     1       1.572  -0.979  -1.042  0.00  0.00    -0.009 C 
ATOM      3  C   UNL     1       2.295  -1.181   0.293  0.00  0.00    +0.008 C 
ATOM      4  C   UNL     1       3.678  -0.534   0.237  0.00  0.00    +0.037 C 
ATOM      5  C   UNL     1       3.529   0.917  -0.213  0.00  0.00    -0.025 A 
ATOM      6  C   UNL     1       2.404   1.329  -0.840  0.00  0.00    -0.004 A 
ATOM      7  S   UNL     1       2.660   3.054  -1.174  0.00  0.00    -0.073 S 
ATOM      8  C   UNL     1       4.272   3.222  -0.476  0.00  0.00    +0.115 A 
ATOM      9  C   UNL     1       4.562   1.918  -0.001  0.00  0.00    +0.051 A 
ATOM     10  C   UNL     1       5.826   1.727   0.630  0.00  0.00    +0.129 A 
ATOM     11  N   UNL     1       6.606   2.802   0.708  0.00  0.00    -0.207 NA
ATOM     12  C   UNL     1       6.270   3.995   0.240  0.00  0.00    +0.191 A 
ATOM     13  N   UNL     1       5.103   4.238  -0.361  0.00  0.00    -0.214 NA
ATOM     14  C   UNL     1       1.201   0.505  -1.179  0.00  0.00    +0.046 C 
ENDROOT
BRANCH  10  15
ATOM     15  N   UNL     1       6.216   0.499   1.133  0.00  0.00    -0.343 N 
ATOM     16  H   UNL     1       5.759  -0.308   0.850  0.00  0.00    +0.144 HD
ATOM     17  H   UNL     1       6.947   0.446   1.768  0.00  0.00    +0.144 HD
ENDBRANCH  10  15
BRANCH  12  18
ATOM     18  S   UNL     1       7.416   5.321   0.418  0.00  0.00    -0.077 S 
BRANCH  18  19
ATOM     19  C   UNL     1       8.764   4.460   1.264  0.00  0.00    +0.173 C 
BRANCH  19  20
ATOM     20  C   UNL     1       9.890   5.426   1.528  0.00  0.00    +0.230 C 
ATOM     21  O   UNL     1       9.791   6.583   1.178  0.00  0.00    -0.274 OA
ATOM     22  N   UNL     1      11.008   5.005   2.152  0.00  0.00    -0.274 N 
ATOM     23  C   UNL     1      11.085   3.637   2.672  0.00  0.00    +0.138 C 
BRANCH  22  24
ATOM     24  C   UNL     1      12.095   5.873   2.304  0.00  0.00    +0.036 A 
ATOM     25  C   UNL     1      13.272   5.644   1.603  0.00  0.00    +0.023 A 
ATOM     26  C   UNL     1      14.341   6.506   1.751  0.00  0.00    +0.002 A 
ATOM     27  C   UNL     1      14.244   7.590   2.604  0.00  0.00    +0.000 A 
ATOM     28  C   UNL     1      13.075   7.818   3.307  0.00  0.00    +0.002 A 
ATOM     29  C   UNL     1      12.001   6.963   3.159  0.00  0.00    +0.023 A 
ENDBRANCH  22  24
ENDBRANCH  19  20
ENDBRANCH  18  19
ENDBRANCH  12  18
TORSDOF 5
