REMARK  Name = ZINC18250790
REMARK  8 active torsions:
REMARK  status: ('A' for Active; 'I' for Inactive)
REMARK    1  A    between atoms: C_1  and  C_2
REMARK    2  A    between atoms: C_2  and  C_10
REMARK    3  A    between atoms: N_3  and  C_4
REMARK    4  A    between atoms: C_11  and  C_26
REMARK    5  A    between atoms: N_14  and  C_17
REMARK    6  A    between atoms: C_20  and  N_23
REMARK    7  A    between atoms: C_29  and  O_32
REMARK    8  A    between atoms: O_32  and  C_33
REMARK                            x       y       z     vdW  Elec       q    Type
REMARK                         _______ _______ _______ _____ _____    ______ ____
ROOT
ATOM      1  C   UNL     1      -0.008  -0.613  -1.279  0.00  0.00    +0.087 A 
ATOM      2  C   UNL     1       0.073   0.037  -2.515  0.00  0.00    +0.077 A 
ATOM      3  N   UNL     1       0.111  -0.919  -3.491  0.00  0.00    -0.289 N 
ATOM      4  H   UNL     1       0.168  -0.745  -4.443  0.00  0.00    +0.187 HD
ATOM      5  N   UNL     1       0.057  -2.188  -2.907  0.00  0.00    -0.219 N 
ATOM      6  C   UNL     1      -0.011  -2.053  -1.567  0.00  0.00    +0.281 A 
ATOM      7  O   UNL     1      -0.067  -2.955  -0.751  0.00  0.00    -0.265 OA
ENDROOT
BRANCH   5   8
ATOM      8  C   UNL     1       0.075  -3.402  -3.600  0.00  0.00    +0.067 A 
ATOM      9  C   UNL     1       0.159  -3.411  -4.987  0.00  0.00    +0.030 A 
ATOM     10  C   UNL     1       0.177  -4.612  -5.669  0.00  0.00    +0.035 A 
ATOM     11  C   UNL     1       0.112  -5.805  -4.973  0.00  0.00    +0.126 A 
ATOM     12  C   UNL     1       0.028  -5.800  -3.592  0.00  0.00    +0.035 A 
ATOM     13  C   UNL     1       0.015  -4.603  -2.904  0.00  0.00    +0.030 A 
BRANCH  11  14
ATOM     14  N   UNL     1       0.132  -7.090  -5.707  0.00  0.00    +0.056 N 
ATOM     15  O   UNL     1       0.205  -7.096  -6.913  0.00  0.00    -0.126 OA
ATOM     16  O   UNL     1       0.075  -8.134  -5.099  0.00  0.00    -0.126 OA
ENDBRANCH  11  14
ENDBRANCH   5   8
BRANCH   2  17
ATOM     17  C   UNL     1       0.109   1.493  -2.727  0.00  0.00    +0.001 A 
ATOM     18  C   UNL     1       0.965   2.292  -1.962  0.00  0.00    +0.013 A 
ATOM     19  C   UNL     1       0.996   3.654  -2.164  0.00  0.00    +0.046 A 
ATOM     20  C   UNL     1       0.178   4.234  -3.126  0.00  0.00    +0.120 A 
ATOM     21  C   UNL     1      -0.675   3.444  -3.889  0.00  0.00    +0.046 A 
ATOM     22  C   UNL     1      -0.708   2.081  -3.700  0.00  0.00    +0.013 A 
BRANCH  20  23
ATOM     23  O   UNL     1       0.211   5.577  -3.322  0.00  0.00    -0.495 OA
ATOM     24  C   UNL     1      -0.655   6.108  -4.327  0.00  0.00    +0.277 C 
ENDBRANCH  20  23
ENDBRANCH   2  17
BRANCH   1  26
ATOM     25  C   UNL     1       1.143  -0.007   0.895  0.00  0.00    +0.066 C 
ATOM     26  C   UNL     1      -0.069  -0.003  -0.001  0.00  0.00    +0.053 C 
ATOM     27  N   UNL     1      -1.177   0.565   0.401  0.00  0.00    -0.252 NA
BRANCH  27  28
ATOM     28  C   UNL     1      -1.236   1.153   1.635  0.00  0.00    +0.064 A 
ATOM     29  C   UNL     1      -0.702   0.503   2.749  0.00  0.00    +0.028 A 
ATOM     30  C   UNL     1      -0.764   1.103   3.990  0.00  0.00    +0.002 A 
ATOM     31  C   UNL     1      -1.354   2.346   4.131  0.00  0.00    +0.000 A 
ATOM     32  C   UNL     1      -1.886   2.997   3.032  0.00  0.00    +0.002 A 
ATOM     33  C   UNL     1      -1.825   2.411   1.784  0.00  0.00    +0.028 A 
ENDBRANCH  27  28
ENDBRANCH   1  26
TORSDOF 6
