REMARK  Name = ZINC36341796
REMARK  5 active torsions:
REMARK  status: ('A' for Active; 'I' for Inactive)
REMARK    1  A    between atoms: C_5  and  C_7
REMARK    2  A    between atoms: C_10  and  C_13
REMARK    3  A    between atoms: C_22  and  C_24
REMARK    4  A    between atoms: C_24  and  N_25
REMARK    5  A    between atoms: N_28  and  C_31
REMARK                            x       y       z     vdW  Elec       q    Type
REMARK                         _______ _______ _______ _____ _____    ______ ____
ROOT
ATOM      1  C   UNL     1       1.251  -2.157  -0.023  0.00  0.00    +0.070 C 
ATOM      2  N   UNL     1       2.317  -2.880  -0.032  0.00  0.00    -0.181 NA
ATOM      3  N   UNL     1       2.074  -4.252  -0.039  0.00  0.00    -0.187 N 
ATOM      4  C   UNL     1       0.620  -4.478  -0.034  0.00  0.00    +0.137 C 
ATOM      5  C   UNL     1       0.033  -3.053  -0.016  0.00  0.00    +0.087 C 
ATOM      6  C   UNL     1       3.017  -5.215  -0.050  0.00  0.00    +0.219 C 
ATOM      7  O   UNL     1       2.691  -6.384  -0.056  0.00  0.00    -0.276 OA
ENDROOT
BRANCH   4   8
ATOM      8  C   UNL     1       0.205  -5.236   1.201  0.00  0.00    -0.021 A 
ATOM      9  C   UNL     1       0.805  -4.957   2.415  0.00  0.00    +0.009 A 
ATOM     10  C   UNL     1       0.428  -5.649   3.551  0.00  0.00    +0.050 A 
ATOM     11  C   UNL     1      -0.552  -6.625   3.474  0.00  0.00    +0.166 A 
ATOM     12  C   UNL     1      -1.157  -6.906   2.251  0.00  0.00    +0.167 A 
ATOM     13  C   UNL     1      -0.778  -6.204   1.118  0.00  0.00    +0.055 A 
ATOM     14  O   UNL     1      -2.079  -7.894   2.438  0.00  0.00    -0.453 OA
ATOM     15  C   UNL     1      -1.746  -8.498   3.701  0.00  0.00    +0.466 C 
ATOM     16  O   UNL     1      -1.097  -7.438   4.427  0.00  0.00    -0.453 OA
ENDBRANCH   4   8
BRANCH   1  21
ATOM     17  C   UNL     1      -0.017   1.375   0.010  0.00  0.00    +0.001 A 
ATOM     18  C   UNL     1       1.170   2.087   0.002  0.00  0.00    +0.001 A 
ATOM     19  C   UNL     1       2.383   1.423  -0.013  0.00  0.00    +0.020 A 
ATOM     20  C   UNL     1       2.418   0.042  -0.021  0.00  0.00    +0.050 A 
ATOM     21  C   UNL     1       1.223  -0.683  -0.014  0.00  0.00    +0.016 A 
ATOM     22  C   UNL     1       0.002  -0.004   0.002  0.00  0.00    +0.011 A 
ATOM     23 CL   UNL     1       3.941  -0.790  -0.041  0.00  0.00    -0.083 Cl
ENDBRANCH   1  21
BRANCH   6  24
ATOM     24  C   UNL     1       4.477  -4.841  -0.055  0.00  0.00    +0.021 C 
BRANCH  24  25
ATOM     25  N   UNL     1       5.295  -6.060  -0.067  0.00  0.00    +0.387 N 
ATOM     26  C   UNL     1       5.067  -6.789  -1.321  0.00  0.00    -0.059 C 
ATOM     27  C   UNL     1       5.831  -8.116  -1.286  0.00  0.00    +0.086 C 
ATOM     28  N   UNL     1       7.245  -7.833  -0.998  0.00  0.00    -0.331 N 
ATOM     29  C   UNL     1       7.559  -6.971   0.152  0.00  0.00    +0.086 C 
ATOM     30  C   UNL     1       6.713  -5.697   0.049  0.00  0.00    -0.059 C 
ATOM     31  H   UNL     1       5.035  -6.646   0.712  0.00  0.00    -0.081 HD
BRANCH  28  32
ATOM     32  C   UNL     1       8.263  -8.368  -1.794  0.00  0.00    +0.065 A 
ATOM     33  C   UNL     1       8.724  -7.664  -2.899  0.00  0.00    +0.026 A 
ATOM     34  C   UNL     1       9.730  -8.195  -3.683  0.00  0.00    +0.002 A 
ATOM     35  C   UNL     1      10.277  -9.426  -3.371  0.00  0.00    +0.003 A 
ATOM     36  C   UNL     1       9.821 -10.130  -2.272  0.00  0.00    +0.040 A 
ATOM     37  C   UNL     1       8.819  -9.603  -1.479  0.00  0.00    +0.144 A 
ATOM     38  F   UNL     1       8.377 -10.289  -0.402  0.00  0.00    -0.204 F 
ENDBRANCH  28  32
ENDBRANCH  24  25
ENDBRANCH   6  24
TORSDOF 5
