REMARK  Name = ZINC06997652
REMARK  3 active torsions:
REMARK  status: ('A' for Active; 'I' for Inactive)
REMARK    1  A    between atoms: C_6  and  N_7
REMARK    2  A    between atoms: C_11  and  C_12
REMARK    3  A    between atoms: C_15  and  C_17
REMARK                            x       y       z     vdW  Elec       q    Type
REMARK                         _______ _______ _______ _____ _____    ______ ____
ROOT
ATOM      1  C   UNL     1       5.806   2.637  -0.039  0.00  0.00    +0.129 A 
ATOM      2  C   UNL     1       5.129   3.849  -0.026  0.00  0.00    +0.050 A 
ATOM      3  C   UNL     1       3.768   3.549  -0.015  0.00  0.00    +0.050 A 
ATOM      4  C   UNL     1       3.656   2.174  -0.021  0.00  0.00    +0.136 A 
ATOM      5  O   UNL     1       4.891   1.644  -0.030  0.00  0.00    -0.455 OA
ENDROOT
BRANCH   4   6
ATOM      6  C   UNL     1       2.393   1.413  -0.013  0.00  0.00    +0.018 A 
ATOM      7  C   UNL     1       1.171   2.090   0.002  0.00  0.00    +0.012 A 
ATOM      8  C   UNL     1      -0.017   1.384   0.010  0.00  0.00    +0.014 A 
ATOM      9  C   UNL     1       0.002  -0.004   0.002  0.00  0.00    +0.049 A 
ATOM     10  C   UNL     1       1.233  -0.695  -0.013  0.00  0.00    +0.050 A 
ATOM     11  C   UNL     1       2.421   0.012  -0.021  0.00  0.00    +0.025 A 
ATOM     12  C   UNL     1       0.889  -2.133  -0.018  0.00  0.00    +0.251 C 
ATOM     13  O   UNL     1       1.683  -3.051  -0.031  0.00  0.00    -0.270 OA
ATOM     14  N   UNL     1      -0.450  -2.253  -0.006  0.00  0.00    -0.248 N 
ATOM     15  C   UNL     1      -1.045  -1.046   0.006  0.00  0.00    +0.251 C 
ATOM     16  O   UNL     1      -2.243  -0.847   0.019  0.00  0.00    -0.270 OA
ATOM     17  H   UNL     1      -0.925  -3.098  -0.006  0.00  0.00    +0.158 HD
ENDBRANCH   4   6
BRANCH   1  22
ATOM     18  N   UNL     1       7.961  -1.059  -0.081  0.00  0.00    -0.184 N 
ATOM     19  C   UNL     1       7.029  -0.087  -0.065  0.00  0.00    +0.272 C 
ATOM     20  O   UNL     1       5.822  -0.241  -0.053  0.00  0.00    -0.268 OA
ATOM     21  C   UNL     1       7.750   1.197  -0.066  0.00  0.00    +0.105 C 
ATOM     22  C   UNL     1       7.201   2.473  -0.054  0.00  0.00    +0.064 C 
ATOM     23  C   UNL     1       9.178   0.837  -0.089  0.00  0.00    +0.266 C 
ATOM     24  O   UNL     1      10.119   1.608  -0.101  0.00  0.00    -0.268 OA
ATOM     25  N   UNL     1       9.242  -0.508  -0.091  0.00  0.00    -0.223 N 
ATOM     26  H   UNL     1      10.065  -1.022  -0.102  0.00  0.00    +0.174 HD
BRANCH  18  32
ATOM     27  C   UNL     1       6.367  -2.873  -0.068  0.00  0.00    +0.026 A 
ATOM     28  C   UNL     1       6.095  -4.227  -0.077  0.00  0.00    +0.017 A 
ATOM     29  C   UNL     1       7.133  -5.141  -0.093  0.00  0.00    +0.018 A 
ATOM     30  C   UNL     1       8.445  -4.703  -0.105  0.00  0.00    +0.017 A 
ATOM     31  C   UNL     1       8.723  -3.350  -0.101  0.00  0.00    +0.026 A 
ATOM     32  C   UNL     1       7.683  -2.429  -0.085  0.00  0.00    +0.056 A 
ATOM     33 BR   UNL     1       6.757  -6.995  -0.099  0.00  0.00    -0.050 Br
ENDBRANCH  18  32
ENDBRANCH   1  22
TORSDOF 3
