REMARK  Name = ZINC01091318
REMARK  7 active torsions:
REMARK  status: ('A' for Active; 'I' for Inactive)
REMARK    1  A    between atoms: C_1  and  C_2
REMARK    2  A    between atoms: C_2  and  O_3
REMARK    3  A    between atoms: O_3  and  C_4
REMARK    4  A    between atoms: C_6  and  C_11
REMARK    5  A    between atoms: C_9  and  O_10
REMARK    6  A    between atoms: N_18  and  C_19
REMARK    7  A    between atoms: C_24  and  C_25
REMARK                            x       y       z     vdW  Elec       q    Type
REMARK                         _______ _______ _______ _____ _____    ______ ____
ROOT
ATOM      1  C   UNL     1       1.239  -2.182  -0.216  0.00  0.00    +0.028 C 
ATOM      2  C   UNL     1       0.083  -2.873  -0.052  0.00  0.00    +0.079 C 
ATOM      3  C   UNL     1      -0.138  -4.327   0.123  0.00  0.00    +0.276 C 
ATOM      4  O   UNL     1       0.789  -5.122   0.139  0.00  0.00    -0.267 OA
ATOM      5  N   UNL     1      -1.386  -4.716   0.261  0.00  0.00    -0.154 NA
ATOM      6  C   UNL     1      -2.400  -3.865   0.246  0.00  0.00    +0.156 C 
ATOM      7  S   UNL     1      -1.604  -2.282   0.019  0.00  0.00    -0.051 S 
ATOM      8  N   UNL     1      -3.738  -4.133   0.378  0.00  0.00    -0.295 N 
ATOM      9  H   UNL     1      -4.385  -3.413   0.318  0.00  0.00    +0.154 HD
ENDROOT
BRANCH   8  10
ATOM     10  C   UNL     1      -4.170  -5.445   0.599  0.00  0.00    +0.037 A 
ATOM     11  C   UNL     1      -3.249  -6.485   0.625  0.00  0.00    +0.023 A 
ATOM     12  C   UNL     1      -3.678  -7.779   0.844  0.00  0.00    +0.003 A 
ATOM     13  C   UNL     1      -5.022  -8.041   1.037  0.00  0.00    +0.020 A 
ATOM     14  C   UNL     1      -5.942  -7.008   1.012  0.00  0.00    +0.046 A 
ATOM     15  C   UNL     1      -5.518  -5.709   0.800  0.00  0.00    -0.011 A 
ATOM     16  C   UNL     1      -6.519  -4.582   0.779  0.00  0.00    +0.047 C 
ATOM     17 CL   UNL     1      -7.628  -7.341   1.255  0.00  0.00    -0.083 Cl
ENDBRANCH   8  10
BRANCH   1  20
ATOM     18  C   UNL     1       2.334   1.340  -0.895  0.00  0.00    +0.162 A 
ATOM     19  C   UNL     1       2.378   0.001  -0.562  0.00  0.00    +0.057 A 
ATOM     20  C   UNL     1       1.200  -0.757  -0.569  0.00  0.00    -0.020 A 
ATOM     21  C   UNL     1      -0.015  -0.152  -0.913  0.00  0.00    +0.012 A 
ATOM     22  C   UNL     1      -0.048   1.184  -1.244  0.00  0.00    +0.050 A 
ATOM     23  C   UNL     1       1.120   1.935  -1.237  0.00  0.00    +0.158 A 
BRANCH  23  24
ATOM     24  O   UNL     1       1.080   3.252  -1.564  0.00  0.00    -0.503 OA
ATOM     25  H   UNL     1       0.931   3.840  -0.811  0.00  0.00    +0.292 HD
ENDBRANCH  23  24
BRANCH  18  26
ATOM     26  O   UNL     1       3.475   2.079  -0.889  0.00  0.00    -0.489 OA
BRANCH  26  28
ATOM     27  C   UNL     1       5.852   2.392  -0.578  0.00  0.00    +0.048 C 
ATOM     28  C   UNL     1       4.683   1.406  -0.528  0.00  0.00    +0.226 C 
ENDBRANCH  26  28
ENDBRANCH  18  26
ENDBRANCH   1  20
TORSDOF 5
