REMARK  Name = ZINC01067011
REMARK  3 active torsions:
REMARK  status: ('A' for Active; 'I' for Inactive)
REMARK    1  A    between atoms: C_1  and  C_2
REMARK    2  A    between atoms: C_7  and  N_8
REMARK    3  A    between atoms: C_12  and  C_13
REMARK                            x       y       z     vdW  Elec       q    Type
REMARK                         _______ _______ _______ _____ _____    ______ ____
ROOT
ATOM      1  N   UNL     1      -5.053  -3.066   0.350  0.00  0.00    -0.190 N 
ATOM      2  C   UNL     1      -3.836  -2.494   0.244  0.00  0.00    +0.263 C 
ATOM      3  O   UNL     1      -2.826  -3.172   0.234  0.00  0.00    -0.269 OA
ATOM      4  C   UNL     1      -3.764  -1.024   0.138  0.00  0.00    +0.100 C 
ATOM      5  C   UNL     1      -2.552  -0.366   0.025  0.00  0.00    +0.026 C 
ATOM      6  C   UNL     1      -5.042  -0.285   0.163  0.00  0.00    +0.257 C 
ATOM      7  O   UNL     1      -5.064   0.928   0.086  0.00  0.00    -0.270 OA
ATOM      8  N   UNL     1      -6.185  -0.994   0.269  0.00  0.00    -0.235 N 
ATOM      9  C   UNL     1      -6.174  -2.331   0.361  0.00  0.00    +0.320 C 
ATOM     10  O   UNL     1      -7.239  -2.909   0.460  0.00  0.00    -0.251 OA
ATOM     11  H   UNL     1      -7.033  -0.525   0.284  0.00  0.00    +0.159 HD
ENDROOT
BRANCH   5  12
ATOM     12  C   UNL     1      -2.522   1.018  -0.273  0.00  0.00    -0.016 A 
ATOM     13  C   UNL     1      -3.264   1.535  -1.337  0.00  0.00    +0.008 A 
ATOM     14  C   UNL     1      -3.232   2.890  -1.624  0.00  0.00    +0.001 A 
ATOM     15  C   UNL     1      -2.484   3.764  -0.892  0.00  0.00    +0.008 A 
ATOM     16  C   UNL     1      -1.711   3.316   0.193  0.00  0.00    -0.017 A 
ATOM     17  C   UNL     1      -1.706   1.939   0.523  0.00  0.00    -0.011 A 
ATOM     18  C   UNL     1      -0.943   1.490   1.605  0.00  0.00    +0.009 A 
ATOM     19  C   UNL     1      -0.202   2.381   2.324  0.00  0.00    +0.001 A 
ATOM     20  C   UNL     1      -0.200   3.735   1.999  0.00  0.00    +0.001 A 
ATOM     21  C   UNL     1      -0.936   4.207   0.955  0.00  0.00    +0.008 A 
ENDBRANCH   5  12
BRANCH   1  28
ATOM     22  C   UNL     1      -5.293  -4.578  -2.049  0.00  0.00    +0.045 C 
ATOM     23  C   UNL     1      -5.266  -5.235  -0.693  0.00  0.00    -0.029 A 
ATOM     24  C   UNL     1      -5.355  -6.610  -0.589  0.00  0.00    +0.005 A 
ATOM     25  C   UNL     1      -5.335  -7.213   0.655  0.00  0.00    +0.000 A 
ATOM     26  C   UNL     1      -5.222  -6.443   1.798  0.00  0.00    +0.002 A 
ATOM     27  C   UNL     1      -5.129  -5.069   1.701  0.00  0.00    +0.024 A 
ATOM     28  C   UNL     1      -5.147  -4.460   0.453  0.00  0.00    +0.049 A 
ENDBRANCH   1  28
TORSDOF 2
