REMARK  Name = ZINC02436948
REMARK  7 active torsions:
REMARK  status: ('A' for Active; 'I' for Inactive)
REMARK    1  A    between atoms: C_1  and  C_2
REMARK    2  A    between atoms: C_5  and  N_8
REMARK    3  A    between atoms: C_22  and  C_32
REMARK    4  A    between atoms: N_24  and  C_25
REMARK    5  A    between atoms: C_28  and  C_31
REMARK    6  A    between atoms: C_33  and  C_35
REMARK    7  A    between atoms: C_39  and  O_41
REMARK                            x       y       z     vdW  Elec       q    Type
REMARK                         _______ _______ _______ _____ _____    ______ ____
ROOT
ATOM      1  N   UNL     1      -1.121   7.277   0.050  0.00  0.00    -0.297 N 
ATOM      2  C   UNL     1      -1.150   5.905  -0.120  0.00  0.00    +0.164 C 
ATOM      3  N   UNL     1      -0.034   5.244  -0.296  0.00  0.00    -0.227 NA
ATOM      4  C   UNL     1      -0.022   3.897  -0.466  0.00  0.00    +0.087 A 
ATOM      5  C   UNL     1       1.193   3.225  -0.651  0.00  0.00    +0.030 A 
ATOM      6  C   UNL     1       1.203   1.860  -0.824  0.00  0.00    +0.002 A 
ATOM      7  C   UNL     1       0.016   1.142  -0.817  0.00  0.00    +0.002 A 
ATOM      8  C   UNL     1      -1.190   1.788  -0.641  0.00  0.00    +0.025 A 
ATOM      9  C   UNL     1      -1.222   3.164  -0.460  0.00  0.00    +0.062 A 
ATOM     10  N   UNL     1      -2.424   3.822  -0.277  0.00  0.00    -0.269 N 
ATOM     11  C   UNL     1      -2.439   5.188  -0.104  0.00  0.00    +0.169 C 
ATOM     12  N   UNL     1      -3.554   5.853   0.071  0.00  0.00    -0.209 NA
ATOM     13  C   UNL     1      -4.783   5.292   0.102  0.00  0.00    +0.164 A 
ATOM     14  C   UNL     1      -4.942   3.925  -0.056  0.00  0.00    +0.044 A 
ATOM     15  C   UNL     1      -6.296   3.634   0.018  0.00  0.00    +0.068 A 
ATOM     16  N   UNL     1      -6.953   4.753   0.213  0.00  0.00    -0.169 NA
ATOM     17  N   UNL     1      -6.038   5.812   0.270  0.00  0.00    -0.214 N 
ATOM     18  C   UNL     1      -6.909   2.264  -0.104  0.00  0.00    +0.068 C 
ATOM     19  C   UNL     1      -3.699   3.089  -0.263  0.00  0.00    +0.146 C 
ATOM     20  H   UNL     1      -1.951   7.777   0.102  0.00  0.00    +0.154 HD
ENDROOT
BRANCH   1  25
ATOM     21  C   UNL     1       3.848   9.981   0.447  0.00  0.00    +0.044 C 
ATOM     22  C   UNL     1       2.528   9.263   0.341  0.00  0.00    -0.050 A 
ATOM     23  C   UNL     1       1.446   9.890  -0.250  0.00  0.00    +0.005 A 
ATOM     24  C   UNL     1       0.235   9.234  -0.348  0.00  0.00    +0.023 A 
ATOM     25  C   UNL     1       0.103   7.943   0.147  0.00  0.00    +0.032 A 
ATOM     26  C   UNL     1       1.190   7.318   0.746  0.00  0.00    +0.023 A 
ATOM     27  C   UNL     1       2.400   7.977   0.835  0.00  0.00    +0.005 A 
ENDBRANCH   1  25
BRANCH  17  28
ATOM     28  C   UNL     1      -6.351   7.163   0.465  0.00  0.00    +0.068 A 
ATOM     29  C   UNL     1      -5.497   7.976   1.199  0.00  0.00    +0.028 A 
ATOM     30  C   UNL     1      -5.806   9.310   1.384  0.00  0.00    +0.005 A 
ATOM     31  C   UNL     1      -6.971   9.832   0.850  0.00  0.00    -0.050 A 
ATOM     32  C   UNL     1      -7.825   9.023   0.124  0.00  0.00    +0.005 A 
ATOM     33  C   UNL     1      -7.519   7.690  -0.070  0.00  0.00    +0.028 A 
ATOM     34  C   UNL     1      -7.308  11.286   1.060  0.00  0.00    +0.044 C 
ENDBRANCH  17  28
BRANCH  19  35
ATOM     35  C   UNL     1      -3.635   2.061   0.837  0.00  0.00    -0.019 A 
ATOM     36  C   UNL     1      -3.160   2.416   2.087  0.00  0.00    +0.006 A 
ATOM     37  C   UNL     1      -3.104   1.476   3.099  0.00  0.00    +0.004 A 
ATOM     38  C   UNL     1      -3.513   0.178   2.863  0.00  0.00    +0.045 A 
ATOM     39  C   UNL     1      -3.985  -0.181   1.609  0.00  0.00    +0.117 A 
ATOM     40  C   UNL     1      -4.045   0.764   0.595  0.00  0.00    +0.051 A 
BRANCH  39  41
ATOM     41  O   UNL     1      -4.388  -1.458   1.373  0.00  0.00    -0.507 OA
ATOM     42  H   UNL     1      -3.685  -2.041   1.057  0.00  0.00    +0.292 HD
ENDBRANCH  39  41
ENDBRANCH  19  35
TORSDOF 4
