REMARK  Name = ZINC17046965
REMARK  5 active torsions:
REMARK  status: ('A' for Active; 'I' for Inactive)
REMARK    1  A    between atoms: C_1  and  C_2
REMARK    2  A    between atoms: N_7  and  N_9
REMARK    3  A    between atoms: N_10  and  C_11
REMARK    4  A    between atoms: C_16  and  C_17
REMARK    5  A    between atoms: C_25  and  N_27
REMARK                            x       y       z     vdW  Elec       q    Type
REMARK                         _______ _______ _______ _____ _____    ______ ____
ROOT
ATOM      1  C   UNL     1      -0.017   1.365   0.009  0.00  0.00    +0.098 A 
ATOM      2  C   UNL     1      -1.231   2.050   0.019  0.00  0.00    +0.031 A 
ATOM      3  C   UNL     1      -1.245   3.429   0.033  0.00  0.00    +0.017 A 
ATOM      4  C   UNL     1      -0.056   4.143   0.025  0.00  0.00    +0.019 A 
ATOM      5  C   UNL     1       1.156   3.481   0.010  0.00  0.00    +0.029 A 
ATOM      6  C   UNL     1       1.189   2.089   0.002  0.00  0.00    +0.047 A 
ATOM      7 BR   UNL     1      -0.095   6.033   0.036  0.00  0.00    -0.050 Br
ENDROOT
BRANCH   6   8
ATOM      8  C   UNL     1       2.486   1.375  -0.015  0.00  0.00    +0.164 A 
ATOM      9  N   UNL     1       3.600   2.086  -0.027  0.00  0.00    -0.227 NA
ATOM     10  C   UNL     1       4.793   1.477  -0.038  0.00  0.00    +0.077 A 
ATOM     11  C   UNL     1       5.994   2.201  -0.046  0.00  0.00    +0.029 A 
ATOM     12  C   UNL     1       7.182   1.533  -0.062  0.00  0.00    +0.017 A 
ATOM     13  C   UNL     1       7.223   0.141  -0.070  0.00  0.00    +0.019 A 
ATOM     14  C   UNL     1       6.072  -0.594  -0.063  0.00  0.00    +0.028 A 
ATOM     15  C   UNL     1       4.837   0.061  -0.046  0.00  0.00    +0.041 A 
ATOM     16  C   UNL     1       3.610  -0.650  -0.038  0.00  0.00    +0.128 A 
ATOM     17  N   UNL     1       2.482   0.043  -0.022  0.00  0.00    -0.212 NA
ATOM     18 BR   UNL     1       8.894  -0.743  -0.092  0.00  0.00    -0.050 Br
BRANCH  16  19
ATOM     19  N   UNL     1       3.592  -2.029  -0.046  0.00  0.00    -0.343 N 
ATOM     20  H   UNL     1       2.633  -2.567  -0.039  0.00  0.00    +0.144 HD
ATOM     21  H   UNL     1       4.538  -2.591  -0.059  0.00  0.00    +0.144 HD
ENDBRANCH  16  19
ENDBRANCH   6   8
BRANCH   1  23
ATOM     22  N   UNL     1      -1.106  -0.664   0.009  0.00  0.00    -0.079 NA
ATOM     23  N   UNL     1       0.002  -0.004   0.002  0.00  0.00    -0.133 NA
BRANCH  22  29
ATOM     24  C   UNL     1      -3.561  -4.715  -1.092  0.00  0.00    +0.009 C 
ATOM     25  C   UNL     1      -2.325  -3.816  -1.163  0.00  0.00    +0.005 C 
ATOM     26  C   UNL     1      -1.062  -4.677  -1.083  0.00  0.00    +0.006 C 
ATOM     27  C   UNL     1       0.175  -3.782  -1.187  0.00  0.00    +0.021 C 
ATOM     28  C   UNL     1       0.187  -2.796  -0.015  0.00  0.00    +0.127 C 
ATOM     29  N   UNL     1      -1.087  -2.065   0.001  0.00  0.00    -0.237 N 
ATOM     30  C   UNL     1      -2.341  -2.831   0.015  0.00  0.00    +0.130 C 
ENDBRANCH  22  29
ENDBRANCH   1  23
TORSDOF 4
