REMARK  Name = ZINC57535504
REMARK  6 active torsions:
REMARK  status: ('A' for Active; 'I' for Inactive)
REMARK    1  A    between atoms: C_1  and  C_2
REMARK    2  A    between atoms: C_2  and  C_3
REMARK    3  A    between atoms: C_6  and  C_9
REMARK    4  A    between atoms: C_9  and  C_11
REMARK    5  A    between atoms: C_9  and  C_15
REMARK    6  A    between atoms: C_11  and  C_12
REMARK                            x       y       z     vdW  Elec       q    Type
REMARK                         _______ _______ _______ _____ _____    ______ ____
ROOT
ATOM      1  C   UNL     1       2.707  -1.868  -4.752  0.00  0.00    +0.101 C 
ENDROOT
BRANCH   1   5
ATOM      2  C   UNL     1       0.707  -0.490  -1.238  0.00  0.00    -0.048 A 
ATOM      3  C   UNL     1      -0.011  -0.719  -2.397  0.00  0.00    +0.004 A 
ATOM      4  C   UNL     1       0.636  -1.164  -3.534  0.00  0.00    +0.004 A 
ATOM      5  C   UNL     1       2.002  -1.381  -3.513  0.00  0.00    -0.036 A 
ATOM      6  C   UNL     1       2.720  -1.152  -2.354  0.00  0.00    +0.004 A 
ATOM      7  C   UNL     1       2.073  -0.702  -1.218  0.00  0.00    +0.004 A 
BRANCH   2   9
ATOM      8  C   UNL     1      -0.019   1.526   0.010  0.00  0.00    +0.009 C 
ATOM      9  C   UNL     1       0.002  -0.004   0.002  0.00  0.00    +0.032 C 
ENDBRANCH   2   9
ENDBRANCH   1   5
BRANCH   1  10
ATOM     10  C   UNL     1       3.751  -0.862  -5.164  0.00  0.00    +0.185 A 
ATOM     11  N   UNL     1       4.790  -0.463  -4.446  0.00  0.00    -0.111 NA
ATOM     12  N   UNL     1       5.440   0.401  -5.148  0.00  0.00    -0.021 NA
ATOM     13  N   UNL     1       4.845   0.556  -6.279  0.00  0.00    -0.021 NA
ATOM     14  N   UNL     1       3.809  -0.211  -6.317  0.00  0.00    -0.111 NA
ENDBRANCH   1  10
BRANCH   1  15
ATOM     15  C   UNL     1       3.380  -3.211  -4.462  0.00  0.00    +0.141 C 
BRANCH  15  16
ATOM     16  C   UNL     1       3.980  -3.757  -5.732  0.00  0.00    +0.357 C 
ATOM     17  O   UNL     1       3.879  -3.130  -6.772  0.00  0.00    -0.246 OA
ATOM     18  O   UNL     1       4.566  -4.826  -5.718  0.00  0.00    -0.246 OA
ENDBRANCH  15  16
ENDBRANCH   1  15
TORSDOF 5
