REMARK  Name = ZINC63739239
REMARK  11 active torsions:
REMARK  status: ('A' for Active; 'I' for Inactive)
REMARK    1  A    between atoms: C_1  and  C_2
REMARK    2  A    between atoms: C_2  and  C_4
REMARK    3  A    between atoms: C_2  and  N_32
REMARK    4  A    between atoms: C_4  and  C_5
REMARK    5  A    between atoms: C_5  and  N_6
REMARK    6  A    between atoms: C_7  and  C_9
REMARK    7  A    between atoms: C_9  and  C_11
REMARK    8  A    between atoms: C_9  and  C_12
REMARK    9  A    between atoms: C_18  and  C_20
REMARK   10  A    between atoms: C_26  and  O_30
REMARK   11  A    between atoms: O_30  and  C_31
REMARK                            x       y       z     vdW  Elec       q    Type
REMARK                         _______ _______ _______ _____ _____    ______ ____
ROOT
ATOM      1  C   UNL     1       1.713  -6.774   2.415  0.00  0.00    +0.004 C 
ATOM      2  C   UNL     1       0.224  -7.067   2.613  0.00  0.00    +0.023 C 
ATOM      3  C   UNL     1      -0.043  -8.548   2.325  0.00  0.00    +0.108 C 
ATOM      4  N   UNL     1       0.849  -9.361   3.163  0.00  0.00    -0.300 N 
ATOM      5  C   UNL     1       2.294  -9.099   3.118  0.00  0.00    +0.108 C 
ATOM      6  C   UNL     1       2.535  -7.612   3.397  0.00  0.00    +0.023 C 
ATOM      7  C   UNL     1       0.350 -10.328   3.959  0.00  0.00    +0.242 C 
ATOM      8  O   UNL     1      -0.844 -10.534   3.988  0.00  0.00    -0.273 OA
ENDROOT
BRANCH   7   9
ATOM      9  C   UNL     1       1.278 -11.154   4.812  0.00  0.00    +0.190 C 
ATOM     10  C   UNL     1       2.234 -11.934   3.939  0.00  0.00    +0.016 C 
ATOM     11  C   UNL     1       2.004 -13.239   4.202  0.00  0.00    -0.003 A 
ATOM     12  C   UNL     1       2.600 -14.477   3.683  0.00  0.00    +0.013 A 
ATOM     13  C   UNL     1       2.154 -15.665   4.145  0.00  0.00    +0.046 A 
ATOM     14  C   UNL     1       1.133 -15.745   5.111  0.00  0.00    +0.122 A 
ATOM     15  C   UNL     1       0.536 -14.644   5.635  0.00  0.00    +0.071 A 
ATOM     16  C   UNL     1       0.931 -13.348   5.217  0.00  0.00    +0.047 A 
ATOM     17  N   UNL     1       0.515 -12.152   5.569  0.00  0.00    -0.370 N 
ATOM     18  H   UNL     1      -0.180 -11.961   6.219  0.00  0.00    +0.161 HD
BRANCH  14  19
ATOM     19  O   UNL     1       0.729 -16.969   5.533  0.00  0.00    -0.495 OA
ATOM     20  C   UNL     1       1.382 -18.102   4.957  0.00  0.00    +0.277 C 
ENDBRANCH  14  19
ENDBRANCH   7   9
BRANCH   1  21
ATOM     21  C   UNL     1       1.978  -5.288   2.669  0.00  0.00    +0.075 C 
ATOM     22  C   UNL     1       3.466  -4.994   2.469  0.00  0.00    +0.017 C 
BRANCH  21  24
ATOM     23  N   UNL     1       1.242  -3.117   1.740  0.00  0.00    -0.315 N 
ATOM     24  C   UNL     1       1.169  -4.462   1.702  0.00  0.00    +0.216 C 
ATOM     25  O   UNL     1       0.451  -5.007   0.891  0.00  0.00    -0.276 OA
ATOM     26  H   UNL     1       1.816  -2.680   2.389  0.00  0.00    +0.149 HD
BRANCH  23  27
ATOM     27  C   UNL     1       0.456  -2.313   0.800  0.00  0.00    +0.102 C 
BRANCH  27  28
ATOM     28  C   UNL     1       0.721  -0.828   1.054  0.00  0.00    +0.003 C 
BRANCH  28  30
ATOM     29  C   UNL     1       0.056   1.498   0.429  0.00  0.00    -0.013 C 
ATOM     30  C   UNL     1      -0.198   0.013   0.165  0.00  0.00    -0.070 C 
BRANCH  30  31
ATOM     31  N   UNL     1       0.077  -0.288  -1.247  0.00  0.00    +0.381 N 
ATOM     32  C   UNL     1       1.464   0.111  -1.554  0.00  0.00    -0.078 C 
ATOM     33  C   UNL     1       1.942  -0.704  -2.730  0.00  0.00    -0.019 C 
ATOM     34  C   UNL     1       1.767   0.062  -4.054  0.00  0.00    -0.002 C 
ATOM     35  C   UNL     1       0.428   0.826  -4.101  0.00  0.00    -0.002 C 
ATOM     36  C   UNL     1      -0.712   0.021  -3.533  0.00  0.00    -0.019 C 
ATOM     37  C   UNL     1      -0.873   0.362  -2.036  0.00  0.00    -0.078 C 
ATOM     38  H   UNL     1      -0.011  -1.283  -1.388  0.00  0.00    -0.081 HD
ENDBRANCH  30  31
ENDBRANCH  28  30
ENDBRANCH  27  28
ENDBRANCH  23  27
ENDBRANCH  21  24
ENDBRANCH   1  21
TORSDOF 8
