REMARK  Name = ZINC12136177
REMARK  9 active torsions:
REMARK  status: ('A' for Active; 'I' for Inactive)
REMARK    1  A    between atoms: C_1  and  C_2
REMARK    2  A    between atoms: C_2  and  C_4
REMARK    3  A    between atoms: C_2  and  S_17
REMARK    4  A    between atoms: N_6  and  C_7
REMARK    5  A    between atoms: S_17  and  C_18
REMARK    6  A    between atoms: C_21  and  C_30
REMARK    7  A    between atoms: N_22  and  C_23
REMARK    8  A    between atoms: C_23  and  C_24
REMARK    9  A    between atoms: C_30  and  N_74
REMARK                            x       y       z     vdW  Elec       q    Type
REMARK                         _______ _______ _______ _____ _____    ______ ____
ROOT
ATOM      1  C   UNL     1      -3.523   9.348  -1.764  0.00  0.00    +0.193 A 
ATOM      2  N   UNL     1      -2.554   9.950  -1.115  0.00  0.00    -0.123 NA
ATOM      3  N   UNL     1      -2.762  11.219  -1.098  0.00  0.00    -0.135 NA
ATOM      4  C   UNL     1      -3.871  11.498  -1.722  0.00  0.00    +0.118 A 
ATOM      5  N   UNL     1      -4.396  10.317  -2.169  0.00  0.00    -0.303 N 
ENDROOT
BRANCH   1   6
ATOM      6  S   UNL     1      -3.673   7.616  -2.051  0.00  0.00    -0.074 S 
BRANCH   6   8
ATOM      7  C   UNL     1      -0.943   7.567  -1.970  0.00  0.00    +0.029 C 
ATOM      8  C   UNL     1      -2.171   7.030  -1.231  0.00  0.00    +0.137 C 
BRANCH   8   9
ATOM      9  C   UNL     1      -2.146   5.523  -1.244  0.00  0.00    +0.227 C 
ATOM     10  O   UNL     1      -2.754   4.914  -2.099  0.00  0.00    -0.275 OA
ATOM     11  N   UNL     1      -1.448   4.852  -0.307  0.00  0.00    -0.309 N 
ATOM     12  H   UNL     1      -0.962   5.339   0.377  0.00  0.00    +0.149 HD
BRANCH  11  13
ATOM     13  C   UNL     1      -1.424   3.387  -0.320  0.00  0.00    +0.035 C 
ATOM     14  C   UNL     1      -0.830   2.899  -1.643  0.00  0.00    +0.029 C 
ATOM     15  C   UNL     1      -0.805   1.369  -1.657  0.00  0.00    -0.008 C 
ATOM     16  C   UNL     1       0.052   0.862  -0.495  0.00  0.00    +0.007 C 
ATOM     17  C   UNL     1      -0.542   1.351   0.828  0.00  0.00    -0.008 C 
ATOM     18  C   UNL     1      -0.567   2.881   0.842  0.00  0.00    +0.029 C 
ATOM     19  C   UNL     1      -1.968   0.816   0.975  0.00  0.00    +0.007 C 
ATOM     20  C   UNL     1      -2.825   1.323  -0.187  0.00  0.00    -0.008 C 
ATOM     21  C   UNL     1      -2.231   0.834  -1.510  0.00  0.00    +0.007 C 
ATOM     22  C   UNL     1      -2.850   2.852  -0.173  0.00  0.00    +0.029 C 
ENDBRANCH  11  13
ENDBRANCH   8   9
ENDBRANCH   6   8
ENDBRANCH   1   6
BRANCH   5  23
ATOM     23  C   UNL     1      -5.637  10.130  -2.925  0.00  0.00    +0.160 C 
BRANCH  23  24
ATOM     24  C   UNL     1      -6.763   9.821  -1.972  0.00  0.00    -0.028 A 
ATOM     25  C   UNL     1      -6.988   8.519  -1.566  0.00  0.00    +0.005 A 
ATOM     26  C   UNL     1      -8.018   8.236  -0.688  0.00  0.00    +0.000 A 
ATOM     27  C   UNL     1      -8.830   9.255  -0.225  0.00  0.00    +0.000 A 
ATOM     28  C   UNL     1      -8.609  10.556  -0.636  0.00  0.00    +0.000 A 
ATOM     29  C   UNL     1      -7.576  10.839  -1.509  0.00  0.00    +0.005 A 
ENDBRANCH  23  24
ENDBRANCH   5  23
BRANCH   4  30
ATOM     30  C   UNL     1      -4.466  12.869  -1.916  0.00  0.00    -0.001 C 
BRANCH  30  36
ATOM     31  C   UNL     1      -2.635  13.765  -3.222  0.00  0.00    -0.078 C 
ATOM     32  C   UNL     1      -2.211  14.175  -4.634  0.00  0.00    -0.019 C 
ATOM     33  C   UNL     1      -3.061  15.363  -5.093  0.00  0.00    -0.004 C 
ATOM     34  C   UNL     1      -4.541  14.972  -5.039  0.00  0.00    -0.019 C 
ATOM     35  C   UNL     1      -4.897  14.539  -3.615  0.00  0.00    -0.078 C 
ATOM     36  N   UNL     1      -4.061  13.378  -3.243  0.00  0.00    +0.384 N 
ATOM     37  H   UNL     1      -4.194  12.635  -3.939  0.00  0.00    -0.081 HD
ENDBRANCH  30  36
ENDBRANCH   4  30
TORSDOF 8
