REMARK  Name = ZINC54094455
REMARK  7 active torsions:
REMARK  status: ('A' for Active; 'I' for Inactive)
REMARK    1  A    between atoms: C_1  and  C_2
REMARK    2  A    between atoms: C_8  and  N_10
REMARK    3  A    between atoms: N_16  and  C_19
REMARK    4  A    between atoms: C_19  and  C_20
REMARK    5  A    between atoms: N_22  and  C_23
REMARK    6  A    between atoms: C_23  and  C_24
REMARK    7  A    between atoms: C_23  and  C_25
REMARK                            x       y       z     vdW  Elec       q    Type
REMARK                         _______ _______ _______ _____ _____    ______ ____
ROOT
ATOM      1  N   UNL     1       0.056  -0.038   2.447  0.00  0.00    -0.296 N 
ATOM      2  C   UNL     1       0.738   0.093   3.602  0.00  0.00    +0.303 C 
ATOM      3  O   UNL     1       1.898  -0.266   3.668  0.00  0.00    -0.253 OA
ATOM      4  N   UNL     1       0.134   0.622   4.684  0.00  0.00    -0.283 N 
ATOM      5  C   UNL     1      -1.298   0.956   4.662  0.00  0.00    +0.124 C 
ATOM      6  C   UNL     1      -1.469   2.400   5.145  0.00  0.00    +0.104 C 
ATOM      7  N   UNL     1      -0.816   2.557   6.451  0.00  0.00    -0.291 NA
ATOM      8  C   UNL     1       0.632   2.329   6.353  0.00  0.00    +0.104 C 
ATOM      9  C   UNL     1       0.888   0.876   5.921  0.00  0.00    +0.124 C 
ATOM     10  H   UNL     1      -0.888   0.179   2.414  0.00  0.00    +0.151 HD
ENDROOT
BRANCH   1  17
ATOM     11  C   UNL     1      -0.020   1.528   0.011  0.00  0.00    +0.009 C 
ATOM     12  C   UNL     1       0.002  -0.002   0.002  0.00  0.00    +0.006 C 
ATOM     13  C   UNL     1       0.718  -0.494  -1.257  0.00  0.00    +0.005 C 
ATOM     14  C   UNL     1       0.741  -2.024  -1.267  0.00  0.00    +0.000 C 
ATOM     15  C   UNL     1       1.481  -2.531  -0.028  0.00  0.00    +0.002 C 
ATOM     16  C   UNL     1       0.765  -2.039   1.232  0.00  0.00    +0.022 C 
ATOM     17  C   UNL     1       0.743  -0.509   1.241  0.00  0.00    +0.077 C 
ENDBRANCH   1  17
BRANCH   7  18
ATOM     18  C   UNL     1      -1.102   3.878   7.028  0.00  0.00    +0.180 C 
BRANCH  18  19
ATOM     19  C   UNL     1      -0.628   3.914   8.458  0.00  0.00    +0.227 C 
ATOM     20  O   UNL     1      -0.103   2.937   8.948  0.00  0.00    -0.274 OA
ATOM     21  N   UNL     1      -0.788   5.034   9.192  0.00  0.00    -0.312 N 
ATOM     22  H   UNL     1      -1.208   5.815   8.800  0.00  0.00    +0.149 HD
BRANCH  21  23
ATOM     23  C   UNL     1      -0.327   5.069  10.582  0.00  0.00    +0.067 C 
ATOM     24  C   UNL     1      -0.038   6.516  10.986  0.00  0.00    +0.027 C 
ATOM     25  C   UNL     1      -1.412   4.493  11.494  0.00  0.00    +0.027 C 
ENDBRANCH  21  23
ENDBRANCH  18  19
ENDBRANCH   7  18
TORSDOF 4
