REMARK  Name = ZINC38966570
REMARK  8 active torsions:
REMARK  status: ('A' for Active; 'I' for Inactive)
REMARK    1  A    between atoms: C_1  and  O_2
REMARK    2  A    between atoms: O_2  and  C_3
REMARK    3  A    between atoms: C_6  and  S_9
REMARK    4  A    between atoms: S_9  and  N_12
REMARK    5  A    between atoms: C_14  and  N_24
REMARK    6  A    between atoms: N_24  and  C_25
REMARK    7  A    between atoms: C_28  and  O_31
REMARK    8  A    between atoms: O_31  and  C_32
REMARK                            x       y       z     vdW  Elec       q    Type
REMARK                         _______ _______ _______ _____ _____    ______ ____
ROOT
ATOM      1  N   UNL     1      -5.188  -3.142  -1.577  0.00  0.00    -0.110 NA
ATOM      2  C   UNL     1      -6.417  -3.524  -1.765  0.00  0.00    +0.192 C 
ATOM      3  C   UNL     1      -6.980  -3.631  -3.164  0.00  0.00    +0.237 C 
ATOM      4  N   UNL     1      -8.377  -4.070  -3.311  0.00  0.00    -0.359 N 
ATOM      5  C   UNL     1      -9.059  -4.343  -2.234  0.00  0.00    +0.063 A 
ATOM      6  C   UNL     1     -10.459  -4.785  -2.326  0.00  0.00    +0.027 A 
ATOM      7  C   UNL     1     -11.133  -5.060  -1.188  0.00  0.00    +0.002 A 
ATOM      8  C   UNL     1     -10.532  -4.934   0.076  0.00  0.00    +0.002 A 
ATOM      9  C   UNL     1      -9.252  -4.534   0.239  0.00  0.00    +0.030 A 
ATOM     10  C   UNL     1      -8.450  -4.219  -0.887  0.00  0.00    +0.089 A 
ATOM     11  N   UNL     1      -7.202  -3.834  -0.722  0.00  0.00    -0.226 NA
ATOM     12  H   UNL     1      -8.781  -4.153  -4.189  0.00  0.00    +0.162 HD
ENDROOT
BRANCH   1  13
ATOM     13  S   UNL     1      -4.581  -3.036  -0.039  0.00  0.00    +0.100 S 
ATOM     14  O   UNL     1      -4.538  -4.360   0.473  0.00  0.00    -0.146 OA
ATOM     15  O   UNL     1      -5.295  -1.991   0.608  0.00  0.00    -0.146 OA
BRANCH  13  19
ATOM     16  C   UNL     1      -0.286  -1.644  -0.389  0.00  0.00    +0.120 A 
ATOM     17  C   UNL     1      -1.310  -0.715  -0.270  0.00  0.00    +0.047 A 
ATOM     18  C   UNL     1      -2.619  -1.142  -0.164  0.00  0.00    +0.032 A 
ATOM     19  C   UNL     1      -2.910  -2.494  -0.175  0.00  0.00    +0.113 A 
ATOM     20  C   UNL     1      -1.891  -3.421  -0.293  0.00  0.00    +0.032 A 
ATOM     21  C   UNL     1      -0.581  -2.999  -0.406  0.00  0.00    +0.047 A 
BRANCH  16  23
ATOM     22  C   UNL     1       1.232   0.184  -0.469  0.00  0.00    +0.277 C 
ATOM     23  O   UNL     1       1.003  -1.226  -0.493  0.00  0.00    -0.495 OA
ENDBRANCH  16  23
ENDBRANCH  13  19
ENDBRANCH   1  13
BRANCH   3  24
ATOM     24  N   UNL     1      -6.138  -4.566  -3.915  0.00  0.00    -0.318 N 
ATOM     25  H   UNL     1      -5.847  -5.395  -3.503  0.00  0.00    +0.148 HD
BRANCH  24  26
ATOM     26  C   UNL     1      -5.753  -4.263  -5.226  0.00  0.00    +0.029 A 
ATOM     27  C   UNL     1      -6.288  -3.155  -5.869  0.00  0.00    +0.026 A 
ATOM     28  C   UNL     1      -5.907  -2.856  -7.162  0.00  0.00    +0.048 A 
ATOM     29  C   UNL     1      -4.991  -3.664  -7.820  0.00  0.00    +0.130 A 
ATOM     30  C   UNL     1      -4.457  -4.772  -7.179  0.00  0.00    +0.048 A 
ATOM     31  C   UNL     1      -4.832  -5.068  -5.883  0.00  0.00    +0.026 A 
BRANCH  29  32
ATOM     32  O   UNL     1      -4.617  -3.369  -9.094  0.00  0.00    -0.406 OA
BRANCH  32  33
ATOM     33  C   UNL     1      -3.670  -4.244  -9.710  0.00  0.00    +0.575 C 
ATOM     34  F   UNL     1      -4.196  -5.539  -9.763  0.00  0.00    -0.133 F 
ATOM     35  F   UNL     1      -3.399  -3.797 -11.008  0.00  0.00    -0.133 F 
ATOM     36  F   UNL     1      -2.487  -4.251  -8.963  0.00  0.00    -0.133 F 
ENDBRANCH  32  33
ENDBRANCH  29  32
ENDBRANCH  24  26
ENDBRANCH   3  24
TORSDOF 7
