REMARK  Name = ZINC26976842
REMARK  5 active torsions:
REMARK  status: ('A' for Active; 'I' for Inactive)
REMARK    1  A    between atoms: C_5  and  C_7
REMARK    2  A    between atoms: N_9  and  C_10
REMARK    3  A    between atoms: C_10  and  C_11
REMARK    4  A    between atoms: N_13  and  N_14
REMARK    5  A    between atoms: C_15  and  C_17
REMARK                            x       y       z     vdW  Elec       q    Type
REMARK                         _______ _______ _______ _____ _____    ______ ____
ROOT
ATOM      1  C   UNL     1      -3.462  -2.564   0.002  0.00  0.00    +0.246 C 
ATOM      2  O   UNL     1      -2.314  -2.957  -0.005  0.00  0.00    -0.273 OA
ATOM      3  N   UNL     1      -4.477  -3.450   0.002  0.00  0.00    -0.233 N 
ATOM      4  H   UNL     1      -5.518  -3.093   0.009  0.00  0.00    +0.173 HD
ENDROOT
BRANCH   3   5
ATOM      5  N   UNL     1      -4.208  -4.824  -0.008  0.00  0.00    -0.231 N 
ATOM      6  C   UNL     1      -5.224  -5.710  -0.008  0.00  0.00    +0.273 C 
ATOM      7  O   UNL     1      -6.371  -5.317  -0.001  0.00  0.00    -0.270 OA
ATOM      8  H   UNL     1      -3.167  -5.181  -0.015  0.00  0.00    +0.173 HD
BRANCH   6   9
ATOM      9  C   UNL     1      -4.934  -7.189  -0.018  0.00  0.00    +0.297 C 
ATOM     10  C   UNL     1      -4.256  -7.593   1.298  0.00  0.00    +0.283 C 
ATOM     11  O   UNL     1      -4.008  -9.002   1.261  0.00  0.00    -0.484 OA
ATOM     12  C   UNL     1      -5.032  -9.792   0.838  0.00  0.00    +0.162 A 
ATOM     13  C   UNL     1      -5.000 -11.152   1.109  0.00  0.00    +0.049 A 
ATOM     14  C   UNL     1      -6.031 -11.968   0.684  0.00  0.00    +0.004 A 
ATOM     15  C   UNL     1      -7.097 -11.432  -0.014  0.00  0.00    +0.004 A 
ATOM     16  C   UNL     1      -7.136 -10.078  -0.287  0.00  0.00    +0.049 A 
ATOM     17  C   UNL     1      -6.105  -9.253   0.139  0.00  0.00    +0.163 A 
ATOM     18  O   UNL     1      -6.160  -7.920  -0.134  0.00  0.00    -0.472 OA
ENDBRANCH   6   9
ENDBRANCH   3   5
BRANCH   1  19
ATOM     19  C   UNL     1      -3.751  -1.085   0.012  0.00  0.00    +0.202 C 
BRANCH  19  22
ATOM     20  C   UNL     1      -2.503   1.007   0.019  0.00  0.00    +0.245 C 
ATOM     21  O   UNL     1      -3.562   1.605   0.027  0.00  0.00    -0.270 OA
ATOM     22  N   UNL     1      -2.490  -0.340   0.011  0.00  0.00    -0.303 N 
ATOM     23  H   UNL     1      -1.532  -0.881   0.004  0.00  0.00    +0.150 HD
BRANCH  20  28
ATOM     24  C   UNL     1       1.171   1.783   0.000  0.00  0.00    +0.001 A 
ATOM     25  C   UNL     1       1.155   3.167   0.008  0.00  0.00    +0.001 A 
ATOM     26  C   UNL     1      -0.047   3.850   0.023  0.00  0.00    +0.015 A 
ATOM     27  C   UNL     1      -1.240   3.155   0.031  0.00  0.00    +0.025 A 
ATOM     28  C   UNL     1      -1.230   1.759   0.017  0.00  0.00    +0.050 A 
ATOM     29  C   UNL     1      -0.013   1.076   0.008  0.00  0.00    +0.014 A 
ATOM     30  I   UNL     1      -3.060   4.192   0.054  0.00  0.00    -0.043 I 
ENDBRANCH  20  28
ENDBRANCH  19  22
ENDBRANCH   1  19
TORSDOF 5
