REMARK  Name = ZINC20622896
REMARK  7 active torsions:
REMARK  status: ('A' for Active; 'I' for Inactive)
REMARK    1  A    between atoms: C_4  and  C_7
REMARK    2  A    between atoms: C_7  and  N_8
REMARK    3  A    between atoms: C_11  and  C_14
REMARK    4  A    between atoms: C_14  and  C_15
REMARK    5  A    between atoms: C_15  and  N_16
REMARK    6  A    between atoms: N_16  and  C_17
REMARK    7  A    between atoms: N_23  and  C_26
REMARK                            x       y       z     vdW  Elec       q    Type
REMARK                         _______ _______ _______ _____ _____    ______ ____
ROOT
ATOM      1  N   UNL     1       8.045  -2.205   6.424  0.00  0.00    -0.349 N 
ATOM      2  H   UNL     1       7.470  -1.880   7.134  0.00  0.00    +0.146 HD
ENDROOT
BRANCH   1   3
ATOM      3  C   UNL     1       9.153  -2.912   6.723  0.00  0.00    +0.085 C 
ATOM      4  C   UNL     1       9.527  -3.084   8.043  0.00  0.00    +0.113 C 
ATOM      5  C   UNL     1       8.664  -2.640   9.152  0.00  0.00    +0.258 C 
ATOM      6  N   UNL     1       9.094  -2.841  10.415  0.00  0.00    -0.235 N 
ATOM      7  C   UNL     1      10.272  -3.427  10.669  0.00  0.00    +0.320 C 
ATOM      8  O   UNL     1      10.601  -3.579  11.829  0.00  0.00    -0.251 OA
ATOM      9  N   UNL     1      11.107  -3.855   9.711  0.00  0.00    -0.190 N 
ATOM     10  C   UNL     1      10.804  -3.726   8.403  0.00  0.00    +0.265 C 
ATOM     11  O   UNL     1      11.568  -4.123   7.543  0.00  0.00    -0.269 OA
ATOM     12  O   UNL     1       7.593  -2.106   8.934  0.00  0.00    -0.270 OA
ATOM     13  H   UNL     1       8.538  -2.554  11.156  0.00  0.00    +0.159 HD
BRANCH   9  14
ATOM     14  C   UNL     1      12.318  -4.457  10.078  0.00  0.00    +0.047 A 
ATOM     15  C   UNL     1      13.522  -3.829   9.787  0.00  0.00    +0.024 A 
ATOM     16  C   UNL     1      14.715  -4.423  10.149  0.00  0.00    +0.003 A 
ATOM     17  C   UNL     1      14.712  -5.642  10.801  0.00  0.00    +0.020 A 
ATOM     18  C   UNL     1      13.514  -6.271  11.093  0.00  0.00    +0.043 A 
ATOM     19  C   UNL     1      12.317  -5.678  10.737  0.00  0.00    +0.044 A 
ATOM     20 CL   UNL     1      13.514  -7.802  11.911  0.00  0.00    -0.083 Cl
ENDBRANCH   9  14
ENDBRANCH   1   3
BRANCH   1  21
ATOM     21  C   UNL     1       7.708  -1.929   5.025  0.00  0.00    +0.101 C 
BRANCH  21  22
ATOM     22  C   UNL     1       6.414  -1.116   4.963  0.00  0.00    +0.022 C 
BRANCH  22  26
ATOM     23  N   UNL     1       4.122  -0.979   1.356  0.00  0.00    +0.382 N 
ATOM     24  C   UNL     1       4.444   0.311   1.980  0.00  0.00    -0.078 C 
ATOM     25  C   UNL     1       4.837   0.090   3.442  0.00  0.00    -0.015 C 
ATOM     26  C   UNL     1       6.062  -0.827   3.502  0.00  0.00    -0.013 C 
ATOM     27  C   UNL     1       5.740  -2.140   2.784  0.00  0.00    -0.015 C 
ATOM     28  C   UNL     1       5.313  -1.837   1.346  0.00  0.00    -0.078 C 
ATOM     29  H   UNL     1       3.388  -1.430   1.880  0.00  0.00    -0.081 HD
BRANCH  23  30
ATOM     30  C   UNL     1       3.670  -0.754  -0.024  0.00  0.00    -0.043 C 
BRANCH  30  34
ATOM     31  C   UNL     1       0.012   1.451   0.015  0.00  0.00    +0.000 A 
ATOM     32  C   UNL     1       1.222   2.119  -0.026  0.00  0.00    +0.000 A 
ATOM     33  C   UNL     1       2.406   1.406  -0.038  0.00  0.00    +0.002 A 
ATOM     34  C   UNL     1       2.380   0.024  -0.009  0.00  0.00    -0.064 A 
ATOM     35  C   UNL     1       1.170  -0.644   0.033  0.00  0.00    +0.002 A 
ATOM     36  C   UNL     1      -0.013   0.070   0.044  0.00  0.00    +0.000 A 
ENDBRANCH  30  34
ENDBRANCH  23  30
ENDBRANCH  22  26
ENDBRANCH  21  22
ENDBRANCH   1  21
TORSDOF 7
