REMARK  Name = ZINC23219791
REMARK  8 active torsions:
REMARK  status: ('A' for Active; 'I' for Inactive)
REMARK    1  A    between atoms: C_1  and  C_2
REMARK    2  A    between atoms: C_2  and  C_3
REMARK    3  A    between atoms: C_3  and  C_4
REMARK    4  A    between atoms: C_3  and  C_6
REMARK    5  A    between atoms: C_4  and  C_5
REMARK    6  A    between atoms: N_7  and  N_8
REMARK    7  A    between atoms: C_9  and  C_11
REMARK    8  A    between atoms: C_13  and  N_19
REMARK                            x       y       z     vdW  Elec       q    Type
REMARK                         _______ _______ _______ _____ _____    ______ ____
ROOT
ATOM      1  C   UNL     1       3.493  -5.995   1.027  0.00  0.00    +0.149 A 
ATOM      2  C   UNL     1       4.756  -6.580   1.027  0.00  0.00    +0.094 A 
ATOM      3  C   UNL     1       4.858  -7.970   0.962  0.00  0.00    +0.067 A 
ATOM      4  C   UNL     1       3.683  -8.717   0.900  0.00  0.00    +0.100 A 
ATOM      5  C   UNL     1       2.462  -8.061   0.905  0.00  0.00    +0.150 A 
ATOM      6  N   UNL     1       2.399  -6.747   0.972  0.00  0.00    -0.228 NA
ATOM      7 CL   UNL     1       0.994  -8.985   0.828  0.00  0.00    -0.060 Cl
ATOM      8 CL   UNL     1       3.747 -10.450   0.818  0.00  0.00    -0.078 Cl
ATOM      9 CL   UNL     1       6.184  -5.595   1.105  0.00  0.00    -0.079 Cl
ENDROOT
BRANCH   1  11
ATOM     10  N   UNL     1       2.148  -3.949   1.101  0.00  0.00    -0.202 N 
ATOM     11  C   UNL     1       3.368  -4.522   1.095  0.00  0.00    +0.283 C 
ATOM     12  O   UNL     1       4.365  -3.829   1.146  0.00  0.00    -0.267 OA
ATOM     13  H   UNL     1       1.352  -4.503   1.061  0.00  0.00    +0.178 HD
BRANCH  10  15
ATOM     14  C   UNL     1       0.870  -2.011   1.172  0.00  0.00    +0.106 C 
ATOM     15  N   UNL     1       2.029  -2.555   1.166  0.00  0.00    -0.192 NA
BRANCH  14  16
ATOM     16  C   UNL     1       0.742  -0.511   1.242  0.00  0.00    +0.031 C 
BRANCH  16  18
ATOM     17  C   UNL     1      -0.019   1.526   0.010  0.00  0.00    +0.004 C 
ATOM     18  C   UNL     1       0.002  -0.004   0.002  0.00  0.00    +0.006 C 
ENDBRANCH  16  18
BRANCH  16  19
ATOM     19  C   UNL     1      -0.042  -0.124   2.497  0.00  0.00    +0.006 C 
ATOM     20  C   UNL     1       0.758  -0.520   3.740  0.00  0.00    +0.004 C 
ENDBRANCH  16  19
ENDBRANCH  14  16
ENDBRANCH  10  15
ENDBRANCH   1  11
BRANCH   3  21
ATOM     21  N   UNL     1       6.103  -8.596   0.959  0.00  0.00    -0.356 N 
ATOM     22  H   UNL     1       6.913  -8.064   1.002  0.00  0.00    +0.142 HD
ATOM     23  H   UNL     1       6.159  -9.563   0.914  0.00  0.00    +0.142 HD
ENDBRANCH   3  21
TORSDOF 6
