REMARK  Name = ZINC42014190
REMARK  3 active torsions:
REMARK  status: ('A' for Active; 'I' for Inactive)
REMARK    1  A    between atoms: C_4  and  N_20
REMARK    2  A    between atoms: C_5  and  C_7
REMARK    3  A    between atoms: N_11  and  C_12
REMARK                            x       y       z     vdW  Elec       q    Type
REMARK                         _______ _______ _______ _____ _____    ______ ____
ROOT
ATOM      1  C   UNL     1       1.244  -2.162  -0.056  0.00  0.00    +0.189 A 
ATOM      2  N   UNL     1       2.313  -2.927  -0.144  0.00  0.00    -0.108 NA
ATOM      3  N   UNL     1       1.986  -4.166  -0.079  0.00  0.00    -0.022 NA
ATOM      4  N   UNL     1       0.710  -4.293   0.052  0.00  0.00    -0.039 NA
ATOM      5  N   UNL     1       0.171  -2.994   0.079  0.00  0.00    -0.191 N 
ENDROOT
BRANCH   5   6
ATOM      6  C   UNL     1      -1.177  -2.633   0.212  0.00  0.00    +0.088 A 
ATOM      7  C   UNL     1      -1.739  -1.708  -0.657  0.00  0.00    +0.032 A 
ATOM      8  C   UNL     1      -3.067  -1.354  -0.525  0.00  0.00    +0.040 A 
ATOM      9  C   UNL     1      -3.840  -1.921   0.475  0.00  0.00    +0.125 A 
ATOM     10  C   UNL     1      -3.283  -2.843   1.345  0.00  0.00    +0.060 A 
ATOM     11  C   UNL     1      -1.955  -3.205   1.212  0.00  0.00    +0.069 A 
ATOM     12 CL   UNL     1      -1.258  -4.367   2.297  0.00  0.00    -0.081 Cl
ATOM     13  F   UNL     1      -5.139  -1.572   0.603  0.00  0.00    -0.205 F 
ENDBRANCH   5   6
BRANCH   1  18
ATOM     14  C   UNL     1       0.465   1.403   0.835  0.00  0.00    +0.001 A 
ATOM     15  C   UNL     1       1.153   2.088  -0.152  0.00  0.00    +0.002 A 
ATOM     16  C   UNL     1       1.871   1.400  -1.109  0.00  0.00    +0.023 A 
ATOM     17  C   UNL     1       1.908   0.013  -1.087  0.00  0.00    +0.035 A 
ATOM     18  C   UNL     1       1.213  -0.684  -0.089  0.00  0.00    +0.042 A 
ATOM     19  C   UNL     1       0.491   0.024   0.872  0.00  0.00    +0.013 A 
BRANCH  17  20
ATOM     20  N   UNL     1       2.631  -0.684  -2.052  0.00  0.00    -0.357 N 
ATOM     21  H   UNL     1       3.111  -0.200  -2.742  0.00  0.00    +0.142 HD
ATOM     22  H   UNL     1       2.655  -1.654  -2.035  0.00  0.00    +0.142 HD
ENDBRANCH  17  20
ENDBRANCH   1  18
TORSDOF 3
