REMARK  Name = ZINC66774693
REMARK  4 active torsions:
REMARK  status: ('A' for Active; 'I' for Inactive)
REMARK    1  A    between atoms: C_5  and  C_14
REMARK    2  A    between atoms: C_9  and  N_11
REMARK    3  A    between atoms: N_16  and  C_17
REMARK    4  A    between atoms: C_17  and  C_18
REMARK                            x       y       z     vdW  Elec       q    Type
REMARK                         _______ _______ _______ _____ _____    ______ ____
ROOT
ATOM      1  C   UNL     1       5.984   0.754  -0.051  0.00  0.00    +0.261 C 
ATOM      2  O   UNL     1       6.590   1.809  -0.051  0.00  0.00    -0.269 OA
ATOM      3  N   UNL     1       6.661  -0.411  -0.065  0.00  0.00    -0.306 N 
ATOM      4  H   UNL     1       6.178  -1.253  -0.065  0.00  0.00    +0.149 HD
ENDROOT
BRANCH   1   9
ATOM      5  C   UNL     1      -0.017   1.385   0.010  0.00  0.00    +0.003 A 
ATOM      6  C   UNL     1       1.148   2.096   0.002  0.00  0.00    +0.010 A 
ATOM      7  C   UNL     1       2.376   1.421  -0.013  0.00  0.00    +0.003 A 
ATOM      8  C   UNL     1       3.724   1.855  -0.024  0.00  0.00    +0.041 A 
ATOM      9  C   UNL     1       4.514   0.750  -0.037  0.00  0.00    +0.103 A 
ATOM     10  N   UNL     1       3.716  -0.378  -0.035  0.00  0.00    -0.349 N 
ATOM     11  H   UNL     1       4.033  -1.294  -0.043  0.00  0.00    +0.166 HD
ATOM     12  C   UNL     1       2.398   0.013  -0.021  0.00  0.00    +0.078 A 
ATOM     13  C   UNL     1       1.196  -0.690  -0.013  0.00  0.00    +0.150 A 
ATOM     14  C   UNL     1       0.002  -0.004   0.002  0.00  0.00    +0.035 A 
BRANCH  13  15
ATOM     15  N   UNL     1       1.202  -2.170  -0.021  0.00  0.00    +0.058 N 
ATOM     16  O   UNL     1       0.157  -2.779  -0.015  0.00  0.00    -0.126 OA
ATOM     17  O   UNL     1       2.251  -2.770  -0.035  0.00  0.00    -0.126 OA
ENDBRANCH  13  15
ENDBRANCH   1   9
BRANCH   3  18
ATOM     18  C   UNL     1       8.126  -0.408  -0.079  0.00  0.00    +0.140 C 
BRANCH  18  19
ATOM     19  C   UNL     1       8.632  -1.827  -0.092  0.00  0.00    -0.027 A 
ATOM     20  C   UNL     1       8.869  -2.485   1.101  0.00  0.00    +0.009 A 
ATOM     21  C   UNL     1       9.334  -3.788   1.097  0.00  0.00    +0.050 A 
ATOM     22  C   UNL     1       9.559  -4.433  -0.108  0.00  0.00    +0.162 A 
ATOM     23  C   UNL     1       9.320  -3.773  -1.305  0.00  0.00    +0.162 A 
ATOM     24  C   UNL     1       8.851  -2.470  -1.297  0.00  0.00    +0.054 A 
ATOM     25  O   UNL     1       9.545  -4.417  -2.486  0.00  0.00    -0.488 OA
ATOM     26  C   UNL     1      10.911  -4.701  -2.794  0.00  0.00    +0.232 C 
ATOM     27  C   UNL     1      11.355  -5.996  -2.131  0.00  0.00    +0.082 C 
ATOM     28  C   UNL     1      11.346  -5.903  -0.614  0.00  0.00    +0.232 C 
ATOM     29  O   UNL     1      10.015  -5.719  -0.126  0.00  0.00    -0.488 OA
ENDBRANCH  18  19
ENDBRANCH   3  18
TORSDOF 4
