REMARK  Name = ZINC35158910
REMARK  11 active torsions:
REMARK  status: ('A' for Active; 'I' for Inactive)
REMARK    1  A    between atoms: C_1  and  C_2
REMARK    2  A    between atoms: C_2  and  C_3
REMARK    3  A    between atoms: C_3  and  C_4
REMARK    4  A    between atoms: C_4  and  C_6
REMARK    5  A    between atoms: C_4  and  S_16
REMARK    6  A    between atoms: N_8  and  C_9
REMARK    7  A    between atoms: S_16  and  C_17
REMARK    8  A    between atoms: C_19  and  C_33
REMARK    9  A    between atoms: C_20  and  C_25
REMARK   10  A    between atoms: N_23  and  C_24
REMARK   11  A    between atoms: C_25  and  C_26
REMARK                            x       y       z     vdW  Elec       q    Type
REMARK                         _______ _______ _______ _____ _____    ______ ____
ROOT
ATOM      1  C   UNL     1       0.666  -1.785  -1.530  0.00  0.00    +0.172 A 
ATOM      2  N   UNL     1      -0.292  -0.918  -1.264  0.00  0.00    -0.228 NA
ATOM      3  C   UNL     1      -0.979  -0.325  -2.236  0.00  0.00    +0.050 A 
ATOM      4  C   UNL     1      -0.701  -0.608  -3.542  0.00  0.00    +0.042 A 
ATOM      5  C   UNL     1       0.318  -1.531  -3.836  0.00  0.00    +0.258 A 
ATOM      6  O   UNL     1       0.592  -1.807  -4.993  0.00  0.00    -0.267 OA
ATOM      7  N   UNL     1       0.991  -2.102  -2.814  0.00  0.00    -0.291 N 
ATOM      8  C   UNL     1       2.062  -3.064  -3.086  0.00  0.00    +0.154 C 
ATOM      9  C   UNL     1      -2.067   0.661  -1.895  0.00  0.00    +0.066 C 
ENDROOT
BRANCH   1  10
ATOM     10  S   UNL     1       1.545  -2.541  -0.203  0.00  0.00    -0.075 S 
BRANCH  10  11
ATOM     11  C   UNL     1       0.689  -1.949   1.283  0.00  0.00    +0.140 C 
BRANCH  11  12
ATOM     12  C   UNL     1      -0.680  -2.575   1.356  0.00  0.00    +0.231 C 
ATOM     13  O   UNL     1      -0.893  -3.635   0.807  0.00  0.00    -0.274 OA
ATOM     14  N   UNL     1      -1.668  -1.956   2.033  0.00  0.00    -0.282 N 
ATOM     15  H   UNL     1      -1.479  -1.149   2.537  0.00  0.00    +0.155 HD
BRANCH  14  16
ATOM     16  C   UNL     1      -2.968  -2.478   2.007  0.00  0.00    +0.069 A 
ATOM     17  C   UNL     1      -3.376  -3.278   0.949  0.00  0.00    +0.026 A 
ATOM     18  C   UNL     1      -4.658  -3.791   0.927  0.00  0.00    +0.002 A 
ATOM     19  C   UNL     1      -5.536  -3.510   1.957  0.00  0.00    +0.003 A 
ATOM     20  C   UNL     1      -5.135  -2.713   3.013  0.00  0.00    +0.040 A 
ATOM     21  C   UNL     1      -3.850  -2.200   3.045  0.00  0.00    +0.144 A 
ATOM     22  F   UNL     1      -3.456  -1.426   4.080  0.00  0.00    -0.204 F 
ENDBRANCH  14  16
ENDBRANCH  11  12
BRANCH  11  23
ATOM     23  C   UNL     1       1.495  -2.338   2.524  0.00  0.00    +0.024 C 
BRANCH  23  25
ATOM     24  C   UNL     1       3.580  -1.881   3.822  0.00  0.00    +0.004 C 
ATOM     25  C   UNL     1       2.828  -1.589   2.522  0.00  0.00    -0.002 C 
ENDBRANCH  23  25
ENDBRANCH  11  23
ENDBRANCH  10  11
ENDBRANCH   1  10
BRANCH   4  26
ATOM     26  C   UNL     1      -1.475   0.058  -4.651  0.00  0.00    +0.077 C 
BRANCH  26  27
ATOM     27  C   UNL     1      -0.721   1.271  -5.132  0.00  0.00    -0.043 A 
ATOM     28  C   UNL     1      -0.944   2.502  -4.543  0.00  0.00    +0.005 A 
ATOM     29  C   UNL     1      -0.252   3.614  -4.983  0.00  0.00    +0.015 A 
ATOM     30  C   UNL     1       0.664   3.496  -6.013  0.00  0.00    +0.018 A 
ATOM     31  C   UNL     1       0.887   2.265  -6.602  0.00  0.00    +0.015 A 
ATOM     32  C   UNL     1       0.199   1.152  -6.157  0.00  0.00    +0.005 A 
ATOM     33 BR   UNL     1       1.610   5.018  -6.616  0.00  0.00    -0.050 Br
ENDBRANCH  26  27
ENDBRANCH   4  26
TORSDOF 8
