REMARK  Name = ZINC11550362
REMARK  8 active torsions:
REMARK  status: ('A' for Active; 'I' for Inactive)
REMARK    1  A    between atoms: C_1  and  C_2
REMARK    2  A    between atoms: C_8  and  C_10
REMARK    3  A    between atoms: C_11  and  C_28
REMARK    4  A    between atoms: C_16  and  C_18
REMARK    5  A    between atoms: C_21  and  C_24
REMARK    6  A    between atoms: C_24  and  C_25
REMARK    7  A    between atoms: C_24  and  C_26
REMARK    8  A    between atoms: C_24  and  C_27
REMARK                            x       y       z     vdW  Elec       q    Type
REMARK                         _______ _______ _______ _____ _____    ______ ____
ROOT
ATOM      1  C   UNL     1      -1.100   2.825  -0.164  0.00  0.00    +0.056 C 
ATOM      2  C   UNL     1      -0.970   1.503   0.074  0.00  0.00    +0.017 C 
ATOM      3  N   UNL     1       0.243   0.958   0.383  0.00  0.00    -0.300 N 
ATOM      4  C   UNL     1       1.376   1.666   0.464  0.00  0.00    +0.135 C 
ATOM      5  S   UNL     1       2.833   0.856   0.855  0.00  0.00    -0.019 S 
ATOM      6  N   UNL     1       1.408   2.996   0.247  0.00  0.00    -0.315 N 
ATOM      7  C   UNL     1       0.148   3.681  -0.088  0.00  0.00    +0.139 C 
ATOM      8  C   UNL     1      -2.186   0.615   0.003  0.00  0.00    +0.061 C 
ATOM      9  H   UNL     1       0.286   0.003   0.550  0.00  0.00    +0.154 HD
ATOM     10  H   UNL     1       2.240   3.490   0.310  0.00  0.00    +0.149 HD
ENDROOT
BRANCH   1  18
ATOM     11  C   UNL     1      -7.038   5.979  -1.633  0.00  0.00    +0.089 C 
ATOM     12  C   UNL     1      -5.896   5.071  -2.008  0.00  0.00    +0.136 A 
ATOM     13  C   UNL     1      -4.854   4.717  -1.223  0.00  0.00    +0.091 A 
ATOM     14  C   UNL     1      -4.078   3.860  -2.049  0.00  0.00    +0.168 A 
ATOM     15  N   UNL     1      -4.702   3.795  -3.195  0.00  0.00    -0.063 NA
ATOM     16  O   UNL     1      -5.715   4.456  -3.186  0.00  0.00    -0.358 OA
ATOM     17  N   UNL     1      -2.886   3.222  -1.707  0.00  0.00    -0.264 N 
ATOM     18  C   UNL     1      -2.358   3.393  -0.479  0.00  0.00    +0.249 C 
ATOM     19  O   UNL     1      -2.964   4.035   0.360  0.00  0.00    -0.270 OA
ATOM     20  H   UNL     1      -2.437   2.655  -2.354  0.00  0.00    +0.157 HD
ENDBRANCH   1  18
BRANCH   7  21
ATOM     21  C   UNL     1       0.329   4.359  -1.422  0.00  0.00    -0.023 A 
ATOM     22  C   UNL     1       0.918   3.676  -2.470  0.00  0.00    +0.006 A 
ATOM     23  C   UNL     1       1.079   4.296  -3.695  0.00  0.00    +0.004 A 
ATOM     24  C   UNL     1       0.660   5.602  -3.869  0.00  0.00    -0.042 A 
ATOM     25  C   UNL     1       0.077   6.286  -2.820  0.00  0.00    +0.004 A 
ATOM     26  C   UNL     1      -0.089   5.665  -1.597  0.00  0.00    +0.006 A 
BRANCH  24  27
ATOM     27  C   UNL     1       0.841   6.279  -5.204  0.00  0.00    -0.013 C 
ATOM     28  C   UNL     1       1.725   7.516  -5.032  0.00  0.00    +0.015 C 
ATOM     29  C   UNL     1       1.506   5.309  -6.182  0.00  0.00    +0.015 C 
ATOM     30  C   UNL     1      -0.524   6.700  -5.751  0.00  0.00    +0.015 C 
ENDBRANCH  24  27
ENDBRANCH   7  21
TORSDOF 3
