REMARK  Name = ZINC12541085
REMARK  10 active torsions:
REMARK  status: ('A' for Active; 'I' for Inactive)
REMARK    1  A    between atoms: C_1  and  S_2
REMARK    2  A    between atoms: S_2  and  C_3
REMARK    3  A    between atoms: C_3  and  C_4
REMARK    4  A    between atoms: C_4  and  C_5
REMARK    5  A    between atoms: C_5  and  C_7
REMARK    6  A    between atoms: C_5  and  N_26
REMARK    7  A    between atoms: N_9  and  C_10
REMARK    8  A    between atoms: C_13  and  C_16
REMARK    9  A    between atoms: N_26  and  S_27
REMARK   10  A    between atoms: S_27  and  C_30
REMARK                            x       y       z     vdW  Elec       q    Type
REMARK                         _______ _______ _______ _____ _____    ______ ____
ROOT
ATOM      1  C   UNL     1       4.354  -2.433  -4.412  0.00  0.00    +0.236 C 
ATOM      2  O   UNL     1       4.939  -2.334  -5.470  0.00  0.00    -0.274 OA
ATOM      3  N   UNL     1       4.119  -3.650  -3.884  0.00  0.00    -0.284 N 
ATOM      4  H   UNL     1       3.585  -3.734  -3.078  0.00  0.00    +0.155 HD
ENDROOT
BRANCH   3   5
ATOM      5  C   UNL     1       4.644  -4.793  -4.497  0.00  0.00    +0.033 A 
ATOM      6  C   UNL     1       3.944  -5.991  -4.452  0.00  0.00    +0.023 A 
ATOM      7  C   UNL     1       4.463  -7.116  -5.063  0.00  0.00    +0.006 A 
ATOM      8  C   UNL     1       5.683  -7.052  -5.710  0.00  0.00    -0.041 A 
ATOM      9  C   UNL     1       6.385  -5.862  -5.752  0.00  0.00    +0.006 A 
ATOM     10  C   UNL     1       5.869  -4.732  -5.148  0.00  0.00    +0.023 A 
BRANCH   8  11
ATOM     11  C   UNL     1       6.249  -8.283  -6.371  0.00  0.00    -0.003 C 
ATOM     12  C   UNL     1       7.599  -8.626  -5.738  0.00  0.00    +0.015 C 
ATOM     13  C   UNL     1       8.174  -9.876  -6.408  0.00  0.00    -0.010 C 
ATOM     14  C   UNL     1       7.208 -11.047  -6.217  0.00  0.00    +0.007 C 
ATOM     15  C   UNL     1       5.858 -10.704  -6.850  0.00  0.00    -0.010 C 
ATOM     16  C   UNL     1       5.283  -9.454  -6.180  0.00  0.00    +0.015 C 
ATOM     17  C   UNL     1       6.048 -10.438  -8.345  0.00  0.00    +0.007 C 
ATOM     18  C   UNL     1       7.014  -9.267  -8.536  0.00  0.00    -0.010 C 
ATOM     19  C   UNL     1       8.364  -9.611  -7.903  0.00  0.00    +0.007 C 
ATOM     20  C   UNL     1       6.439  -8.018  -7.865  0.00  0.00    +0.015 C 
ENDBRANCH   8  11
ENDBRANCH   3   5
BRANCH   1  21
ATOM     21  C   UNL     1       3.889  -1.195  -3.689  0.00  0.00    +0.163 C 
BRANCH  21  22
ATOM     22  N   UNL     1       4.263  -0.009  -4.463  0.00  0.00    -0.178 NA
ATOM     23  H   UNL     1       5.152   0.369  -4.373  0.00  0.00    +0.149 HD
BRANCH  22  24
ATOM     24  S   UNL     1       3.167   0.689  -5.490  0.00  0.00    +0.059 S 
ATOM     25  O   UNL     1       2.614  -0.364  -6.269  0.00  0.00    -0.153 OA
ATOM     26  O   UNL     1       3.815   1.810  -6.075  0.00  0.00    -0.153 OA
BRANCH  24  27
ATOM     27  C   UNL     1       1.856   1.325  -4.500  0.00  0.00    +0.105 A 
ATOM     28  C   UNL     1       1.969   2.577  -3.925  0.00  0.00    +0.030 A 
ATOM     29  C   UNL     1       0.941   3.077  -3.149  0.00  0.00    +0.022 A 
ATOM     30  C   UNL     1      -0.202   2.323  -2.946  0.00  0.00    +0.041 A 
ATOM     31  C   UNL     1      -0.314   1.070  -3.521  0.00  0.00    +0.022 A 
ATOM     32  C   UNL     1       0.715   0.571  -4.297  0.00  0.00    +0.030 A 
ATOM     33 CL   UNL     1      -1.494   2.950  -1.970  0.00  0.00    -0.084 Cl
ENDBRANCH  24  27
ENDBRANCH  22  24
ENDBRANCH  21  22
BRANCH  21  34
ATOM     34  C   UNL     1       4.549  -1.133  -2.310  0.00  0.00    +0.040 C 
BRANCH  34  35
ATOM     35  C   UNL     1       3.979   0.051  -1.525  0.00  0.00    +0.071 C 
BRANCH  35  37
ATOM     36  C   UNL     1       3.971   1.534   0.919  0.00  0.00    +0.084 C 
ATOM     37  S   UNL     1       4.853   0.204   0.057  0.00  0.00    -0.164 S 
ENDBRANCH  35  37
ENDBRANCH  34  35
ENDBRANCH  21  34
ENDBRANCH   1  21
TORSDOF 9
