REMARK  Name = ZINC03503509
REMARK  7 active torsions:
REMARK  status: ('A' for Active; 'I' for Inactive)
REMARK    1  A    between atoms: C_4  and  N_10
REMARK    2  A    between atoms: C_6  and  N_7
REMARK    3  A    between atoms: C_11  and  C_13
REMARK    4  A    between atoms: C_13  and  O_14
REMARK    5  A    between atoms: O_14  and  C_15
REMARK    6  A    between atoms: C_15  and  C_17
REMARK    7  A    between atoms: C_22  and  N_23
REMARK                            x       y       z     vdW  Elec       q    Type
REMARK                         _______ _______ _______ _____ _____    ______ ____
ROOT
ATOM      1  C   UNL     1      -4.713   4.788   0.185  0.00  0.00    +0.328 C 
ENDROOT
BRANCH   1   3
ATOM      2  N   UNL     1      -7.159   4.446   0.329  0.00  0.00    -0.280 N 
ATOM      3  C   UNL     1      -5.927   3.901   0.301  0.00  0.00    +0.255 C 
ATOM      4  O   UNL     1      -5.794   2.697   0.369  0.00  0.00    -0.272 OA
ATOM      5  H   UNL     1      -7.271   5.400   0.194  0.00  0.00    +0.155 HD
BRANCH   2   9
ATOM      6  C   UNL     1     -10.490   2.031   0.997  0.00  0.00    +0.035 A 
ATOM      7  C   UNL     1     -10.631   3.224   0.312  0.00  0.00    +0.042 A 
ATOM      8  C   UNL     1      -9.529   4.028   0.088  0.00  0.00    +0.145 A 
ATOM      9  C   UNL     1      -8.278   3.635   0.553  0.00  0.00    +0.071 A 
ATOM     10  C   UNL     1      -8.142   2.434   1.235  0.00  0.00    +0.059 A 
ATOM     11  C   UNL     1      -9.248   1.638   1.460  0.00  0.00    +0.128 A 
ATOM     12  F   UNL     1      -9.666   5.194  -0.581  0.00  0.00    -0.204 F 
BRANCH  11  13
ATOM     13  N   UNL     1      -9.103   0.359   2.192  0.00  0.00    +0.056 N 
ATOM     14  O   UNL     1     -10.077  -0.345   2.386  0.00  0.00    -0.126 OA
ATOM     15  O   UNL     1      -8.009   0.012   2.600  0.00  0.00    -0.126 OA
ENDBRANCH  11  13
ENDBRANCH   2   9
ENDBRANCH   1   3
BRANCH   1  16
ATOM     16  O   UNL     1      -3.515   3.969   0.176  0.00  0.00    -0.452 OA
BRANCH  16  17
ATOM     17  C   UNL     1      -2.335   4.612   0.077  0.00  0.00    +0.342 C 
ATOM     18  O   UNL     1      -2.308   5.825   0.001  0.00  0.00    -0.245 OA
BRANCH  17  19
ATOM     19  C   UNL     1      -1.077   3.846   0.061  0.00  0.00    +0.082 A 
ATOM     20  C   UNL     1      -1.105   2.448   0.040  0.00  0.00    +0.037 A 
ATOM     21  C   UNL     1       0.075   1.736   0.031  0.00  0.00    +0.043 A 
ATOM     22  C   UNL     1       1.293   2.400   0.032  0.00  0.00    +0.042 A 
ATOM     23  C   UNL     1       1.338   3.779   0.048  0.00  0.00    +0.064 A 
ATOM     24  C   UNL     1       0.157   4.514   0.063  0.00  0.00    +0.057 A 
ATOM     25 CL   UNL     1       2.869   4.598   0.050  0.00  0.00    -0.082 Cl
ATOM     26 CL   UNL     1       0.037   0.001   0.011  0.00  0.00    -0.083 Cl
BRANCH  24  27
ATOM     27  N   UNL     1       0.199   5.903   0.079  0.00  0.00    -0.356 N 
ATOM     28  H   UNL     1       1.050   6.362   0.155  0.00  0.00    +0.142 HD
ATOM     29  H   UNL     1      -0.623   6.414   0.014  0.00  0.00    +0.142 HD
ENDBRANCH  24  27
ENDBRANCH  17  19
ENDBRANCH  16  17
ENDBRANCH   1  16
TORSDOF 7
