REMARK  Name = ZINC39899039
REMARK  7 active torsions:
REMARK  status: ('A' for Active; 'I' for Inactive)
REMARK    1  A    between atoms: C_1  and  C_2
REMARK    2  A    between atoms: C_2  and  C_3
REMARK    3  A    between atoms: C_6  and  C_9
REMARK    4  A    between atoms: C_12  and  C_28
REMARK    5  A    between atoms: N_19  and  C_20
REMARK    6  A    between atoms: C_20  and  C_21
REMARK    7  A    between atoms: C_33  and  O_34
REMARK                            x       y       z     vdW  Elec       q    Type
REMARK                         _______ _______ _______ _____ _____    ______ ____
ROOT
ATOM      1  C   UNL     1      -5.390  -2.000   0.023  0.00  0.00    +0.142 C 
ATOM      2  C   UNL     1      -5.425  -3.455  -0.355  0.00  0.00    +0.035 A 
ATOM      3  C   UNL     1      -5.018  -4.761  -0.060  0.00  0.00    +0.102 A 
ATOM      4  N   UNL     1      -5.529  -5.552  -0.983  0.00  0.00    -0.173 NA
ATOM      5  N   UNL     1      -6.218  -4.875  -1.832  0.00  0.00    -0.272 N 
ATOM      6  H   UNL     1      -6.684  -5.250  -2.595  0.00  0.00    +0.189 HD
ATOM      7  C   UNL     1      -6.195  -3.551  -1.499  0.00  0.00    +0.126 A 
ATOM      8  C   UNL     1      -6.655  -2.206  -1.864  0.00  0.00    +0.266 C 
ATOM      9  O   UNL     1      -7.355  -1.950  -2.825  0.00  0.00    -0.268 OA
ATOM     10  N   UNL     1      -6.193  -1.297  -0.986  0.00  0.00    -0.281 N 
ENDROOT
BRANCH   3  11
ATOM     11  C   UNL     1      -4.168  -5.179   1.083  0.00  0.00    +0.045 A 
ATOM     12  C   UNL     1      -3.799  -4.253   2.055  0.00  0.00    +0.033 A 
ATOM     13  C   UNL     1      -3.007  -4.647   3.116  0.00  0.00    +0.042 A 
ATOM     14  C   UNL     1      -2.579  -5.960   3.217  0.00  0.00    +0.023 A 
ATOM     15  C   UNL     1      -2.940  -6.886   2.256  0.00  0.00    +0.047 A 
ATOM     16  C   UNL     1      -3.739  -6.505   1.190  0.00  0.00    +0.126 A 
ATOM     17 CL   UNL     1      -2.547  -3.492   4.328  0.00  0.00    -0.084 Cl
BRANCH  16  18
ATOM     18  O   UNL     1      -4.099  -7.416   0.249  0.00  0.00    -0.506 OA
ATOM     19  H   UNL     1      -3.480  -7.483  -0.491  0.00  0.00    +0.292 HD
ENDBRANCH  16  18
ENDBRANCH   3  11
BRANCH   1  23
ATOM     20  C   UNL     1      -1.369  -0.559  -0.034  0.00  0.00    -0.048 A 
ATOM     21  C   UNL     1      -1.965  -0.991  -1.204  0.00  0.00    +0.004 A 
ATOM     22  C   UNL     1      -3.266  -1.458  -1.185  0.00  0.00    +0.006 A 
ATOM     23  C   UNL     1      -3.971  -1.492   0.003  0.00  0.00    -0.022 A 
ATOM     24  C   UNL     1      -3.375  -1.061   1.173  0.00  0.00    +0.006 A 
ATOM     25  C   UNL     1      -2.072  -0.598   1.155  0.00  0.00    +0.004 A 
BRANCH  20  27
ATOM     26  C   UNL     1       1.012  -1.216   0.180  0.00  0.00    +0.009 C 
ATOM     27  C   UNL     1       0.049  -0.050  -0.054  0.00  0.00    +0.032 C 
ENDBRANCH  20  27
ENDBRANCH   1  23
BRANCH  10  28
ATOM     28  C   UNL     1      -6.447   0.145  -1.027  0.00  0.00    +0.144 C 
BRANCH  28  29
ATOM     29  C   UNL     1      -5.372   0.821  -1.840  0.00  0.00    -0.030 A 
ATOM     30  C   UNL     1      -4.220   1.271  -1.223  0.00  0.00    +0.008 A 
ATOM     31  C   UNL     1      -3.234   1.890  -1.967  0.00  0.00    +0.038 A 
ATOM     32  C   UNL     1      -3.400   2.061  -3.331  0.00  0.00    +0.123 A 
ATOM     33  C   UNL     1      -4.555   1.611  -3.947  0.00  0.00    +0.038 A 
ATOM     34  C   UNL     1      -5.538   0.987  -3.202  0.00  0.00    +0.008 A 
ATOM     35  F   UNL     1      -2.437   2.667  -4.059  0.00  0.00    -0.205 F 
ENDBRANCH  28  29
ENDBRANCH  10  28
TORSDOF 6
