REMARK  Name = ZINC63162024
REMARK  5 active torsions:
REMARK  status: ('A' for Active; 'I' for Inactive)
REMARK    1  A    between atoms: C_7  and  C_11
REMARK    2  A    between atoms: C_11  and  C_12
REMARK    3  A    between atoms: C_12  and  N_13
REMARK    4  A    between atoms: N_16  and  C_17
REMARK    5  A    between atoms: C_19  and  C_25
REMARK                            x       y       z     vdW  Elec       q    Type
REMARK                         _______ _______ _______ _____ _____    ______ ____
ROOT
ATOM      1  N   UNL     1      -0.543  -4.838  -1.485  0.00  0.00    -0.299 N 
ATOM      2  C   UNL     1      -1.060  -5.308  -2.637  0.00  0.00    +0.304 C 
ATOM      3  O   UNL     1      -0.658  -4.882  -3.703  0.00  0.00    -0.253 OA
ATOM      4  N   UNL     1      -2.024  -6.250  -2.609  0.00  0.00    -0.265 N 
ATOM      5  H   UNL     1      -0.864  -5.178  -0.635  0.00  0.00    +0.150 HD
ATOM      6  H   UNL     1      -2.293  -6.644  -1.764  0.00  0.00    +0.157 HD
ENDROOT
BRANCH   4   7
ATOM      7  C   UNL     1      -2.637  -6.662  -3.801  0.00  0.00    +0.100 A 
ATOM      8  C   UNL     1      -2.598  -7.975  -4.182  0.00  0.00    +0.042 A 
ATOM      9  C   UNL     1      -3.220  -8.360  -5.378  0.00  0.00    +0.073 A 
ATOM     10  C   UNL     1      -3.849  -7.437  -6.141  0.00  0.00    +0.098 A 
ATOM     11  N   UNL     1      -3.889  -6.132  -5.764  0.00  0.00    -0.327 N 
ATOM     12  H   UNL     1      -4.346  -5.485  -6.325  0.00  0.00    +0.168 HD
ATOM     13  C   UNL     1      -3.308  -5.727  -4.619  0.00  0.00    +0.270 A 
ATOM     14  O   UNL     1      -3.357  -4.552  -4.291  0.00  0.00    -0.266 OA
BRANCH   9  15
ATOM     15  C   UNL     1      -3.186  -9.802  -5.814  0.00  0.00    +0.419 C 
ATOM     16  F   UNL     1      -3.868  -9.938  -7.028  0.00  0.00    -0.166 F 
ATOM     17  F   UNL     1      -1.857 -10.209  -5.978  0.00  0.00    -0.166 F 
ATOM     18  F   UNL     1      -3.801 -10.598  -4.842  0.00  0.00    -0.166 F 
ENDBRANCH   9  15
ENDBRANCH   4   7
BRANCH   1  19
ATOM     19  C   UNL     1       0.504  -3.814  -1.516  0.00  0.00    +0.110 C 
BRANCH  19  20
ATOM     20  C   UNL     1       0.913  -3.460  -0.085  0.00  0.00    +0.056 C 
BRANCH  20  27
ATOM     21  C   UNL     1       0.817   1.218  -0.375  0.00  0.00    +0.001 A 
ATOM     22  C   UNL     1       2.083   1.786  -0.371  0.00  0.00    +0.002 A 
ATOM     23  C   UNL     1       3.208   0.995  -0.287  0.00  0.00    +0.026 A 
ATOM     24  C   UNL     1       3.076  -0.387  -0.207  0.00  0.00    +0.047 A 
ATOM     25  C   UNL     1       1.790  -0.958  -0.211  0.00  0.00    +0.003 A 
ATOM     26  C   UNL     1       0.664  -0.137  -0.297  0.00  0.00    +0.010 A 
ATOM     27  C   UNL     1       1.990  -2.406  -0.116  0.00  0.00    -0.021 A 
ATOM     28  C   UNL     1       3.315  -2.617  -0.062  0.00  0.00    +0.087 A 
ATOM     29  N   UNL     1       3.980  -1.422  -0.115  0.00  0.00    -0.360 N 
ATOM     30  H   UNL     1       4.944  -1.319  -0.091  0.00  0.00    +0.165 HD
ENDBRANCH  20  27
ENDBRANCH  19  20
ENDBRANCH   1  19
TORSDOF 5
