REMARK  Name = ZINC09538374
REMARK  9 active torsions:
REMARK  status: ('A' for Active; 'I' for Inactive)
REMARK    1  A    between atoms: C_1  and  C_2
REMARK    2  A    between atoms: C_2  and  N_3
REMARK    3  A    between atoms: C_7  and  C_9
REMARK    4  A    between atoms: C_9  and  S_10
REMARK    5  A    between atoms: S_10  and  C_11
REMARK    6  A    between atoms: N_21  and  C_22
REMARK    7  A    between atoms: C_27  and  C_28
REMARK    8  A    between atoms: C_28  and  C_29
REMARK    9  A    between atoms: C_28  and  C_30
REMARK                            x       y       z     vdW  Elec       q    Type
REMARK                         _______ _______ _______ _____ _____    ______ ____
ROOT
ATOM      1  C   UNL     1      -3.058   4.168  -1.133  0.00  0.00    +0.177 A 
ATOM      2  N   UNL     1      -4.202   4.804  -1.193  0.00  0.00    -0.223 NA
ATOM      3  C   UNL     1      -4.864   5.176  -0.073  0.00  0.00    +0.080 A 
ATOM      4  C   UNL     1      -6.082   5.859  -0.136  0.00  0.00    +0.048 A 
ATOM      5  C   UNL     1      -6.721   6.217   1.031  0.00  0.00    +0.043 A 
ATOM      6  C   UNL     1      -6.169   5.907   2.269  0.00  0.00    +0.021 A 
ATOM      7  C   UNL     1      -4.979   5.239   2.356  0.00  0.00    +0.017 A 
ATOM      8  C   UNL     1      -4.311   4.865   1.191  0.00  0.00    +0.065 A 
ATOM      9  C   UNL     1      -3.031   4.146   1.229  0.00  0.00    +0.267 A 
ATOM     10  O   UNL     1      -2.505   3.851   2.287  0.00  0.00    -0.267 OA
ATOM     11  N   UNL     1      -2.457   3.824   0.047  0.00  0.00    -0.255 N 
ATOM     12 CL   UNL     1      -8.233   7.066   0.955  0.00  0.00    -0.083 Cl
ENDROOT
BRANCH  11  13
ATOM     13  C   UNL     1      -1.236   3.138   0.031  0.00  0.00    +0.055 A 
ATOM     14  C   UNL     1      -1.218   1.749   0.017  0.00  0.00    +0.026 A 
ATOM     15  C   UNL     1      -0.013   1.076   0.008  0.00  0.00    +0.002 A 
ATOM     16  C   UNL     1       1.176   1.783   0.000  0.00  0.00    +0.000 A 
ATOM     17  C   UNL     1       1.161   3.165   0.008  0.00  0.00    +0.006 A 
ATOM     18  C   UNL     1      -0.041   3.845   0.024  0.00  0.00    -0.021 A 
BRANCH  18  19
ATOM     19  C   UNL     1      -0.056   5.352   0.033  0.00  0.00    +0.015 C 
ATOM     20  C   UNL     1       0.672   5.861   1.278  0.00  0.00    +0.012 C 
ATOM     21  C   UNL     1       0.648   5.876  -1.220  0.00  0.00    +0.012 C 
ENDBRANCH  18  19
ENDBRANCH  11  13
BRANCH   1  22
ATOM     22  S   UNL     1      -2.260   3.729  -2.641  0.00  0.00    -0.078 S 
BRANCH  22  23
ATOM     23  C   UNL     1      -3.446   4.402  -3.832  0.00  0.00    +0.173 C 
BRANCH  23  28
ATOM     24  N   UNL     1      -3.974   4.726  -8.599  0.00  0.00    -0.299 N 
ATOM     25  C   UNL     1      -3.247   4.312  -7.542  0.00  0.00    +0.306 C 
ATOM     26  O   UNL     1      -2.198   3.724  -7.718  0.00  0.00    -0.252 OA
ATOM     27  N   UNL     1      -3.684   4.550  -6.289  0.00  0.00    -0.240 N 
ATOM     28  C   UNL     1      -2.957   4.136  -5.232  0.00  0.00    +0.231 C 
ATOM     29  O   UNL     1      -1.911   3.549  -5.408  0.00  0.00    -0.274 OA
ATOM     30  H   UNL     1      -4.923   5.258  -8.439  0.00  0.00    +0.150 HD
ATOM     31  H   UNL     1      -4.633   5.082  -6.130  0.00  0.00    +0.159 HD
BRANCH  24  33
ATOM     32  C   UNL     1      -4.501   5.036 -10.967  0.00  0.00    +0.024 C 
ATOM     33  C   UNL     1      -3.499   4.468  -9.960  0.00  0.00    +0.102 C 
ENDBRANCH  24  33
ENDBRANCH  23  28
ENDBRANCH  22  23
ENDBRANCH   1  22
TORSDOF 6
