REMARK  Name = ZINC21706065
REMARK  6 active torsions:
REMARK  status: ('A' for Active; 'I' for Inactive)
REMARK    1  A    between atoms: C_1  and  C_2
REMARK    2  A    between atoms: C_2  and  C_3
REMARK    3  A    between atoms: C_3  and  C_27
REMARK    4  A    between atoms: N_6  and  C_10
REMARK    5  A    between atoms: C_10  and  C_11
REMARK    6  A    between atoms: N_16  and  C_17
REMARK                            x       y       z     vdW  Elec       q    Type
REMARK                         _______ _______ _______ _____ _____    ______ ____
ROOT
ATOM      1  C   UNL     1      -2.526   4.085   0.036  0.00  0.00    +0.214 C 
ENDROOT
BRANCH   1   5
ATOM      2  C   UNL     1      -1.910   7.695  -0.581  0.00  0.00    +0.138 C 
ATOM      3  C   UNL     1      -2.155   6.281  -1.069  0.00  0.00    +0.251 C 
ATOM      4  O   UNL     1      -2.225   5.904  -2.219  0.00  0.00    -0.272 OA
ATOM      5  N   UNL     1      -2.278   5.529   0.043  0.00  0.00    -0.215 N 
ATOM      6  C   UNL     1      -2.151   6.264   1.153  0.00  0.00    +0.310 C 
ATOM      7  O   UNL     1      -2.228   5.809   2.278  0.00  0.00    -0.252 OA
ATOM      8  N   UNL     1      -1.925   7.563   0.886  0.00  0.00    -0.281 N 
ATOM      9  H   UNL     1      -1.766   8.448   1.519  0.00  0.00    +0.152 HD
BRANCH   2  10
ATOM     10  C   UNL     1      -0.571   8.196  -1.058  0.00  0.00    -0.015 A 
ATOM     11  C   UNL     1      -0.473   8.864  -2.264  0.00  0.00    +0.007 A 
ATOM     12  C   UNL     1       0.754   9.329  -2.700  0.00  0.00    +0.020 A 
ATOM     13  C   UNL     1       1.885   9.115  -1.934  0.00  0.00    +0.041 A 
ATOM     14  C   UNL     1       1.788   8.441  -0.729  0.00  0.00    +0.020 A 
ATOM     15  C   UNL     1       0.560   7.982  -0.292  0.00  0.00    +0.007 A 
ATOM     16 CL   UNL     1       3.428   9.691  -2.483  0.00  0.00    -0.084 Cl
ENDBRANCH   2  10
BRANCH   2  18
ATOM     17  C   UNL     1      -4.351   8.199  -0.407  0.00  0.00    +0.007 C 
ATOM     18  C   UNL     1      -3.030   8.627  -1.049  0.00  0.00    +0.037 C 
ENDBRANCH   2  18
ENDBRANCH   1   5
BRANCH   1  19
ATOM     19  C   UNL     1      -1.211   3.349   0.026  0.00  0.00    +0.238 C 
ATOM     20  O   UNL     1      -0.169   3.970   0.024  0.00  0.00    -0.274 OA
ATOM     21  N   UNL     1      -1.192   2.002   0.019  0.00  0.00    -0.239 N 
ATOM     22  C   UNL     1      -0.016   1.344   0.009  0.00  0.00    +0.306 C 
ATOM     23  O   UNL     1       1.028   1.966   0.003  0.00  0.00    -0.252 OA
ATOM     24  N   UNL     1       0.002  -0.004   0.002  0.00  0.00    -0.294 N 
ATOM     25  H   UNL     1      -2.138   1.439   0.020  0.00  0.00    +0.159 HD
ATOM     26  H   UNL     1      -0.943  -0.567   0.008  0.00  0.00    +0.151 HD
BRANCH  24  27
ATOM     27  C   UNL     1       1.281  -0.719  -0.014  0.00  0.00    +0.037 C 
ATOM     28  C   UNL     1       2.090  -0.345   1.230  0.00  0.00    +0.029 C 
ATOM     29  C   UNL     1       3.425  -1.092   1.213  0.00  0.00    -0.008 C 
ATOM     30  C   UNL     1       3.166  -2.600   1.207  0.00  0.00    +0.007 C 
ATOM     31  C   UNL     1       2.357  -2.974  -0.036  0.00  0.00    -0.008 C 
ATOM     32  C   UNL     1       1.021  -2.227  -0.020  0.00  0.00    +0.029 C 
ATOM     33  C   UNL     1       3.142  -2.587  -1.291  0.00  0.00    +0.007 C 
ATOM     34  C   UNL     1       3.401  -1.079  -1.286  0.00  0.00    -0.008 C 
ATOM     35  C   UNL     1       4.210  -0.705  -0.042  0.00  0.00    +0.007 C 
ATOM     36  C   UNL     1       2.066  -0.332  -1.269  0.00  0.00    +0.029 C 
ENDBRANCH  24  27
ENDBRANCH   1  19
TORSDOF 5
