REMARK  Name = ZINC03670278
REMARK  7 active torsions:
REMARK  status: ('A' for Active; 'I' for Inactive)
REMARK    1  A    between atoms: C_1  and  C_2
REMARK    2  A    between atoms: C_2  and  C_3
REMARK    3  A    between atoms: C_3  and  C_5
REMARK    4  A    between atoms: C_3  and  N_6
REMARK    5  A    between atoms: C_7  and  C_9
REMARK    6  A    between atoms: C_9  and  O_26
REMARK    7  A    between atoms: N_19  and  C_20
REMARK                            x       y       z     vdW  Elec       q    Type
REMARK                         _______ _______ _______ _____ _____    ______ ____
ROOT
ATOM      1  C   UNL     1      -1.889   0.658   0.057  0.00  0.00    +0.247 C 
ATOM      2  C   UNL     1      -2.055  -0.037  -1.274  0.00  0.00    +0.033 A 
ATOM      3  C   UNL     1      -1.514   0.486  -2.426  0.00  0.00    +0.010 A 
ATOM      4  C   UNL     1      -1.685  -0.179  -3.629  0.00  0.00    +0.001 A 
ATOM      5  C   UNL     1      -2.397  -1.363  -3.669  0.00  0.00    +0.002 A 
ATOM      6  C   UNL     1      -2.942  -1.891  -2.514  0.00  0.00    +0.024 A 
ATOM      7  C   UNL     1      -2.772  -1.228  -1.306  0.00  0.00    +0.043 A 
ATOM      8  N   UNL     1      -3.314  -1.744  -0.128  0.00  0.00    -0.269 N 
ATOM      9  C   UNL     1      -3.178  -1.143   1.061  0.00  0.00    +0.314 C 
ATOM     10  O   UNL     1      -3.684  -1.665   2.035  0.00  0.00    -0.252 OA
ATOM     11  N   UNL     1      -2.508   0.012   1.227  0.00  0.00    -0.214 N 
ATOM     12  H   UNL     1      -3.811  -2.576  -0.173  0.00  0.00    +0.156 HD
ENDROOT
BRANCH  11  13
ATOM     13  C   UNL     1      -2.401   0.592   2.496  0.00  0.00    +0.041 A 
ATOM     14  C   UNL     1      -1.417   0.162   3.377  0.00  0.00    +0.024 A 
ATOM     15  C   UNL     1      -1.311   0.740   4.627  0.00  0.00    +0.002 A 
ATOM     16  C   UNL     1      -2.190   1.738   5.006  0.00  0.00    +0.000 A 
ATOM     17  C   UNL     1      -3.174   2.165   4.133  0.00  0.00    +0.002 A 
ATOM     18  C   UNL     1      -3.282   1.594   2.880  0.00  0.00    +0.024 A 
ENDBRANCH  11  13
BRANCH   1  20
ATOM     19  N   UNL     1       0.336  -0.300   0.557  0.00  0.00    -0.309 N 
ATOM     20  C   UNL     1      -0.413   0.796   0.329  0.00  0.00    +0.269 C 
ATOM     21  O   UNL     1       0.100   1.895   0.344  0.00  0.00    -0.270 OA
ATOM     22  H   UNL     1      -0.075  -1.179   0.546  0.00  0.00    +0.149 HD
BRANCH  19  23
ATOM     23  C   UNL     1       1.771  -0.166   0.815  0.00  0.00    +0.070 C 
ATOM     24  C   UNL     1       1.998   0.110   2.303  0.00  0.00    +0.028 C 
BRANCH  23  26
ATOM     25  C   UNL     1       2.362  -1.674  -1.087  0.00  0.00    +0.005 C 
ATOM     26  C   UNL     1       2.484  -1.462   0.423  0.00  0.00    +0.018 C 
ENDBRANCH  23  26
ENDBRANCH  19  23
ENDBRANCH   1  20
BRANCH   1  27
ATOM     27  O   UNL     1      -2.437   1.972  -0.061  0.00  0.00    -0.360 OA
ATOM     28  H   UNL     1      -2.048   2.498  -0.774  0.00  0.00    +0.213 HD
ENDBRANCH   1  27
TORSDOF 5
