REMARK  Name = ZINC43730809
REMARK  6 active torsions:
REMARK  status: ('A' for Active; 'I' for Inactive)
REMARK    1  A    between atoms: C_1  and  N_2
REMARK    2  A    between atoms: C_4  and  C_30
REMARK    3  A    between atoms: C_6  and  C_22
REMARK    4  A    between atoms: C_13  and  C_18
REMARK    5  A    between atoms: C_22  and  C_24
REMARK    6  A    between atoms: C_34  and  N_36
REMARK                            x       y       z     vdW  Elec       q    Type
REMARK                         _______ _______ _______ _____ _____    ______ ____
ROOT
ATOM      1  C   UNL     1       1.166   1.299   1.295  0.00  0.00    +0.106 C 
ATOM      2  N   UNL     1       0.753   0.024   0.695  0.00  0.00    -0.287 NA
ATOM      3  C   UNL     1      -0.702   0.011   0.425  0.00  0.00    +0.094 C 
ATOM      4  C   UNL     1      -1.135  -1.459   0.658  0.00  0.00    +0.046 C 
ATOM      5  C   UNL     1      -0.237  -1.866   1.858  0.00  0.00    +0.103 C 
ATOM      6  C   UNL     1       1.067  -1.101   1.582  0.00  0.00    +0.136 C 
ATOM      7  C   UNL     1       1.692  -0.630   2.868  0.00  0.00    +0.004 A 
ATOM      8  C   UNL     1       1.267   0.212   3.871  0.00  0.00    +0.008 A 
ATOM      9  C   UNL     1       2.085   0.459   4.960  0.00  0.00    +0.001 A 
ATOM     10  C   UNL     1       3.329  -0.142   5.036  0.00  0.00    +0.014 A 
ATOM     11  C   UNL     1       3.758  -0.985   4.033  0.00  0.00    +0.076 A 
ATOM     12  C   UNL     1       2.941  -1.239   2.933  0.00  0.00    +0.051 A 
ATOM     13  N   UNL     1       3.147  -2.039   1.808  0.00  0.00    -0.283 N 
ATOM     14  C   UNL     1       2.098  -2.013   0.966  0.00  0.00    +0.243 C 
ATOM     15  O   UNL     1       2.000  -2.609  -0.086  0.00  0.00    -0.273 OA
ATOM     16  H   UNL     1       3.954  -2.555   1.652  0.00  0.00    +0.155 HD
ENDROOT
BRANCH   4  17
ATOM     17  C   UNL     1      -2.595  -1.540   1.023  0.00  0.00    -0.040 A 
ATOM     18  C   UNL     1      -3.258  -0.414   1.473  0.00  0.00    +0.004 A 
ATOM     19  C   UNL     1      -4.597  -0.488   1.808  0.00  0.00    +0.002 A 
ATOM     20  C   UNL     1      -5.273  -1.689   1.693  0.00  0.00    +0.033 A 
ATOM     21  C   UNL     1      -4.610  -2.815   1.242  0.00  0.00    +0.126 A 
ATOM     22  C   UNL     1      -3.272  -2.739   0.903  0.00  0.00    +0.036 A 
BRANCH  21  23
ATOM     23  N   UNL     1      -5.333  -4.100   1.119  0.00  0.00    +0.056 N 
ATOM     24  O   UNL     1      -6.504  -4.165   1.413  0.00  0.00    -0.126 OA
ATOM     25  O   UNL     1      -4.753  -5.085   0.726  0.00  0.00    -0.126 OA
ENDBRANCH  21  23
ENDBRANCH   4  17
BRANCH  11  26
ATOM     26  C   UNL     1       5.115  -1.635   4.126  0.00  0.00    +0.419 C 
ATOM     27  F   UNL     1       5.744  -1.232   5.309  0.00  0.00    -0.166 F 
ATOM     28  F   UNL     1       4.967  -3.026   4.127  0.00  0.00    -0.166 F 
ATOM     29  F   UNL     1       5.893  -1.249   3.030  0.00  0.00    -0.166 F 
ENDBRANCH  11  26
BRANCH   5  30
ATOM     30  C   UNL     1      -0.855  -1.425   3.160  0.00  0.00    +0.169 C 
ATOM     31  O   UNL     1      -1.442  -0.371   3.223  0.00  0.00    -0.292 OA
BRANCH  30  32
ATOM     32  C   UNL     1      -0.741  -2.279   4.357  0.00  0.00    +0.021 A 
ATOM     33  C   UNL     1      -0.059  -3.501   4.308  0.00  0.00    +0.031 A 
ATOM     34  C   UNL     1       0.023  -4.269   5.454  0.00  0.00    +0.111 A 
ATOM     35  N   UNL     1      -0.530  -3.865   6.580  0.00  0.00    -0.263 NA
ATOM     36  C   UNL     1      -1.181  -2.722   6.671  0.00  0.00    +0.111 A 
ATOM     37  C   UNL     1      -1.307  -1.888   5.577  0.00  0.00    +0.031 A 
ENDBRANCH  30  32
ENDBRANCH   5  30
TORSDOF 5
