REMARK  Name = ZINC04472788
REMARK  3 active torsions:
REMARK  status: ('A' for Active; 'I' for Inactive)
REMARK    1  A    between atoms: C_1  and  C_2
REMARK    2  A    between atoms: C_9  and  C_10
REMARK    3  A    between atoms: C_13  and  C_15
REMARK                            x       y       z     vdW  Elec       q    Type
REMARK                         _______ _______ _______ _____ _____    ______ ____
ROOT
ATOM      1  C   UNL     1      -7.013  -7.011  -1.625  0.00  0.00    +0.089 C 
ATOM      2  C   UNL     1      -5.763  -6.328  -1.133  0.00  0.00    +0.134 C 
ATOM      3  C   UNL     1      -5.582  -4.988  -1.002  0.00  0.00    +0.091 C 
ATOM      4  C   UNL     1      -4.266  -4.864  -0.522  0.00  0.00    +0.168 C 
ATOM      5  N   UNL     1      -3.556  -3.770  -0.268  0.00  0.00    -0.156 NA
ATOM      6  C   UNL     1      -2.273  -3.881   0.112  0.00  0.00    +0.273 C 
ATOM      7  O   UNL     1      -1.643  -2.897   0.467  0.00  0.00    -0.268 OA
ATOM      8  C   UNL     1      -1.636  -5.218   0.094  0.00  0.00    +0.087 C 
ATOM      9  C   UNL     1      -0.264  -5.377  -0.025  0.00  0.00    +0.063 C 
ATOM     10  C   UNL     1      -2.560  -6.382   0.205  0.00  0.00    +0.176 C 
ATOM     11  N   UNL     1      -2.233  -7.510   0.782  0.00  0.00    -0.280 NA
ATOM     12  N   UNL     1      -3.810  -6.149  -0.365  0.00  0.00    -0.142 N 
ATOM     13  O   UNL     1      -4.631  -6.933  -0.747  0.00  0.00    -0.375 OA
ATOM     14  H   UNL     1      -1.231  -7.635   1.218  0.00  0.00    +0.188 HD
ENDROOT
BRANCH   9  15
ATOM     15  C   UNL     1       0.542  -4.281  -0.374  0.00  0.00    +0.129 A 
ATOM     16  C   UNL     1       1.930  -4.265  -0.394  0.00  0.00    +0.050 A 
ATOM     17  C   UNL     1       2.312  -2.986  -0.795  0.00  0.00    +0.050 A 
ATOM     18  C   UNL     1       1.155  -2.266  -1.007  0.00  0.00    +0.136 A 
ATOM     19  O   UNL     1       0.102  -3.059  -0.743  0.00  0.00    -0.455 OA
BRANCH  18  20
ATOM     20  C   UNL     1       1.085  -0.859  -1.443  0.00  0.00    +0.017 A 
ATOM     21  C   UNL     1      -0.156  -0.241  -1.621  0.00  0.00    +0.014 A 
ATOM     22  C   UNL     1      -0.215   1.074  -2.029  0.00  0.00    +0.039 A 
ATOM     23  C   UNL     1       0.953   1.784  -2.263  0.00  0.00    +0.123 A 
ATOM     24  C   UNL     1       2.186   1.177  -2.087  0.00  0.00    +0.039 A 
ATOM     25  C   UNL     1       2.259  -0.138  -1.679  0.00  0.00    +0.014 A 
ATOM     26  F   UNL     1       0.888   3.073  -2.662  0.00  0.00    -0.205 F 
ENDBRANCH  18  20
ENDBRANCH   9  15
TORSDOF 2
