REMARK  Name = ZINC39636187
REMARK  4 active torsions:
REMARK  status: ('A' for Active; 'I' for Inactive)
REMARK    1  A    between atoms: C_1  and  C_2
REMARK    2  A    between atoms: C_8  and  N_10
REMARK    3  A    between atoms: C_11  and  C_13
REMARK    4  A    between atoms: C_24  and  C_26
REMARK                            x       y       z     vdW  Elec       q    Type
REMARK                         _______ _______ _______ _____ _____    ______ ____
ROOT
ATOM      1  C   UNL     1       0.033   0.579   4.842  0.00  0.00    +0.100 C 
ATOM      2  C   UNL     1      -0.380   2.060   4.681  0.00  0.00    +0.121 C 
ATOM      3  N   UNL     1      -0.172   2.654   6.023  0.00  0.00    -0.296 N 
ATOM      4  C   UNL     1       1.081   2.031   6.512  0.00  0.00    +0.115 C 
ATOM      5  C   UNL     1       0.992   0.565   6.044  0.00  0.00    -0.004 C 
ATOM      6  C   UNL     1       2.368   0.063   5.616  0.00  0.00    -0.010 C 
ATOM      7  C   UNL     1       3.287   0.002   6.840  0.00  0.00    -0.082 C 
ATOM      8  N   UNL     1       2.707  -0.897   7.845  0.00  0.00    +0.379 N 
ATOM      9  C   UNL     1       1.426  -0.358   8.319  0.00  0.00    -0.082 C 
ATOM     10  C   UNL     1       0.429  -0.312   7.159  0.00  0.00    -0.010 C 
ATOM     11  C   UNL     1      -0.948   3.557   6.655  0.00  0.00    +0.252 C 
ATOM     12  O   UNL     1      -0.641   3.951   7.763  0.00  0.00    -0.270 OA
ATOM     13  H   UNL     1       2.557  -1.806   7.435  0.00  0.00    -0.086 HD
ATOM     14  H   UNL     1       3.343  -0.983   8.624  0.00  0.00    -0.086 HD
ENDROOT
BRANCH  11  15
ATOM     15  C   UNL     1      -2.169   4.066   6.003  0.00  0.00    +0.108 A 
ATOM     16  C   UNL     1      -3.393   3.414   6.193  0.00  0.00    +0.138 A 
ATOM     17  C   UNL     1      -4.532   3.897   5.579  0.00  0.00    +0.041 A 
ATOM     18  C   UNL     1      -4.466   5.022   4.777  0.00  0.00    +0.026 A 
ATOM     19  C   UNL     1      -3.261   5.673   4.583  0.00  0.00    +0.077 A 
ATOM     20  C   UNL     1      -2.112   5.206   5.195  0.00  0.00    +0.156 A 
ATOM     21  F   UNL     1      -0.937   5.846   5.009  0.00  0.00    -0.203 F 
ATOM     22 CL   UNL     1      -3.192   7.084   3.573  0.00  0.00    -0.081 Cl
ATOM     23  F   UNL     1      -3.459   2.314   6.976  0.00  0.00    -0.205 F 
ENDBRANCH  11  15
BRANCH   1  25
ATOM     24  N   UNL     1       0.639  -1.199   3.233  0.00  0.00    -0.312 N 
ATOM     25  C   UNL     1       0.738   0.093   3.602  0.00  0.00    +0.218 C 
ATOM     26  O   UNL     1       1.395   0.865   2.936  0.00  0.00    -0.275 OA
ATOM     27  H   UNL     1       0.113  -1.817   3.766  0.00  0.00    +0.149 HD
BRANCH  24  34
ATOM     28  C   UNL     1      -0.841  -2.546   1.139  0.00  0.00    +0.009 C 
ATOM     29  C   UNL     1       0.605  -2.908   1.483  0.00  0.00    +0.006 C 
ATOM     30  C   UNL     1       0.616  -4.012   2.542  0.00  0.00    +0.005 C 
ATOM     31  C   UNL     1       2.062  -4.374   2.887  0.00  0.00    +0.000 C 
ATOM     32  C   UNL     1       2.781  -3.138   3.431  0.00  0.00    +0.002 C 
ATOM     33  C   UNL     1       2.770  -2.034   2.373  0.00  0.00    +0.022 C 
ATOM     34  C   UNL     1       1.324  -1.672   2.028  0.00  0.00    +0.076 C 
ENDBRANCH  24  34
ENDBRANCH   1  25
TORSDOF 3
