REMARK  Name = ZINC63761049
REMARK  4 active torsions:
REMARK  status: ('A' for Active; 'I' for Inactive)
REMARK    1  A    between atoms: C_6  and  C_10
REMARK    2  A    between atoms: N_20  and  N_21
REMARK    3  A    between atoms: C_22  and  C_24
REMARK    4  A    between atoms: C_27  and  N_30
REMARK                            x       y       z     vdW  Elec       q    Type
REMARK                         _______ _______ _______ _____ _____    ______ ____
ROOT
ATOM      1  C   UNL     1       3.534  -2.776  -1.283  0.00  0.00    +0.057 A 
ATOM      2  C   UNL     1       4.329  -2.100  -2.221  0.00  0.00    +0.024 A 
ATOM      3  C   UNL     1       4.738  -2.800  -3.363  0.00  0.00    +0.019 A 
ATOM      4  C   UNL     1       5.537  -2.202  -4.357  0.00  0.00    +0.026 A 
ATOM      5  C   UNL     1       5.903  -2.933  -5.445  0.00  0.00    +0.019 A 
ATOM      6  C   UNL     1       5.503  -4.262  -5.596  0.00  0.00    +0.019 A 
ATOM      7  C   UNL     1       4.729  -4.889  -4.663  0.00  0.00    +0.048 A 
ATOM      8  C   UNL     1       4.321  -4.196  -3.526  0.00  0.00    +0.138 A 
ATOM      9  O   UNL     1       3.560  -4.774  -2.585  0.00  0.00    -0.438 OA
ATOM     10  C   UNL     1       3.178  -4.099  -1.492  0.00  0.00    +0.219 A 
ATOM     11  N   UNL     1       2.417  -4.726  -0.568  0.00  0.00    -0.274 N 
ATOM     12 BR   UNL     1       6.976  -2.132  -6.781  0.00  0.00    -0.050 Br
ATOM     13  H   UNL     1       2.129  -4.250   0.227  0.00  0.00    +0.188 HD
ENDROOT
BRANCH   1  19
ATOM     14  C   UNL     1      -0.016   1.344   0.009  0.00  0.00    +0.002 A 
ATOM     15  C   UNL     1       1.158   2.118   0.002  0.00  0.00    +0.002 A 
ATOM     16  C   UNL     1       2.389   1.570  -0.013  0.00  0.00    +0.027 A 
ATOM     17  C   UNL     1       2.533   0.108  -0.022  0.00  0.00    +0.060 A 
ATOM     18  N   UNL     1       3.569  -0.680  -0.036  0.00  0.00    -0.360 N 
ATOM     19  C   UNL     1       3.071  -2.062  -0.039  0.00  0.00    +0.211 C 
ATOM     20  N   UNL     1       1.606  -1.974  -0.024  0.00  0.00    -0.360 N 
ATOM     21  C   UNL     1       1.290  -0.712  -0.014  0.00  0.00    +0.060 A 
ATOM     22  C   UNL     1       0.002  -0.004   0.002  0.00  0.00    +0.027 A 
ATOM     23  H   UNL     1       4.499  -0.405  -0.045  0.00  0.00    +0.162 HD
ATOM     24  H   UNL     1       0.987  -2.721  -0.022  0.00  0.00    +0.162 HD
ENDBRANCH   1  19
BRANCH  11  25
ATOM     25  N   UNL     1       2.074  -5.957  -0.742  0.00  0.00    -0.223 N 
ATOM     26  C   UNL     1       1.315  -6.582   0.180  0.00  0.00    +0.262 C 
ATOM     27  O   UNL     1       0.954  -5.986   1.175  0.00  0.00    -0.269 OA
ATOM     28  H   UNL     1       2.362  -6.433  -1.536  0.00  0.00    +0.175 HD
BRANCH  26  29
ATOM     29  C   UNL     1       0.922  -7.991  -0.020  0.00  0.00    +0.038 A 
ATOM     30  C   UNL     1       1.340  -8.681  -1.160  0.00  0.00    +0.015 A 
ATOM     31  C   UNL     1       0.970  -9.997  -1.340  0.00  0.00    +0.033 A 
ATOM     32  C   UNL     1       0.186 -10.634  -0.394  0.00  0.00    +0.126 A 
ATOM     33  C   UNL     1      -0.232  -9.957   0.738  0.00  0.00    +0.033 A 
ATOM     34  C   UNL     1       0.135  -8.642   0.934  0.00  0.00    +0.015 A 
BRANCH  32  35
ATOM     35  N   UNL     1      -0.209 -12.047  -0.594  0.00  0.00    +0.056 N 
ATOM     36  O   UNL     1       0.187 -12.695  -1.671  0.00  0.00    -0.126 OA
ATOM     37  O   UNL     1      -0.955 -12.656   0.304  0.00  0.00    -0.126 OA
ENDBRANCH  32  35
ENDBRANCH  26  29
ENDBRANCH  11  25
TORSDOF 4
