REMARK  Name = ZINC07307984
REMARK  9 active torsions:
REMARK  status: ('A' for Active; 'I' for Inactive)
REMARK    1  A    between atoms: C_1  and  C_2
REMARK    2  A    between atoms: C_6  and  C_9
REMARK    3  A    between atoms: C_7  and  N_8
REMARK    4  A    between atoms: C_9  and  O_11
REMARK    5  A    between atoms: O_11  and  C_12
REMARK    6  A    between atoms: C_12  and  C_14
REMARK    7  A    between atoms: C_12  and  C_15
REMARK    8  A    between atoms: N_17  and  C_18
REMARK    9  A    between atoms: C_18  and  C_24
REMARK                            x       y       z     vdW  Elec       q    Type
REMARK                         _______ _______ _______ _____ _____    ______ ____
ROOT
ATOM      1  C   UNL     1      -0.111  -5.289   3.257  0.00  0.00    +0.259 C 
ATOM      2  C   UNL     1       1.325  -5.685   3.609  0.00  0.00    +0.062 C 
ENDROOT
BRANCH   1   3
ATOM      3  C   UNL     1      -0.927  -6.531   3.007  0.00  0.00    +0.255 C 
ATOM      4  O   UNL     1      -1.378  -6.748   1.902  0.00  0.00    -0.272 OA
ATOM      5  N   UNL     1      -1.156  -7.401   4.011  0.00  0.00    -0.294 N 
ATOM      6  H   UNL     1      -0.796  -7.228   4.894  0.00  0.00    +0.150 HD
BRANCH   5   7
ATOM      7  C   UNL     1      -1.950  -8.608   3.767  0.00  0.00    +0.121 C 
ATOM      8  C   UNL     1      -3.350  -8.211   3.295  0.00  0.00    +0.041 C 
ATOM      9  C   UNL     1      -4.178  -9.472   3.040  0.00  0.00    +0.003 C 
ATOM     10  C   UNL     1      -4.287 -10.281   4.335  0.00  0.00    +0.000 C 
ATOM     11  C   UNL     1      -2.887 -10.678   4.807  0.00  0.00    +0.003 C 
ATOM     12  C   UNL     1      -2.058  -9.417   5.061  0.00  0.00    +0.041 C 
BRANCH   7  13
ATOM     13  C   UNL     1      -1.296  -9.425   2.731  0.00  0.00    +0.088 C 
ATOM     14  N   UNL     1      -0.791 -10.055   1.932  0.00  0.00    -0.194 NA
ENDBRANCH   7  13
ENDBRANCH   5   7
ENDBRANCH   1   3
BRANCH   1  15
ATOM     15  O   UNL     1      -0.107  -4.477   2.082  0.00  0.00    -0.449 OA
BRANCH  15  16
ATOM     16  C   UNL     1      -0.000  -3.145   2.259  0.00  0.00    +0.342 C 
ATOM     17  O   UNL     1       0.087  -2.686   3.381  0.00  0.00    -0.245 OA
BRANCH  16  23
ATOM     18  C   UNL     1      -0.009   1.480   0.352  0.00  0.00    +0.045 C 
ATOM     19  C   UNL     1       0.006  -0.015   0.166  0.00  0.00    -0.029 A 
ATOM     20  C   UNL     1       0.031  -0.551  -1.105  0.00  0.00    +0.005 A 
ATOM     21  C   UNL     1       0.045  -1.925  -1.288  0.00  0.00    +0.001 A 
ATOM     22  C   UNL     1       0.035  -2.772  -0.202  0.00  0.00    +0.017 A 
ATOM     23  C   UNL     1       0.011  -2.245   1.093  0.00  0.00    +0.080 A 
ATOM     24  C   UNL     1       0.002  -0.853   1.274  0.00  0.00    +0.042 A 
BRANCH  24  25
ATOM     25  N   UNL     1      -0.016  -0.316   2.555  0.00  0.00    -0.357 N 
ATOM     26  H   UNL     1      -0.109   0.642   2.678  0.00  0.00    +0.142 HD
ATOM     27  H   UNL     1       0.063  -0.899   3.326  0.00  0.00    +0.142 HD
ENDBRANCH  24  25
ENDBRANCH  16  23
ENDBRANCH  15  16
ENDBRANCH   1  15
TORSDOF 7
