REMARK  Name = ZINC20412922
REMARK  11 active torsions:
REMARK  status: ('A' for Active; 'I' for Inactive)
REMARK    1  A    between atoms: C_1  and  C_2
REMARK    2  A    between atoms: C_5  and  C_30
REMARK    3  A    between atoms: C_6  and  O_8
REMARK    4  A    between atoms: O_8  and  C_9
REMARK    5  A    between atoms: C_9  and  C_10
REMARK    6  A    between atoms: N_15  and  C_18
REMARK    7  A    between atoms: C_18  and  C_19
REMARK    8  A    between atoms: C_23  and  N_29
REMARK    9  A    between atoms: N_27  and  C_28
REMARK   10  A    between atoms: C_30  and  C_31
REMARK   11  A    between atoms: C_30  and  C_32
REMARK                            x       y       z     vdW  Elec       q    Type
REMARK                         _______ _______ _______ _____ _____    ______ ____
ROOT
ATOM      1  C   UNL     1      -0.480   3.835   2.199  0.00  0.00    +0.253 C 
ATOM      2  O   UNL     1      -0.603   5.039   2.111  0.00  0.00    -0.272 OA
ATOM      3  N   UNL     1      -0.872   3.042   1.182  0.00  0.00    -0.296 N 
ATOM      4  C   UNL     1      -0.731   1.581   1.268  0.00  0.00    +0.123 C 
ATOM      5  C   UNL     1      -0.013   1.086   0.008  0.00  0.00    +0.104 C 
ATOM      6  N   UNL     1      -0.724   1.573  -1.181  0.00  0.00    -0.292 NA
ATOM      7  C   UNL     1      -0.705   3.040  -1.250  0.00  0.00    +0.104 C 
ATOM      8  C   UNL     1      -1.452   3.615  -0.042  0.00  0.00    +0.123 C 
ENDROOT
BRANCH   1   9
ATOM      9  C   UNL     1       0.112   3.227   3.444  0.00  0.00    +0.324 C 
BRANCH   9  10
ATOM     10  O   UNL     1       0.446   4.265   4.368  0.00  0.00    -0.482 OA
BRANCH  10  16
ATOM     11  C   UNL     1       1.996   0.693   7.311  0.00  0.00    +0.044 C 
ATOM     12  C   UNL     1       1.765   2.153   7.021  0.00  0.00    -0.047 A 
ATOM     13  C   UNL     1       2.112   3.107   7.961  0.00  0.00    +0.004 A 
ATOM     14  C   UNL     1       1.901   4.448   7.698  0.00  0.00    +0.008 A 
ATOM     15  C   UNL     1       1.343   4.838   6.495  0.00  0.00    -0.003 A 
ATOM     16  C   UNL     1       0.995   3.883   5.552  0.00  0.00    +0.125 A 
ATOM     17  C   UNL     1       1.202   2.538   5.820  0.00  0.00    +0.049 A 
BRANCH  15  18
ATOM     18  C   UNL     1       1.115   6.300   6.209  0.00  0.00    +0.016 C 
ATOM     19  C   UNL     1       0.169   6.883   7.261  0.00  0.00    +0.012 C 
ATOM     20  C   UNL     1       2.450   7.044   6.256  0.00  0.00    +0.012 C 
ENDBRANCH  15  18
ENDBRANCH  10  16
ENDBRANCH   9  10
ENDBRANCH   1   9
BRANCH   6  21
ATOM     21  C   UNL     1      -0.170   0.981  -2.406  0.00  0.00    +0.157 C 
BRANCH  21  22
ATOM     22  C   UNL     1      -1.068   1.304  -3.572  0.00  0.00    +0.102 A 
ATOM     23  N   UNL     1      -0.957   2.357  -4.329  0.00  0.00    -0.342 N 
ATOM     24  C   UNL     1      -1.923   2.339  -5.282  0.00  0.00    +0.066 A 
ATOM     25  C   UNL     1      -2.259   3.202  -6.329  0.00  0.00    +0.050 A 
ATOM     26  C   UNL     1      -3.328   2.899  -7.151  0.00  0.00    +0.027 A 
ATOM     27  C   UNL     1      -4.072   1.740  -6.940  0.00  0.00    +0.025 A 
ATOM     28  C   UNL     1      -3.751   0.882  -5.911  0.00  0.00    +0.030 A 
ATOM     29  C   UNL     1      -2.679   1.173  -5.077  0.00  0.00    +0.067 A 
ATOM     30  N   UNL     1      -2.109   0.536  -3.990  0.00  0.00    -0.331 N 
ATOM     31  C   UNL     1      -2.547  -0.730  -3.396  0.00  0.00    +0.150 C 
ATOM     32  H   UNL     1      -0.160   3.091  -4.137  0.00  0.00    +0.167 HD
BRANCH  26  33
ATOM     33  N   UNL     1      -3.665   3.761  -8.199  0.00  0.00    -0.358 N 
ATOM     34  H   UNL     1      -4.516   3.523  -8.855  0.00  0.00    +0.142 HD
ATOM     35  H   UNL     1      -3.080   4.678  -8.368  0.00  0.00    +0.142 HD
ENDBRANCH  26  33
ENDBRANCH  21  22
ENDBRANCH   6  21
TORSDOF 7
