REMARK  Name = ZINC63515457
REMARK  11 active torsions:
REMARK  status: ('A' for Active; 'I' for Inactive)
REMARK    1  A    between atoms: C_1  and  C_2
REMARK    2  A    between atoms: C_8  and  C_11
REMARK    3  A    between atoms: C_11  and  C_12
REMARK    4  A    between atoms: C_12  and  N_13
REMARK    5  A    between atoms: C_15  and  C_20
REMARK    6  A    between atoms: N_22  and  C_23
REMARK    7  A    between atoms: C_27  and  C_30
REMARK    8  A    between atoms: C_30  and  C_31
REMARK    9  A    between atoms: C_31  and  C_32
REMARK   10  A    between atoms: C_31  and  C_33
REMARK   11  A    between atoms: C_31  and  C_34
REMARK                            x       y       z     vdW  Elec       q    Type
REMARK                         _______ _______ _______ _____ _____    ______ ____
ROOT
ATOM      1  N   UNL     1      -1.373   0.299   5.665  0.00  0.00    -0.300 N 
ATOM      2  C   UNL     1      -1.190  -0.977   6.368  0.00  0.00    +0.121 C 
ATOM      3  C   UNL     1      -0.823  -0.598   7.820  0.00  0.00    +0.101 C 
ATOM      4  C   UNL     1      -1.465   0.803   7.952  0.00  0.00    +0.110 C 
ATOM      5  C   UNL     1      -1.529   1.315   6.530  0.00  0.00    +0.216 C 
ATOM      6  O   UNL     1      -1.700   2.474   6.216  0.00  0.00    -0.276 OA
ENDROOT
BRANCH   3   7
ATOM      7  C   UNL     1      -1.433  -1.566   8.800  0.00  0.00    +0.220 C 
ATOM      8  O   UNL     1      -2.109  -2.490   8.400  0.00  0.00    -0.275 OA
ATOM      9  N   UNL     1      -1.228  -1.405  10.123  0.00  0.00    -0.284 N 
ATOM     10  H   UNL     1      -0.688  -0.666  10.443  0.00  0.00    +0.152 HD
BRANCH   9  11
ATOM     11  C   UNL     1      -1.821  -2.346  11.076  0.00  0.00    +0.275 C 
ATOM     12  N   UNL     1      -3.244  -2.029  11.333  0.00  0.00    -0.157 NA
ATOM     13  N   UNL     1      -3.670  -1.962  12.470  0.00  0.00    -0.175 NA
ATOM     14  C   UNL     1      -2.776  -2.198  13.626  0.00  0.00    +0.189 C 
ATOM     15  S   UNL     1      -1.135  -2.105  12.776  0.00  0.00    -0.085 S 
BRANCH  14  16
ATOM     16  C   UNL     1      -2.923  -1.096  14.678  0.00  0.00    +0.046 C 
BRANCH  16  17
ATOM     17  C   UNL     1      -2.102  -1.460  15.916  0.00  0.00    -0.035 C 
ATOM     18  C   UNL     1      -0.629  -1.607  15.526  0.00  0.00    +0.011 C 
ATOM     19  C   UNL     1      -2.244  -0.355  16.965  0.00  0.00    +0.011 C 
ATOM     20  C   UNL     1      -2.610  -2.782  16.495  0.00  0.00    +0.011 C 
ENDBRANCH  16  17
ENDBRANCH  14  16
ENDBRANCH   9  11
ENDBRANCH   3   7
BRANCH   1  21
ATOM     21  C   UNL     1      -1.378   0.446   4.207  0.00  0.00    +0.112 C 
BRANCH  21  22
ATOM     22  C   UNL     1       0.047   0.703   3.715  0.00  0.00    +0.052 C 
BRANCH  22  30
ATOM     23  C   UNL     1      -0.242   5.821   1.387  0.00  0.00    +0.044 C 
ATOM     24  C   UNL     1      -0.158   4.375   0.971  0.00  0.00    -0.050 A 
ATOM     25  C   UNL     1      -0.137   4.058  -0.395  0.00  0.00    +0.005 A 
ATOM     26  C   UNL     1      -0.063   2.788  -0.847  0.00  0.00    +0.026 A 
ATOM     27  C   UNL     1      -0.003   1.701   0.068  0.00  0.00    +0.043 A 
ATOM     28  N   UNL     1       0.071   0.406  -0.119  0.00  0.00    -0.380 N 
ATOM     29  C   UNL     1       0.107  -0.255   1.190  0.00  0.00    +0.144 C 
ATOM     30  C   UNL     1       0.042   0.855   2.216  0.00  0.00    -0.040 C 
ATOM     31  C   UNL     1      -0.023   2.010   1.515  0.00  0.00    -0.001 A 
ATOM     32  C   UNL     1      -0.098   3.417   1.924  0.00  0.00    +0.013 A 
ATOM     33  H   UNL     1       0.098  -0.041  -0.980  0.00  0.00    +0.160 HD
ENDBRANCH  22  30
ENDBRANCH  21  22
ENDBRANCH   1  21
TORSDOF 7
