REMARK  Name = ZINC18195838
REMARK  5 active torsions:
REMARK  status: ('A' for Active; 'I' for Inactive)
REMARK    1  A    between atoms: C_1  and  C_2
REMARK    2  A    between atoms: C_2  and  C_29
REMARK    3  A    between atoms: C_6  and  C_16
REMARK    4  A    between atoms: C_13  and  O_14
REMARK    5  A    between atoms: C_21  and  C_22
REMARK                            x       y       z     vdW  Elec       q    Type
REMARK                         _______ _______ _______ _____ _____    ______ ____
ROOT
ATOM      1  C   UNL     1       2.891   5.577  -4.197  0.00  0.00    +0.011 C 
ATOM      2  C   UNL     1       3.850   4.599  -4.877  0.00  0.00    -0.023 C 
ATOM      3  C   UNL     1       4.651   3.841  -3.817  0.00  0.00    +0.058 C 
ATOM      4  C   UNL     1       3.710   3.054  -2.934  0.00  0.00    +0.017 C 
ATOM      5  C   UNL     1       2.558   2.552  -3.428  0.00  0.00    +0.024 C 
ATOM      6  C   UNL     1       1.605   1.730  -2.587  0.00  0.00    +0.093 C 
ATOM      7  C   UNL     1       1.954   1.881  -1.134  0.00  0.00    +0.067 A 
ATOM      8  C   UNL     1       3.139   2.426  -0.717  0.00  0.00    +0.126 A 
ATOM      9  N   UNL     1       3.147   2.414   0.629  0.00  0.00    -0.260 N 
ATOM     10  H   UNL     1       3.885   2.744   1.218  0.00  0.00    +0.190 HD
ATOM     11  N   UNL     1       1.932   1.855   1.059  0.00  0.00    -0.134 NA
ATOM     12  C   UNL     1       1.224   1.533  -0.001  0.00  0.00    +0.237 A 
ATOM     13  N   UNL     1       4.088   2.878  -1.626  0.00  0.00    -0.303 N 
ATOM     14  C   UNL     1       2.190   2.773  -4.767  0.00  0.00    +0.162 C 
ATOM     15  O   UNL     1       1.150   2.301  -5.182  0.00  0.00    -0.292 OA
ATOM     16  C   UNL     1       3.052   3.579  -5.697  0.00  0.00    +0.086 C 
ATOM     17  C   UNL     1       4.805   5.365  -5.795  0.00  0.00    +0.011 C 
ATOM     18  H   UNL     1       4.997   3.064  -1.344  0.00  0.00    +0.153 HD
ENDROOT
BRANCH   6  19
ATOM     19  C   UNL     1       1.713   0.279  -2.981  0.00  0.00    -0.024 A 
ATOM     20  C   UNL     1       2.922  -0.381  -2.861  0.00  0.00    +0.005 A 
ATOM     21  C   UNL     1       3.021  -1.713  -3.219  0.00  0.00    +0.000 A 
ATOM     22  C   UNL     1       1.912  -2.382  -3.703  0.00  0.00    +0.001 A 
ATOM     23  C   UNL     1       0.705  -1.721  -3.827  0.00  0.00    +0.012 A 
ATOM     24  C   UNL     1       0.605  -0.390  -3.466  0.00  0.00    +0.059 A 
BRANCH  24  25
ATOM     25  C   UNL     1      -0.711   0.331  -3.601  0.00  0.00    +0.418 C 
ATOM     26  F   UNL     1      -1.674  -0.548  -4.109  0.00  0.00    -0.166 F 
ATOM     27  F   UNL     1      -1.120   0.795  -2.346  0.00  0.00    -0.166 F 
ATOM     28  F   UNL     1      -0.562   1.414  -4.473  0.00  0.00    -0.166 F 
ENDBRANCH  24  25
ENDBRANCH   6  19
BRANCH  12  29
ATOM     29  O   UNL     1      -0.011   0.963   0.007  0.00  0.00    -0.491 OA
ATOM     30  H   UNL     1      -0.305   0.818   0.952  0.00  0.00    +0.294 HD
ENDBRANCH  12  29
TORSDOF 3
