REMARK  Name = ZINC58991601
REMARK  10 active torsions:
REMARK  status: ('A' for Active; 'I' for Inactive)
REMARK    1  A    between atoms: C_1  and  C_2
REMARK    2  A    between atoms: C_2  and  C_24
REMARK    3  A    between atoms: N_3  and  N_4
REMARK    4  A    between atoms: C_5  and  C_7
REMARK    5  A    between atoms: C_7  and  C_8
REMARK    6  A    between atoms: C_8  and  C_9
REMARK    7  A    between atoms: C_9  and  S_10
REMARK    8  A    between atoms: S_10  and  C_11
REMARK    9  A    between atoms: C_14  and  C_17
REMARK   10  A    between atoms: N_15  and  N_16
REMARK                            x       y       z     vdW  Elec       q    Type
REMARK                         _______ _______ _______ _____ _____    ______ ____
ROOT
ATOM      1  C   UNL     1      -1.451  -6.248   3.470  0.00  0.00    +0.078 C 
ENDROOT
BRANCH   1   2
ATOM      2  C   UNL     1      -1.038  -4.776   3.512  0.00  0.00    +0.020 C 
BRANCH   2   3
ATOM      3  C   UNL     1      -0.944  -4.231   2.086  0.00  0.00    +0.098 C 
BRANCH   3   5
ATOM      4  N   UNL     1      -0.390  -2.088   0.980  0.00  0.00    -0.207 N 
ATOM      5  C   UNL     1      -0.537  -2.780   2.127  0.00  0.00    +0.232 C 
ATOM      6  O   UNL     1      -0.342  -2.236   3.194  0.00  0.00    -0.274 OA
ATOM      7  H   UNL     1      -0.546  -2.524   0.128  0.00  0.00    +0.177 HD
BRANCH   4  10
ATOM      8  C   UNL     1       0.459   1.398  -0.038  0.00  0.00    +0.069 C 
ATOM      9  C   UNL     1       0.027  -0.045  -0.076  0.00  0.00    +0.081 C 
ATOM     10  N   UNL     1      -0.012  -0.740   1.019  0.00  0.00    -0.183 NA
BRANCH   9  11
ATOM     11  C   UNL     1      -0.351  -0.668  -1.358  0.00  0.00    +0.086 A 
ATOM     12  C   UNL     1      -1.610  -1.256  -1.498  0.00  0.00    +0.029 A 
ATOM     13  C   UNL     1      -1.950  -1.835  -2.708  0.00  0.00    +0.004 A 
ATOM     14  C   UNL     1      -1.021  -1.810  -3.739  0.00  0.00    +0.020 A 
ATOM     15  C   UNL     1       0.208  -1.211  -3.532  0.00  0.00    +0.111 A 
ATOM     16  N   UNL     1       0.507  -0.661  -2.373  0.00  0.00    -0.254 NA
ENDBRANCH   9  11
ENDBRANCH   4  10
ENDBRANCH   3   5
ENDBRANCH   2   3
ENDBRANCH   1   2
BRANCH   1  17
ATOM     17  S   UNL     1      -1.563  -6.894   5.161  0.00  0.00    -0.084 S 
BRANCH  17  18
ATOM     18  C   UNL     1      -2.041  -8.576   4.945  0.00  0.00    +0.209 A 
ATOM     19  N   UNL     1      -2.252  -9.185   3.800  0.00  0.00    -0.121 NA
ATOM     20  N   UNL     1      -2.587 -10.409   4.006  0.00  0.00    -0.127 NA
ATOM     21  C   UNL     1      -2.611 -10.655   5.295  0.00  0.00    +0.183 A 
ATOM     22  N   UNL     1      -2.256  -9.491   5.936  0.00  0.00    -0.224 N 
BRANCH  21  23
ATOM     23  C   UNL     1      -2.950 -11.943   5.937  0.00  0.00    +0.035 A 
ATOM     24  C   UNL     1      -3.885 -11.986   6.972  0.00  0.00    +0.013 A 
ATOM     25  C   UNL     1      -4.196 -13.191   7.566  0.00  0.00    +0.001 A 
ATOM     26  C   UNL     1      -3.585 -14.357   7.138  0.00  0.00    +0.001 A 
ATOM     27  C   UNL     1      -2.657 -14.322   6.113  0.00  0.00    +0.016 A 
ATOM     28  C   UNL     1      -2.340 -13.123   5.506  0.00  0.00    +0.029 A 
ATOM     29 BR   UNL     1      -1.077 -13.079   4.098  0.00  0.00    -0.050 Br
ENDBRANCH  21  23
BRANCH  22  30
ATOM     30  N   UNL     1      -2.146  -9.290   7.282  0.00  0.00    -0.295 N 
ATOM     31  H   UNL     1      -3.042  -9.068   7.690  0.00  0.00    +0.163 HD
ATOM     32  H   UNL     1      -1.732 -10.092   7.735  0.00  0.00    +0.163 HD
ENDBRANCH  22  30
ENDBRANCH  17  18
ENDBRANCH   1  17
TORSDOF 9
