REMARK  Name = ZINC01743578
REMARK  7 active torsions:
REMARK  status: ('A' for Active; 'I' for Inactive)
REMARK    1  A    between atoms: C_3  and  C_19
REMARK    2  A    between atoms: C_6  and  C_7
REMARK    3  A    between atoms: C_7  and  N_8
REMARK    4  A    between atoms: C_10  and  C_15
REMARK    5  A    between atoms: N_21  and  O_22
REMARK    6  A    between atoms: O_22  and  C_23
REMARK    7  A    between atoms: C_23  and  C_25
REMARK                            x       y       z     vdW  Elec       q    Type
REMARK                         _______ _______ _______ _____ _____    ______ ____
ROOT
ATOM      1  C   UNL     1      -0.017   1.379   0.010  0.00  0.00    +0.006 A 
ATOM      2  C   UNL     1       1.167   2.088   0.002  0.00  0.00    +0.012 A 
ATOM      3  C   UNL     1       2.384   1.407  -0.013  0.00  0.00    +0.017 A 
ATOM      4  C   UNL     1       2.397   0.013  -0.021  0.00  0.00    +0.012 A 
ATOM      5  C   UNL     1       1.206  -0.685  -0.013  0.00  0.00    +0.006 A 
ATOM      6  C   UNL     1       0.002  -0.004   0.002  0.00  0.00    -0.028 A 
ENDROOT
BRANCH   3   7
ATOM      7  C   UNL     1       3.658   2.162  -0.022  0.00  0.00    +0.140 C 
ATOM      8  N   UNL     1       3.715   3.339  -0.581  0.00  0.00    -0.383 N 
ATOM      9  N   UNL     1       4.779   1.624   0.559  0.00  0.00    -0.201 N 
ATOM     10  H   UNL     1       4.550   3.834  -0.587  0.00  0.00    +0.157 HD
ATOM     11  H   UNL     1       4.736   0.749   0.975  0.00  0.00    +0.209 HD
ATOM     12  H   UNL     1       2.923   3.720  -0.992  0.00  0.00    +0.157 HD
BRANCH   9  13
ATOM     13  O   UNL     1       5.997   2.346   0.550  0.00  0.00    -0.335 OA
BRANCH  13  14
ATOM     14  C   UNL     1       7.015   1.707   1.151  0.00  0.00    +0.365 C 
ATOM     15  O   UNL     1       6.839   0.607   1.639  0.00  0.00    -0.243 OA
BRANCH  14  16
ATOM     16  C   UNL     1       8.347   2.340   1.218  0.00  0.00    +0.080 A 
ATOM     17  C   UNL     1       8.551   3.606   0.664  0.00  0.00    +0.018 A 
ATOM     18  C   UNL     1       9.796   4.191   0.730  0.00  0.00    +0.021 A 
ATOM     19  C   UNL     1      10.846   3.528   1.345  0.00  0.00    +0.042 A 
ATOM     20  C   UNL     1      10.652   2.273   1.897  0.00  0.00    +0.040 A 
ATOM     21  C   UNL     1       9.408   1.678   1.842  0.00  0.00    +0.056 A 
ATOM     22 CL   UNL     1       9.163   0.107   2.541  0.00  0.00    -0.083 Cl
ATOM     23 CL   UNL     1      12.412   4.274   1.424  0.00  0.00    -0.083 Cl
ENDBRANCH  14  16
ENDBRANCH  13  14
ENDBRANCH   9  13
ENDBRANCH   3   7
BRANCH   6  24
ATOM     24  C   UNL     1      -1.294  -0.772   0.011  0.00  0.00    +0.160 C 
BRANCH  24  25
ATOM     25  N   UNL     1      -1.728  -1.014  -1.367  0.00  0.00    -0.310 N 
ATOM     26  C   UNL     1      -2.524  -0.106  -1.989  0.00  0.00    +0.101 A 
ATOM     27  C   UNL     1      -2.938  -0.308  -3.262  0.00  0.00    +0.071 A 
ATOM     28  C   UNL     1      -2.544  -1.463  -3.952  0.00  0.00    +0.019 A 
ATOM     29  C   UNL     1      -1.744  -2.373  -3.325  0.00  0.00    +0.071 A 
ATOM     30  C   UNL     1      -1.329  -2.131  -2.005  0.00  0.00    +0.252 A 
ATOM     31  O   UNL     1      -0.609  -2.935  -1.434  0.00  0.00    -0.268 OA
BRANCH  27  32
ATOM     32  C   UNL     1      -3.822   0.709  -3.937  0.00  0.00    +0.419 C 
ATOM     33  F   UNL     1      -3.033   1.588  -4.687  0.00  0.00    -0.166 F 
ATOM     34  F   UNL     1      -4.723   0.054  -4.783  0.00  0.00    -0.166 F 
ATOM     35  F   UNL     1      -4.530   1.428  -2.968  0.00  0.00    -0.166 F 
ENDBRANCH  27  32
ENDBRANCH  24  25
ENDBRANCH   6  24
TORSDOF 7
