REMARK  Name = ZINC39912588
REMARK  12 active torsions:
REMARK  status: ('A' for Active; 'I' for Inactive)
REMARK    1  A    between atoms: C_1  and  C_2
REMARK    2  A    between atoms: C_2  and  O_3
REMARK    3  A    between atoms: O_3  and  C_4
REMARK    4  A    between atoms: C_8  and  C_10
REMARK    5  A    between atoms: C_13  and  C_30
REMARK    6  A    between atoms: N_20  and  C_21
REMARK    7  A    between atoms: C_21  and  C_22
REMARK    8  A    between atoms: C_25  and  O_28
REMARK    9  A    between atoms: O_28  and  C_29
REMARK   10  A    between atoms: C_32  and  C_38
REMARK   11  A    between atoms: C_34  and  C_37
REMARK   12  A    between atoms: C_35  and  O_36
REMARK                            x       y       z     vdW  Elec       q    Type
REMARK                         _______ _______ _______ _____ _____    ______ ____
ROOT
ATOM      1  C   UNL     1      -4.279  -4.373   0.014  0.00  0.00    +0.142 C 
ATOM      2  C   UNL     1      -4.615  -4.937   1.368  0.00  0.00    +0.035 A 
ATOM      3  C   UNL     1      -4.798  -4.695   2.734  0.00  0.00    +0.102 A 
ATOM      4  N   UNL     1      -5.116  -5.843   3.298  0.00  0.00    -0.173 NA
ATOM      5  N   UNL     1      -5.152  -6.785   2.425  0.00  0.00    -0.272 N 
ATOM      6  H   UNL     1      -5.364  -7.713   2.614  0.00  0.00    +0.189 HD
ATOM      7  C   UNL     1      -4.848  -6.287   1.190  0.00  0.00    +0.126 A 
ATOM      8  C   UNL     1      -4.671  -6.607  -0.231  0.00  0.00    +0.266 C 
ATOM      9  O   UNL     1      -4.805  -7.715  -0.714  0.00  0.00    -0.268 OA
ATOM     10  N   UNL     1      -4.341  -5.502  -0.924  0.00  0.00    -0.281 N 
ENDROOT
BRANCH   3  11
ATOM     11  C   UNL     1      -4.659  -3.387   3.421  0.00  0.00    +0.044 A 
ATOM     12  C   UNL     1      -4.441  -2.228   2.680  0.00  0.00    +0.017 A 
ATOM     13  C   UNL     1      -4.312  -1.013   3.324  0.00  0.00    -0.049 A 
ATOM     14  C   UNL     1      -4.398  -0.943   4.703  0.00  0.00    +0.010 A 
ATOM     15  C   UNL     1      -4.614  -2.087   5.447  0.00  0.00    -0.008 A 
ATOM     16  C   UNL     1      -4.751  -3.312   4.813  0.00  0.00    +0.129 A 
ATOM     17  C   UNL     1      -4.706  -2.002   6.949  0.00  0.00    +0.047 C 
ATOM     18  C   UNL     1      -4.076   0.240   2.521  0.00  0.00    +0.044 C 
BRANCH  16  19
ATOM     19  O   UNL     1      -4.969  -4.437   5.543  0.00  0.00    -0.506 OA
ATOM     20  H   UNL     1      -4.161  -4.889   5.819  0.00  0.00    +0.292 HD
ENDBRANCH  16  19
ENDBRANCH   3  11
BRANCH   1  25
ATOM     21  C   UNL     1      -1.436  -1.889  -0.156  0.00  0.00    +0.121 A 
ATOM     22  C   UNL     1      -0.339  -2.713   0.052  0.00  0.00    +0.045 A 
ATOM     23  C   UNL     1      -0.522  -4.068   0.248  0.00  0.00    +0.004 A 
ATOM     24  C   UNL     1      -1.796  -4.604   0.236  0.00  0.00    +0.006 A 
ATOM     25  C   UNL     1      -2.891  -3.786   0.027  0.00  0.00    -0.019 A 
ATOM     26  C   UNL     1      -2.714  -2.429  -0.163  0.00  0.00    +0.051 A 
BRANCH  21  27
ATOM     27  O   UNL     1      -1.259  -0.556  -0.348  0.00  0.00    -0.492 OA
BRANCH  27  29
ATOM     28  C   UNL     1       0.084   1.442  -0.561  0.00  0.00    +0.048 C 
ATOM     29  C   UNL     1       0.085  -0.070  -0.329  0.00  0.00    +0.225 C 
ENDBRANCH  27  29
ENDBRANCH  21  27
ENDBRANCH   1  25
BRANCH  10  30
ATOM     30  C   UNL     1      -4.087  -5.434  -2.365  0.00  0.00    +0.144 C 
BRANCH  30  31
ATOM     31  C   UNL     1      -2.624  -5.678  -2.630  0.00  0.00    -0.030 A 
ATOM     32  C   UNL     1      -1.740  -4.615  -2.652  0.00  0.00    +0.009 A 
ATOM     33  C   UNL     1      -0.398  -4.837  -2.895  0.00  0.00    +0.046 A 
ATOM     34  C   UNL     1       0.063  -6.127  -3.115  0.00  0.00    +0.120 A 
ATOM     35  C   UNL     1      -0.826  -7.192  -3.091  0.00  0.00    +0.046 A 
ATOM     36  C   UNL     1      -2.166  -6.966  -2.843  0.00  0.00    +0.009 A 
BRANCH  34  37
ATOM     37  O   UNL     1       1.382  -6.347  -3.354  0.00  0.00    -0.495 OA
ATOM     38  C   UNL     1       1.785  -7.701  -3.572  0.00  0.00    +0.277 C 
ENDBRANCH  34  37
ENDBRANCH  30  31
ENDBRANCH  10  30
TORSDOF 8
