REMARK  Name = ZINC21782121
REMARK  11 active torsions:
REMARK  status: ('A' for Active; 'I' for Inactive)
REMARK    1  A    between atoms: C_1  and  C_2
REMARK    2  A    between atoms: C_5  and  C_39
REMARK    3  A    between atoms: N_8  and  C_10
REMARK    4  A    between atoms: C_10  and  C_11
REMARK    5  A    between atoms: C_11  and  C_12
REMARK    6  A    between atoms: C_12  and  N_13
REMARK    7  A    between atoms: C_14  and  C_16
REMARK    8  A    between atoms: C_16  and  C_38
REMARK    9  A    between atoms: C_21  and  O_36
REMARK   10  A    between atoms: N_29  and  C_30
REMARK   11  A    between atoms: O_36  and  C_37
REMARK                            x       y       z     vdW  Elec       q    Type
REMARK                         _______ _______ _______ _____ _____    ______ ____
ROOT
ATOM      1  C   UNL     1      -4.919   8.838   3.457  0.00  0.00    +0.129 C 
ATOM      2  C   UNL     1      -3.982   9.065   4.643  0.00  0.00    +0.157 C 
ATOM      3  N   UNL     1      -3.704   7.780   5.293  0.00  0.00    -0.334 N 
ATOM      4  C   UNL     1      -2.610   7.362   5.975  0.00  0.00    +0.053 A 
ATOM      5  C   UNL     1      -1.398   7.985   6.270  0.00  0.00    +0.072 A 
ATOM      6  C   UNL     1      -0.477   7.255   7.009  0.00  0.00    +0.122 A 
ATOM      7  C   UNL     1      -0.737   5.958   7.444  0.00  0.00    +0.046 A 
ATOM      8  C   UNL     1      -1.919   5.322   7.168  0.00  0.00    +0.013 A 
ATOM      9  C   UNL     1      -2.868   6.036   6.420  0.00  0.00    +0.001 A 
ATOM     10  C   UNL     1      -4.152   5.685   5.966  0.00  0.00    +0.041 A 
ATOM     11  C   UNL     1      -4.641   6.742   5.283  0.00  0.00    +0.106 A 
ATOM     12  C   UNL     1      -5.926   6.898   4.581  0.00  0.00    +0.264 C 
ATOM     13  O   UNL     1      -6.824   6.085   4.701  0.00  0.00    -0.268 OA
ATOM     14  N   UNL     1      -6.057   7.993   3.796  0.00  0.00    -0.278 N 
ATOM     15  C   UNL     1      -5.438  10.192   2.971  0.00  0.00    +0.043 C 
ENDROOT
BRANCH  14  16
ATOM     16  C   UNL     1      -7.381   8.339   3.273  0.00  0.00    +0.078 C 
ATOM     17  C   UNL     1      -8.369   8.472   4.434  0.00  0.00    +0.022 C 
ATOM     18  C   UNL     1      -9.752   8.834   3.887  0.00  0.00    +0.002 C 
ATOM     19  C   UNL     1     -10.228   7.734   2.936  0.00  0.00    +0.000 C 
ATOM     20  C   UNL     1      -9.240   7.600   1.776  0.00  0.00    +0.002 C 
ATOM     21  C   UNL     1      -7.857   7.239   2.322  0.00  0.00    +0.022 C 
ENDBRANCH  14  16
BRANCH   1  23
ATOM     22  N   UNL     1      -3.990   6.847   2.321  0.00  0.00    -0.314 N 
ATOM     23  C   UNL     1      -4.143   8.186   2.342  0.00  0.00    +0.238 C 
ATOM     24  O   UNL     1      -3.656   8.865   1.463  0.00  0.00    -0.273 OA
ATOM     25  H   UNL     1      -4.431   6.230   3.118  0.00  0.00    +0.149 HD
BRANCH  22  26
ATOM     26  C   UNL     1      -3.236   6.213   1.237  0.00  0.00    +0.102 C 
BRANCH  26  27
ATOM     27  C   UNL     1      -3.212   4.698   1.450  0.00  0.00    +0.000 C 
BRANCH  27  28
ATOM     28  C   UNL     1      -2.425   4.035   0.318  0.00  0.00    -0.077 C 
BRANCH  28  34
ATOM     29  C   UNL     1      -3.466   0.005  -0.308  0.00  0.00    +0.005 C 
ATOM     30  C   UNL     1      -1.991   0.378  -0.467  0.00  0.00    -0.031 C 
ATOM     31  C   UNL     1      -1.219  -0.040   0.787  0.00  0.00    +0.003 C 
ATOM     32  C   UNL     1      -1.765   0.728   1.994  0.00  0.00    -0.031 C 
ATOM     33  C   UNL     1      -1.647   2.231   1.732  0.00  0.00    -0.076 C 
ATOM     34  N   UNL     1      -2.402   2.581   0.523  0.00  0.00    +0.380 N 
ATOM     35  C   UNL     1      -1.865   1.892  -0.657  0.00  0.00    -0.076 C 
ATOM     36  C   UNL     1      -0.958   0.360   3.241  0.00  0.00    +0.005 C 
ATOM     37  H   UNL     1      -3.439   2.242   0.665  0.00  0.00    -0.082 HD
ENDBRANCH  28  34
ENDBRANCH  27  28
ENDBRANCH  26  27
ENDBRANCH  22  26
ENDBRANCH   1  23
BRANCH   6  38
ATOM     38  O   UNL     1       0.717   7.824   7.318  0.00  0.00    -0.495 OA
ATOM     39  C   UNL     1       1.634   7.036   8.079  0.00  0.00    +0.277 C 
ENDBRANCH   6  38
TORSDOF 7
