REMARK  Name = ZINC60376723
REMARK  7 active torsions:
REMARK  status: ('A' for Active; 'I' for Inactive)
REMARK    1  A    between atoms: C_1  and  C_2
REMARK    2  A    between atoms: C_4  and  C_27
REMARK    3  A    between atoms: C_5  and  C_26
REMARK    4  A    between atoms: C_6  and  S_9
REMARK    5  A    between atoms: C_7  and  C_8
REMARK    6  A    between atoms: S_9  and  N_12
REMARK    7  A    between atoms: C_14  and  C_23
REMARK                            x       y       z     vdW  Elec       q    Type
REMARK                         _______ _______ _______ _____ _____    ______ ____
ROOT
ATOM      1  N   UNL     1       1.860  -3.345   3.051  0.00  0.00    -0.202 N 
ATOM      2  C   UNL     1       2.441  -2.770   4.273  0.00  0.00    +0.144 C 
ATOM      3  C   UNL     1       3.783  -2.129   3.897  0.00  0.00    +0.098 C 
ATOM      4  C   UNL     1       4.729  -3.221   3.398  0.00  0.00    +0.051 C 
ATOM      5  C   UNL     1       4.064  -4.045   2.327  0.00  0.00    -0.024 A 
ATOM      6  C   UNL     1       2.683  -4.087   2.196  0.00  0.00    +0.054 A 
ATOM      7  C   UNL     1       2.099  -4.866   1.203  0.00  0.00    +0.025 A 
ATOM      8  C   UNL     1       2.893  -5.603   0.347  0.00  0.00    +0.002 A 
ATOM      9  C   UNL     1       4.269  -5.565   0.478  0.00  0.00    +0.000 A 
ATOM     10  C   UNL     1       4.854  -4.782   1.460  0.00  0.00    +0.005 A 
ENDROOT
BRANCH   3  11
ATOM     11  C   UNL     1       4.378  -1.458   5.108  0.00  0.00    +0.215 C 
ATOM     12  O   UNL     1       3.789  -1.486   6.168  0.00  0.00    -0.276 OA
ATOM     13  N   UNL     1       5.564  -0.825   5.013  0.00  0.00    -0.329 N 
ATOM     14  H   UNL     1       6.035  -0.802   4.165  0.00  0.00    +0.145 HD
ATOM     15  H   UNL     1       5.947  -0.393   5.792  0.00  0.00    +0.145 HD
ENDBRANCH   3  11
BRANCH   1  16
ATOM     16  S   UNL     1       0.258  -3.124   2.696  0.00  0.00    +0.075 S 
ATOM     17  O   UNL     1      -0.300  -2.389   3.776  0.00  0.00    -0.150 OA
ATOM     18  O   UNL     1      -0.247  -4.391   2.295  0.00  0.00    -0.150 OA
BRANCH  16  24
ATOM     19  C   UNL     1      -0.851  -2.304  -2.346  0.00  0.00    +0.044 C 
ATOM     20  C   UNL     1      -0.347  -1.759  -1.034  0.00  0.00    -0.045 A 
ATOM     21  C   UNL     1       0.053  -0.439  -0.942  0.00  0.00    +0.007 A 
ATOM     22  C   UNL     1       0.515   0.061   0.261  0.00  0.00    -0.045 A 
ATOM     23  C   UNL     1       0.578  -0.759   1.372  0.00  0.00    -0.021 A 
ATOM     24  C   UNL     1       0.178  -2.079   1.280  0.00  0.00    +0.115 A 
ATOM     25  C   UNL     1      -0.289  -2.578   0.078  0.00  0.00    -0.021 A 
ATOM     26  C   UNL     1      -0.730  -4.015  -0.021  0.00  0.00    +0.046 C 
ATOM     27  C   UNL     1       1.083  -0.214   2.683  0.00  0.00    +0.046 C 
ATOM     28  C   UNL     1       0.951   1.500   0.361  0.00  0.00    +0.044 C 
ENDBRANCH  16  24
ENDBRANCH   1  16
TORSDOF 3
