REMARK  Name = ZINC20713354
REMARK  6 active torsions:
REMARK  status: ('A' for Active; 'I' for Inactive)
REMARK    1  A    between atoms: C_4  and  N_7
REMARK    2  A    between atoms: N_7  and  C_8
REMARK    3  A    between atoms: C_11  and  N_14
REMARK    4  A    between atoms: C_15  and  C_17
REMARK    5  A    between atoms: C_24  and  C_33
REMARK    6  A    between atoms: C_38  and  N_39
REMARK                            x       y       z     vdW  Elec       q    Type
REMARK                         _______ _______ _______ _____ _____    ______ ____
ROOT
ATOM      1  C   UNL     1       8.246   6.269  -0.289  0.00  0.00    +0.058 A 
ATOM      2  C   UNL     1       9.477   5.625  -0.406  0.00  0.00    +0.015 A 
ATOM      3  C   UNL     1      10.642   6.360  -0.404  0.00  0.00    +0.001 A 
ATOM      4  C   UNL     1      10.588   7.740  -0.295  0.00  0.00    +0.006 A 
ATOM      5  C   UNL     1       9.380   8.393  -0.182  0.00  0.00    -0.019 A 
ATOM      6  C   UNL     1       8.181   7.673  -0.173  0.00  0.00    +0.044 A 
ATOM      7  N   UNL     1       6.931   8.245  -0.014  0.00  0.00    -0.336 N 
ATOM      8  C   UNL     1       6.872   9.715   0.028  0.00  0.00    +0.107 C 
ATOM      9  C   UNL     1       8.070  10.187   0.825  0.00  0.00    +0.029 C 
ATOM     10  C   UNL     1       9.297   9.866  -0.085  0.00  0.00    +0.049 C 
ATOM     11  C   UNL     1      10.378  10.694   0.504  0.00  0.00    -0.023 C 
ATOM     12  C   UNL     1       9.829  11.759   1.078  0.00  0.00    -0.030 C 
ATOM     13  C   UNL     1       8.306  11.697   0.943  0.00  0.00    +0.033 C 
ATOM     14  H   UNL     1       6.007   7.655   0.078  0.00  0.00    +0.147 HD
ENDROOT
BRANCH   8  15
ATOM     15  C   UNL     1       6.933  10.274  -1.370  0.00  0.00    +0.003 A 
ATOM     16  C   UNL     1       7.395   9.488  -2.409  0.00  0.00    +0.008 A 
ATOM     17  C   UNL     1       7.446   9.998  -3.692  0.00  0.00    +0.000 A 
ATOM     18  C   UNL     1       7.045  11.299  -3.935  0.00  0.00    +0.002 A 
ATOM     19  C   UNL     1       6.588  12.087  -2.896  0.00  0.00    +0.033 A 
ATOM     20  C   UNL     1       6.532  11.574  -1.613  0.00  0.00    +0.131 A 
BRANCH  20  21
ATOM     21  N   UNL     1       6.042  12.418  -0.499  0.00  0.00    +0.057 N 
ATOM     22  O   UNL     1       5.689  13.563  -0.713  0.00  0.00    -0.126 OA
ATOM     23  O   UNL     1       5.993  11.966   0.631  0.00  0.00    -0.126 OA
ENDBRANCH  20  21
ENDBRANCH   8  15
BRANCH   1  25
ATOM     24  N   UNL     1       7.059   4.135  -0.412  0.00  0.00    -0.281 N 
ATOM     25  C   UNL     1       7.003   5.477  -0.295  0.00  0.00    +0.250 C 
ATOM     26  O   UNL     1       5.926   6.034  -0.194  0.00  0.00    -0.270 OA
ATOM     27  H   UNL     1       8.025   3.638  -0.581  0.00  0.00    +0.155 HD
BRANCH  24  31
ATOM     28  C   UNL     1       3.569   1.870  -0.134  0.00  0.00    +0.031 A 
ATOM     29  C   UNL     1       3.536   3.127  -0.724  0.00  0.00    +0.025 A 
ATOM     30  C   UNL     1       4.690   3.879  -0.811  0.00  0.00    +0.025 A 
ATOM     31  C   UNL     1       5.886   3.374  -0.319  0.00  0.00    +0.034 A 
ATOM     32  C   UNL     1       5.921   2.115   0.266  0.00  0.00    +0.025 A 
ATOM     33  C   UNL     1       4.765   1.365   0.358  0.00  0.00    +0.025 A 
BRANCH  28  34
ATOM     34  N   UNL     1       2.397   1.110  -0.041  0.00  0.00    -0.314 N 
ATOM     35  H   UNL     1       2.440   0.018  -0.163  0.00  0.00    +0.152 HD
BRANCH  34  39
ATOM     36  C   UNL     1      -1.247   2.985   0.696  0.00  0.00    +0.000 A 
ATOM     37  C   UNL     1      -1.216   1.777   0.022  0.00  0.00    +0.002 A 
ATOM     38  C   UNL     1      -0.009   1.150  -0.219  0.00  0.00    +0.023 A 
ATOM     39  C   UNL     1       1.175   1.739   0.206  0.00  0.00    +0.031 A 
ATOM     40  C   UNL     1       1.140   2.955   0.878  0.00  0.00    +0.023 A 
ATOM     41  C   UNL     1      -0.070   3.573   1.121  0.00  0.00    +0.002 A 
ENDBRANCH  34  39
ENDBRANCH  28  34
ENDBRANCH  24  31
ENDBRANCH   1  25
TORSDOF 6
