REMARK  Name = ZINC20331666
REMARK  12 active torsions:
REMARK  status: ('A' for Active; 'I' for Inactive)
REMARK    1  A    between atoms: C_1  and  C_2
REMARK    2  A    between atoms: C_2  and  C_3
REMARK    3  A    between atoms: C_3  and  C_4
REMARK    4  A    between atoms: C_4  and  C_6
REMARK    5  A    between atoms: C_4  and  N_7
REMARK    6  A    between atoms: C_13  and  C_15
REMARK    7  A    between atoms: C_15  and  C_16
REMARK    8  A    between atoms: C_16  and  C_17
REMARK    9  A    between atoms: C_17  and  C_18
REMARK   10  A    between atoms: C_18  and  N_19
REMARK   11  A    between atoms: C_26  and  O_32
REMARK   12  A    between atoms: O_32  and  C_33
REMARK                            x       y       z     vdW  Elec       q    Type
REMARK                         _______ _______ _______ _____ _____    ______ ____
ROOT
ATOM      1  N   UNL     1      -1.817  -1.810  -0.957  0.00  0.00    -0.287 N 
ATOM      2  C   UNL     1      -1.872  -2.304  -2.209  0.00  0.00    +0.279 A 
ATOM      3  O   UNL     1      -1.873  -1.552  -3.167  0.00  0.00    -0.265 OA
ATOM      4  C   UNL     1      -1.924  -3.709  -2.402  0.00  0.00    +0.129 A 
ATOM      5  C   UNL     1      -1.927  -4.529  -1.288  0.00  0.00    +0.079 A 
ATOM      6  C   UNL     1      -1.990  -5.906  -1.777  0.00  0.00    +0.027 A 
ATOM      7  C   UNL     1      -2.021  -7.153  -1.145  0.00  0.00    +0.057 A 
ATOM      8  C   UNL     1      -2.082  -8.303  -1.904  0.00  0.00    +0.121 A 
ATOM      9  C   UNL     1      -2.115  -8.226  -3.295  0.00  0.00    +0.047 A 
ATOM     10  C   UNL     1      -2.085  -7.005  -3.929  0.00  0.00    +0.030 A 
ATOM     11  C   UNL     1      -2.023  -5.831  -3.182  0.00  0.00    +0.049 A 
ATOM     12  N   UNL     1      -1.982  -4.500  -3.538  0.00  0.00    -0.349 N 
ATOM     13  H   UNL     1      -1.990  -4.032  -4.534  0.00  0.00    +0.166 HD
ATOM     14  N   UNL     1      -1.874  -3.963  -0.027  0.00  0.00    -0.333 N 
ATOM     15  C   UNL     1      -1.820  -2.625   0.112  0.00  0.00    +0.161 A 
ATOM     16  S   UNL     1      -1.755  -1.948   1.683  0.00  0.00    -0.013 S 
ATOM     17  H   UNL     1      -1.875  -4.607   0.865  0.00  0.00    +0.168 HD
ENDROOT
BRANCH   8  18
ATOM     18  O   UNL     1      -2.112  -9.518  -1.293  0.00  0.00    -0.495 OA
ATOM     19  C   UNL     1      -2.176 -10.668  -2.138  0.00  0.00    +0.277 C 
ENDBRANCH   8  18
BRANCH   1  20
ATOM     20  C   UNL     1      -1.759  -0.360  -0.756  0.00  0.00    +0.127 C 
BRANCH  20  21
ATOM     21  C   UNL     1      -0.297   0.092  -0.723  0.00  0.00    +0.022 C 
BRANCH  21  22
ATOM     22  C   UNL     1      -0.236   1.607  -0.514  0.00  0.00    +0.011 C 
BRANCH  22  23
ATOM     23  C   UNL     1       1.225   2.058  -0.480  0.00  0.00    +0.096 C 
BRANCH  23  30
ATOM     24  N   UNL     1       4.763   5.517  -1.073  0.00  0.00    -0.297 NA
ATOM     25  C   UNL     1       3.473   6.219  -1.091  0.00  0.00    +0.103 C 
ATOM     26  C   UNL     1       2.559   5.629  -0.011  0.00  0.00    +0.123 C 
ATOM     27  N   UNL     1       2.478   4.174  -0.212  0.00  0.00    -0.299 N 
ATOM     28  C   UNL     1       3.733   3.418  -0.336  0.00  0.00    +0.123 C 
ATOM     29  C   UNL     1       4.600   4.096  -1.408  0.00  0.00    +0.103 C 
ATOM     30  C   UNL     1       1.285   3.550  -0.275  0.00  0.00    +0.216 C 
ATOM     31  O   UNL     1       0.260   4.189  -0.166  0.00  0.00    -0.276 OA
BRANCH  24  32
ATOM     32  C   UNL     1       5.726   6.163  -1.974  0.00  0.00    +0.054 C 
ATOM     33  C   UNL     1       5.313   5.914  -3.426  0.00  0.00    +0.024 C 
BRANCH  32  34
ATOM     34  C   UNL     1       7.120   5.580  -1.733  0.00  0.00    +0.018 C 
BRANCH  34  36
ATOM     35  C   UNL     1       8.970   5.336  -0.072  0.00  0.00    +0.004 C 
ATOM     36  C   UNL     1       7.576   5.919  -0.313  0.00  0.00    -0.002 C 
ENDBRANCH  34  36
ENDBRANCH  32  34
ENDBRANCH  24  32
ENDBRANCH  23  30
ENDBRANCH  22  23
ENDBRANCH  21  22
ENDBRANCH  20  21
ENDBRANCH   1  20
TORSDOF 9
