REMARK  Name = ZINC59501385
REMARK  3 active torsions:
REMARK  status: ('A' for Active; 'I' for Inactive)
REMARK    1  A    between atoms: C_10  and  C_11
REMARK    2  A    between atoms: C_14  and  C_17
REMARK    3  A    between atoms: C_22  and  N_23
REMARK                            x       y       z     vdW  Elec       q    Type
REMARK                         _______ _______ _______ _____ _____    ______ ____
ROOT
ATOM      1  C   UNL     1       4.945   0.133  -0.046  0.00  0.00    +0.124 C 
ATOM      2  N   UNL     1       5.111   1.423  -0.036  0.00  0.00    -0.178 NA
ATOM      3  N   UNL     1       6.350   2.024  -0.046  0.00  0.00    -0.250 N 
ATOM      4  C   UNL     1       7.502   1.095  -0.069  0.00  0.00    +0.185 C 
ATOM      5  S   UNL     1       6.609  -0.514  -0.065  0.00  0.00    -0.075 S 
ATOM      6  H   UNL     1       6.460   2.987  -0.038  0.00  0.00    +0.170 HD
ENDROOT
BRANCH   1  16
ATOM      7  C   UNL     1      -0.016   1.357   0.009  0.00  0.00    +0.001 A 
ATOM      8  C   UNL     1       1.168   2.090   0.002  0.00  0.00    +0.001 A 
ATOM      9  C   UNL     1       2.379   1.464  -0.013  0.00  0.00    +0.009 A 
ATOM     10  C   UNL     1       2.436   0.064  -0.021  0.00  0.00    -0.008 A 
ATOM     11  C   UNL     1       1.233  -0.683  -0.013  0.00  0.00    -0.017 A 
ATOM     12  C   UNL     1       0.002  -0.004   0.002  0.00  0.00    +0.008 A 
ATOM     13  C   UNL     1       1.289  -2.087  -0.021  0.00  0.00    +0.008 A 
ATOM     14  C   UNL     1       2.494  -2.723  -0.037  0.00  0.00    +0.001 A 
ATOM     15  C   UNL     1       3.685  -2.008  -0.045  0.00  0.00    +0.011 A 
ATOM     16  C   UNL     1       3.677  -0.621  -0.037  0.00  0.00    +0.016 A 
ENDBRANCH   1  16
BRANCH   4  17
ATOM     17  C   UNL     1       8.354   1.247   1.164  0.00  0.00    +0.018 A 
ATOM     18  C   UNL     1       7.860   1.922   2.265  0.00  0.00    +0.058 A 
ATOM     19  C   UNL     1       8.641   2.064   3.400  0.00  0.00    +0.167 A 
ATOM     20  C   UNL     1       9.925   1.524   3.429  0.00  0.00    +0.168 A 
ATOM     21  C   UNL     1      10.414   0.849   2.322  0.00  0.00    +0.082 A 
ATOM     22  C   UNL     1       9.626   0.707   1.195  0.00  0.00    +0.136 A 
ATOM     23  O   UNL     1      10.485   1.795   4.644  0.00  0.00    -0.453 OA
ATOM     24  C   UNL     1       9.689   2.855   5.206  0.00  0.00    +0.466 C 
ATOM     25  O   UNL     1       8.397   2.673   4.597  0.00  0.00    -0.453 OA
BRANCH  22  26
ATOM     26  N   UNL     1      10.148  -0.020   0.016  0.00  0.00    +0.057 N 
ATOM     27  O   UNL     1      11.260  -0.494   0.042  0.00  0.00    -0.126 OA
ATOM     28  O   UNL     1       9.462  -0.141  -0.972  0.00  0.00    -0.126 OA
ENDBRANCH  22  26
ENDBRANCH   4  17
TORSDOF 3
