REMARK  Name = ZINC01450787
REMARK  4 active torsions:
REMARK  status: ('A' for Active; 'I' for Inactive)
REMARK    1  A    between atoms: C_6  and  C_7
REMARK    2  A    between atoms: C_8  and  C_9
REMARK    3  A    between atoms: C_8  and  C_11
REMARK    4  A    between atoms: N_13  and  C_14
REMARK                            x       y       z     vdW  Elec       q    Type
REMARK                         _______ _______ _______ _____ _____    ______ ____
ROOT
ATOM      1  C   UNL     1      -2.417   4.263   0.037  0.00  0.00    +0.032 C 
ATOM      2  C   UNL     1      -1.214   3.590   0.023  0.00  0.00    +0.114 C 
ENDROOT
BRANCH   1   8
ATOM      3  C   UNL     1      -3.470   6.355   0.861  0.00  0.00    +0.012 A 
ATOM      4  C   UNL     1      -3.485   7.727   0.974  0.00  0.00    +0.050 A 
ATOM      5  C   UNL     1      -2.485   8.489   0.383  0.00  0.00    +0.166 A 
ATOM      6  C   UNL     1      -1.455   7.866  -0.327  0.00  0.00    +0.167 A 
ATOM      7  C   UNL     1      -1.429   6.492  -0.442  0.00  0.00    +0.057 A 
ATOM      8  C   UNL     1      -2.438   5.722   0.155  0.00  0.00    -0.020 A 
ATOM      9  O   UNL     1      -0.612   8.828  -0.804  0.00  0.00    -0.453 OA
ATOM     10  C   UNL     1      -0.906  10.011  -0.037  0.00  0.00    +0.466 C 
ATOM     11  O   UNL     1      -2.283   9.837   0.347  0.00  0.00    -0.453 OA
ENDBRANCH   1   8
BRANCH   2  12
ATOM     12  C   UNL     1      -1.181   2.147  -0.263  0.00  0.00    +0.255 C 
ATOM     13  O   UNL     1      -2.215   1.548  -0.487  0.00  0.00    -0.269 OA
ATOM     14  N   UNL     1      -0.004   1.490  -0.276  0.00  0.00    -0.308 N 
ATOM     15  H   UNL     1       0.821   1.968  -0.101  0.00  0.00    +0.149 HD
BRANCH  14  16
ATOM     16  C   UNL     1       0.028   0.053  -0.560  0.00  0.00    +0.073 C 
ATOM     17  C   UNL     1      -0.220  -0.729   0.731  0.00  0.00    +0.022 C 
ATOM     18  C   UNL     1      -0.185  -2.229   0.434  0.00  0.00    +0.002 C 
ATOM     19  C   UNL     1       1.184  -2.605  -0.135  0.00  0.00    +0.000 C 
ATOM     20  C   UNL     1       1.433  -1.824  -1.426  0.00  0.00    +0.002 C 
ATOM     21  C   UNL     1       1.398  -0.323  -1.129  0.00  0.00    +0.022 C 
ENDBRANCH  14  16
ENDBRANCH   2  12
BRANCH   2  22
ATOM     22  C   UNL     1       0.004   4.296   0.287  0.00  0.00    +0.104 C 
ATOM     23  N   UNL     1       0.970   4.856   0.497  0.00  0.00    -0.191 NA
ENDBRANCH   2  22
TORSDOF 4
