REMARK  Name = ZINC06473982
REMARK  9 active torsions:
REMARK  status: ('A' for Active; 'I' for Inactive)
REMARK    1  A    between atoms: C_4  and  C_7
REMARK    2  A    between atoms: C_7  and  C_9
REMARK    3  A    between atoms: C_7  and  N_61
REMARK    4  A    between atoms: C_9  and  N_10
REMARK    5  A    between atoms: N_10  and  S_11
REMARK    6  A    between atoms: S_11  and  C_14
REMARK    7  A    between atoms: N_23  and  C_26
REMARK    8  A    between atoms: C_26  and  N_28
REMARK    9  A    between atoms: N_28  and  C_29
REMARK                            x       y       z     vdW  Elec       q    Type
REMARK                         _______ _______ _______ _____ _____    ______ ____
ROOT
ATOM      1  C   UNL     1       2.240   4.914   3.873  0.00  0.00    -0.022 C 
ENDROOT
BRANCH   1   7
ATOM      2  C   UNL     1       0.680   6.722   3.467  0.00  0.00    -0.059 C 
ATOM      3  C   UNL     1       0.586   8.212   3.123  0.00  0.00    +0.088 C 
ATOM      4  N   UNL     1       1.228   8.431   1.818  0.00  0.00    -0.316 N 
ATOM      5  C   UNL     1       2.586   7.905   1.613  0.00  0.00    +0.088 C 
ATOM      6  C   UNL     1       2.601   6.427   2.017  0.00  0.00    -0.059 C 
ATOM      7  N   UNL     1       2.099   6.308   3.403  0.00  0.00    +0.387 N 
ATOM      8  H   UNL     1       2.652   6.923   4.012  0.00  0.00    -0.081 HD
BRANCH   4   9
ATOM      9  C   UNL     1       0.588   9.097   0.836  0.00  0.00    +0.137 C 
ATOM     10  S   UNL     1       1.301   9.226  -0.715  0.00  0.00    -0.018 S 
BRANCH   9  11
ATOM     11  N   UNL     1      -0.613   9.660   1.075  0.00  0.00    -0.297 N 
ATOM     12  H   UNL     1      -1.424   9.214   0.784  0.00  0.00    +0.154 HD
BRANCH  11  13
ATOM     13  C   UNL     1      -0.689  10.888   1.741  0.00  0.00    +0.033 A 
ATOM     14  C   UNL     1       0.472  11.576   2.067  0.00  0.00    +0.023 A 
ATOM     15  C   UNL     1       0.393  12.790   2.720  0.00  0.00    +0.002 A 
ATOM     16  C   UNL     1      -0.840  13.316   3.059  0.00  0.00    +0.000 A 
ATOM     17  C   UNL     1      -1.998  12.630   2.740  0.00  0.00    +0.002 A 
ATOM     18  C   UNL     1      -1.926  11.418   2.083  0.00  0.00    +0.023 A 
ENDBRANCH  11  13
ENDBRANCH   9  11
ENDBRANCH   4   9
ENDBRANCH   1   7
BRANCH   1  22
ATOM     19  C   UNL     1       5.996   4.533   5.871  0.00  0.00    +0.000 A 
ATOM     20  C   UNL     1       4.855   3.989   6.433  0.00  0.00    +0.000 A 
ATOM     21  C   UNL     1       3.640   4.113   5.786  0.00  0.00    +0.002 A 
ATOM     22  C   UNL     1       3.565   4.780   4.578  0.00  0.00    -0.060 A 
ATOM     23  C   UNL     1       4.706   5.319   4.014  0.00  0.00    +0.002 A 
ATOM     24  C   UNL     1       5.920   5.200   4.663  0.00  0.00    +0.000 A 
ENDBRANCH   1  22
BRANCH   1  25
ATOM     25  C   UNL     1       2.191   3.945   2.690  0.00  0.00    +0.095 C 
BRANCH  25  26
ATOM     26  N   UNL     1       0.905   4.080   2.001  0.00  0.00    -0.191 NA
ATOM     27  H   UNL     1       0.152   4.491   2.454  0.00  0.00    +0.148 HD
BRANCH  26  28
ATOM     28  S   UNL     1       0.736   3.530   0.448  0.00  0.00    +0.058 S 
ATOM     29  O   UNL     1       1.837   4.047  -0.287  0.00  0.00    -0.153 OA
ATOM     30  O   UNL     1      -0.613   3.777   0.074  0.00  0.00    -0.153 OA
BRANCH  28  31
ATOM     31  C   UNL     1       0.935   1.780   0.490  0.00  0.00    +0.105 A 
ATOM     32  C   UNL     1      -0.164   0.964   0.680  0.00  0.00    +0.030 A 
ATOM     33  C   UNL     1      -0.009  -0.409   0.713  0.00  0.00    +0.022 A 
ATOM     34  C   UNL     1       1.248  -0.966   0.555  0.00  0.00    +0.041 A 
ATOM     35  C   UNL     1       2.348  -0.149   0.364  0.00  0.00    +0.022 A 
ATOM     36  C   UNL     1       2.191   1.224   0.332  0.00  0.00    +0.030 A 
ATOM     37 CL   UNL     1       1.444  -2.691   0.596  0.00  0.00    -0.084 Cl
ENDBRANCH  28  31
ENDBRANCH  26  28
ENDBRANCH  25  26
ENDBRANCH   1  25
TORSDOF 9
