REMARK  Name = ZINC48365672
REMARK  15 active torsions:
REMARK  status: ('A' for Active; 'I' for Inactive)
REMARK    1  A    between atoms: C_1  and  C_2
REMARK    2  A    between atoms: C_2  and  C_3
REMARK    3  A    between atoms: C_3  and  C_4
REMARK    4  A    between atoms: C_3  and  C_5
REMARK    5  A    between atoms: C_3  and  C_6
REMARK    6  A    between atoms: N_14  and  C_18
REMARK    7  A    between atoms: C_18  and  C_19
REMARK    8  A    between atoms: N_21  and  N_22
REMARK    9  A    between atoms: C_23  and  C_25
REMARK   10  A    between atoms: C_28  and  C_30
REMARK   11  A    between atoms: C_30  and  N_31
REMARK   12  A    between atoms: N_31  and  C_32
REMARK   13  A    between atoms: N_31  and  C_34
REMARK   14  A    between atoms: C_32  and  C_33
REMARK   15  A    between atoms: C_34  and  C_35
REMARK                            x       y       z     vdW  Elec       q    Type
REMARK                         _______ _______ _______ _____ _____    ______ ____
ROOT
ATOM      1  C   UNL     1       3.134  -7.625  -2.886  0.00  0.00    +0.247 C 
ATOM      2  O   UNL     1       3.156  -6.960  -3.900  0.00  0.00    -0.273 OA
ATOM      3  N   UNL     1       3.467  -8.930  -2.930  0.00  0.00    -0.233 N 
ATOM      4  H   UNL     1       3.450  -9.463  -2.119  0.00  0.00    +0.173 HD
ENDROOT
BRANCH   3   5
ATOM      5  N   UNL     1       3.839  -9.518  -4.146  0.00  0.00    -0.228 N 
ATOM      6  C   UNL     1       4.172 -10.824  -4.189  0.00  0.00    +0.295 C 
ATOM      7  O   UNL     1       4.150 -11.491  -3.172  0.00  0.00    -0.265 OA
ATOM      8  H   UNL     1       3.856  -8.986  -4.957  0.00  0.00    +0.173 HD
BRANCH   6   9
ATOM      9  C   UNL     1       4.561 -11.439  -5.462  0.00  0.00    +0.191 A 
ATOM     10  C   UNL     1       4.915 -12.745  -5.647  0.00  0.00    +0.055 A 
ATOM     11  C   UNL     1       5.207 -12.895  -7.012  0.00  0.00    +0.043 A 
ATOM     12  C   UNL     1       5.021 -11.689  -7.593  0.00  0.00    +0.090 A 
ATOM     13  O   UNL     1       4.626 -10.816  -6.657  0.00  0.00    -0.457 OA
BRANCH  12  14
ATOM     14  C   UNL     1       5.220 -11.379  -9.054  0.00  0.00    -0.003 C 
BRANCH  14  15
ATOM     15  N   UNL     1       3.961 -11.602  -9.778  0.00  0.00    +0.384 N 
ATOM     16  H   UNL     1       3.637 -12.542  -9.606  0.00  0.00    -0.081 HD
BRANCH  15  17
ATOM     17  C   UNL     1       2.951 -10.643  -9.311  0.00  0.00    -0.082 C 
ATOM     18  C   UNL     1       1.602 -10.968  -9.955  0.00  0.00    -0.017 C 
ENDBRANCH  15  17
BRANCH  15  19
ATOM     19  C   UNL     1       4.185 -11.416 -11.218  0.00  0.00    -0.082 C 
ATOM     20  C   UNL     1       5.128 -12.505 -11.732  0.00  0.00    -0.017 C 
ENDBRANCH  15  19
ENDBRANCH  14  15
ENDBRANCH  12  14
ENDBRANCH   6   9
ENDBRANCH   3   5
BRANCH   1  21
ATOM     21  C   UNL     1       2.734  -6.993  -1.578  0.00  0.00    +0.215 C 
BRANCH  21  30
ATOM     22  C   UNL     1       0.308  -0.935  -2.735  0.00  0.00    -0.005 C 
ATOM     23  C   UNL     1       0.686  -1.386  -1.323  0.00  0.00    +0.006 C 
ATOM     24  C   UNL     1       0.483  -2.899  -1.201  0.00  0.00    +0.035 C 
ATOM     25  C   UNL     1       1.352  -3.614  -2.230  0.00  0.00    +0.113 C 
ATOM     26  C   UNL     1       1.001  -3.158  -3.642  0.00  0.00    +0.035 C 
ATOM     27  C   UNL     1       1.201  -1.644  -3.756  0.00  0.00    +0.006 C 
ATOM     28  C   UNL     1       1.194  -5.111  -2.105  0.00  0.00    +0.247 C 
ATOM     29  O   UNL     1       0.179  -5.757  -2.252  0.00  0.00    -0.273 OA
ATOM     30  N   UNL     1       2.422  -5.578  -1.795  0.00  0.00    -0.215 N 
ATOM     31  C   UNL     1       3.319  -4.588  -1.710  0.00  0.00    +0.310 C 
ATOM     32  O   UNL     1       4.492  -4.760  -1.444  0.00  0.00    -0.252 OA
ATOM     33  N   UNL     1       2.775  -3.380  -1.953  0.00  0.00    -0.285 N 
ATOM     34  H   UNL     1       3.233  -2.525  -1.947  0.00  0.00    +0.151 HD
BRANCH  22  35
ATOM     35  C   UNL     1       0.500   0.578  -2.855  0.00  0.00    -0.032 C 
ATOM     36  C   UNL     1       0.120   1.030  -4.267  0.00  0.00    +0.011 C 
ATOM     37  C   UNL     1       1.964   0.930  -2.584  0.00  0.00    +0.011 C 
BRANCH  35  39
ATOM     38  C   UNL     1      -0.202   2.801  -1.955  0.00  0.00    +0.004 C 
ATOM     39  C   UNL     1      -0.393   1.288  -1.835  0.00  0.00    +0.003 C 
ENDBRANCH  35  39
ENDBRANCH  22  35
ENDBRANCH  21  30
ENDBRANCH   1  21
TORSDOF 10
