REMARK  Name = ZINC14470552
REMARK  7 active torsions:
REMARK  status: ('A' for Active; 'I' for Inactive)
REMARK    1  A    between atoms: C_4  and  C_7
REMARK    2  A    between atoms: C_7  and  C_8
REMARK    3  A    between atoms: C_8  and  N_9
REMARK    4  A    between atoms: N_9  and  S_10
REMARK    5  A    between atoms: S_10  and  C_13
REMARK    6  A    between atoms: C_26  and  C_29
REMARK    7  A    between atoms: C_33  and  N_35
REMARK                            x       y       z     vdW  Elec       q    Type
REMARK                         _______ _______ _______ _____ _____    ______ ____
ROOT
ATOM      1  C   UNL     1       2.768   5.087  -0.739  0.00  0.00    +0.106 A 
ATOM      2  C   UNL     1       1.661   5.749  -1.238  0.00  0.00    +0.030 A 
ATOM      3  C   UNL     1       0.456   5.084  -1.346  0.00  0.00    +0.025 A 
ATOM      4  C   UNL     1       0.359   3.754  -0.953  0.00  0.00    +0.031 A 
ATOM      5  C   UNL     1       1.463   3.089  -0.450  0.00  0.00    -0.018 A 
ATOM      6  C   UNL     1       2.671   3.767  -0.348  0.00  0.00    +0.034 A 
ATOM      7  C   UNL     1       1.419   1.652  -0.003  0.00  0.00    +0.049 C 
ATOM      8  C   UNL     1       1.807   1.620   1.470  0.00  0.00    -0.023 C 
ATOM      9  C   UNL     1       0.737   1.606   2.225  0.00  0.00    -0.030 C 
ATOM     10  C   UNL     1      -0.517   1.622   1.369  0.00  0.00    +0.033 C 
ATOM     11  C   UNL     1      -0.013   1.086   0.008  0.00  0.00    +0.029 C 
ATOM     12  C   UNL     1      -0.848   1.617  -1.142  0.00  0.00    +0.105 C 
ATOM     13  N   UNL     1      -0.868   3.093  -1.079  0.00  0.00    -0.336 N 
ATOM     14  H   UNL     1      -1.701   3.588  -1.127  0.00  0.00    +0.147 HD
ENDROOT
BRANCH  12  15
ATOM     15  C   UNL     1      -0.243   1.172  -2.449  0.00  0.00    -0.025 A 
ATOM     16  C   UNL     1       0.845   1.845  -2.972  0.00  0.00    +0.007 A 
ATOM     17  C   UNL     1       1.399   1.438  -4.171  0.00  0.00    +0.022 A 
ATOM     18  C   UNL     1       0.865   0.354  -4.846  0.00  0.00    +0.071 A 
ATOM     19  C   UNL     1      -0.223  -0.319  -4.322  0.00  0.00    +0.145 A 
ATOM     20  C   UNL     1      -0.773   0.086  -3.121  0.00  0.00    +0.039 A 
ATOM     21 CL   UNL     1       1.562  -0.159  -6.352  0.00  0.00    -0.081 Cl
BRANCH  19  22
ATOM     22  N   UNL     1      -0.794  -1.478  -5.044  0.00  0.00    +0.058 N 
ATOM     23  O   UNL     1      -1.753  -2.071  -4.582  0.00  0.00    -0.126 OA
ATOM     24  O   UNL     1      -0.306  -1.839  -6.100  0.00  0.00    -0.126 OA
ENDBRANCH  19  22
ENDBRANCH  12  15
BRANCH   1  25
ATOM     25  S   UNL     1       4.308   5.931  -0.603  0.00  0.00    +0.058 S 
ATOM     26  O   UNL     1       4.006   7.317  -0.524  0.00  0.00    -0.153 OA
ATOM     27  O   UNL     1       5.054   5.255   0.400  0.00  0.00    -0.153 OA
BRANCH  25  28
ATOM     28  N   UNL     1       5.119   5.703  -2.029  0.00  0.00    -0.190 NA
ATOM     29  H   UNL     1       5.948   5.200  -2.041  0.00  0.00    +0.148 HD
BRANCH  28  30
ATOM     30  C   UNL     1       4.584   6.263  -3.273  0.00  0.00    +0.110 C 
BRANCH  30  31
ATOM     31  C   UNL     1       5.671   6.244  -4.349  0.00  0.00    +0.052 C 
BRANCH  31  35
ATOM     32  C   UNL     1       4.112   7.876  -7.976  0.00  0.00    +0.000 A 
ATOM     33  C   UNL     1       4.718   8.704  -7.050  0.00  0.00    +0.000 A 
ATOM     34  C   UNL     1       5.223   8.176  -5.877  0.00  0.00    +0.003 A 
ATOM     35  C   UNL     1       5.121   6.820  -5.629  0.00  0.00    -0.046 A 
ATOM     36  C   UNL     1       4.519   5.991  -6.557  0.00  0.00    +0.003 A 
ATOM     37  C   UNL     1       4.011   6.519  -7.729  0.00  0.00    +0.000 A 
ENDBRANCH  31  35
ENDBRANCH  30  31
ENDBRANCH  28  30
ENDBRANCH  25  28
ENDBRANCH   1  25
TORSDOF 7
