REMARK  Name = ZINC13495035
REMARK  12 active torsions:
REMARK  status: ('A' for Active; 'I' for Inactive)
REMARK    1  A    between atoms: C_1  and  C_2
REMARK    2  A    between atoms: C_2  and  C_3
REMARK    3  A    between atoms: C_3  and  C_5
REMARK    4  A    between atoms: C_3  and  N_18
REMARK    5  A    between atoms: N_9  and  C_10
REMARK    6  A    between atoms: C_10  and  C_11
REMARK    7  A    between atoms: N_18  and  C_19
REMARK    8  A    between atoms: N_18  and  C_27
REMARK    9  A    between atoms: C_19  and  C_20
REMARK   10  A    between atoms: C_27  and  C_28
REMARK   11  A    between atoms: C_32  and  C_41
REMARK   12  A    between atoms: C_34  and  C_40
REMARK                            x       y       z     vdW  Elec       q    Type
REMARK                         _______ _______ _______ _____ _____    ______ ____
ROOT
ATOM      1  N   UNL     1      -0.160  -0.269  -2.480  0.00  0.00    -0.284 NA
ENDROOT
BRANCH   1   2
ATOM      2  C   UNL     1       0.882  -0.591  -1.496  0.00  0.00    +0.127 C 
BRANCH   2   3
ATOM      3  C   UNL     1       2.238  -0.320  -2.094  0.00  0.00    +0.169 A 
ATOM      4  N   UNL     1       2.644  -0.652  -3.295  0.00  0.00    -0.112 NA
ATOM      5  N   UNL     1       3.860  -0.247  -3.431  0.00  0.00    -0.023 NA
ATOM      6  N   UNL     1       4.240   0.335  -2.347  0.00  0.00    -0.044 NA
ATOM      7  N   UNL     1       3.266   0.315  -1.501  0.00  0.00    -0.223 N 
BRANCH   7   8
ATOM      8  C   UNL     1       3.278   0.875  -0.147  0.00  0.00    +0.182 C 
BRANCH   8   9
ATOM      9  C   UNL     1       3.755  -0.173   0.826  0.00  0.00    -0.026 A 
ATOM     10  C   UNL     1       2.844  -1.021   1.428  0.00  0.00    +0.008 A 
ATOM     11  C   UNL     1       3.280  -1.982   2.320  0.00  0.00    +0.038 A 
ATOM     12  C   UNL     1       4.629  -2.096   2.610  0.00  0.00    +0.123 A 
ATOM     13  C   UNL     1       5.540  -1.246   2.007  0.00  0.00    +0.038 A 
ATOM     14  C   UNL     1       5.102  -0.289   1.111  0.00  0.00    +0.008 A 
ATOM     15  F   UNL     1       5.056  -3.035   3.482  0.00  0.00    -0.205 F 
ENDBRANCH   8   9
ENDBRANCH   7   8
ENDBRANCH   2   3
BRANCH   2  17
ATOM     16  C   UNL     1      -0.550  -2.318  -0.397  0.00  0.00    +0.006 C 
ATOM     17  C   UNL     1       0.780  -2.068  -1.110  0.00  0.00    +0.023 C 
ENDBRANCH   2  17
ENDBRANCH   1   2
BRANCH   1  18
ATOM     18  C   UNL     1       0.087  -0.959  -3.753  0.00  0.00    +0.120 C 
BRANCH  18  19
ATOM     19  C   UNL     1      -1.169  -0.944  -4.585  0.00  0.00    -0.033 A 
ATOM     20  C   UNL     1      -2.142  -1.906  -4.386  0.00  0.00    +0.008 A 
ATOM     21  C   UNL     1      -3.294  -1.893  -5.147  0.00  0.00    +0.038 A 
ATOM     22  C   UNL     1      -3.475  -0.915  -6.111  0.00  0.00    +0.123 A 
ATOM     23  C   UNL     1      -2.501   0.048  -6.310  0.00  0.00    +0.038 A 
ATOM     24  C   UNL     1      -1.351   0.036  -5.543  0.00  0.00    +0.008 A 
ATOM     25  F   UNL     1      -4.602  -0.902  -6.857  0.00  0.00    -0.205 F 
ENDBRANCH  18  19
ENDBRANCH   1  18
BRANCH   1  26
ATOM     26  C   UNL     1      -0.266   1.182  -2.680  0.00  0.00    +0.126 C 
BRANCH  26  27
ATOM     27  C   UNL     1      -0.991   1.799  -1.511  0.00  0.00    +0.031 A 
ATOM     28  C   UNL     1      -0.285   2.364  -0.500  0.00  0.00    +0.020 A 
ATOM     29  C   UNL     1      -1.019   2.954   0.620  0.00  0.00    -0.001 A 
ATOM     30  C   UNL     1      -0.346   3.552   1.691  0.00  0.00    +0.013 A 
ATOM     31  C   UNL     1      -1.060   4.095   2.722  0.00  0.00    -0.050 A 
ATOM     32  C   UNL     1      -2.448   4.058   2.716  0.00  0.00    +0.008 A 
ATOM     33  C   UNL     1      -3.132   3.474   1.672  0.00  0.00    -0.026 A 
ATOM     34  C   UNL     1      -2.426   2.915   0.611  0.00  0.00    +0.052 A 
ATOM     35  N   UNL     1      -3.084   2.325  -0.447  0.00  0.00    -0.322 N 
ATOM     36  H   UNL     1      -4.054   2.299  -0.452  0.00  0.00    +0.169 HD
ATOM     37  C   UNL     1      -2.401   1.790  -1.475  0.00  0.00    +0.254 A 
ATOM     38  O   UNL     1      -3.017   1.282  -2.396  0.00  0.00    -0.268 OA
ATOM     39  C   UNL     1      -4.638   3.439   1.679  0.00  0.00    +0.046 C 
ATOM     40  C   UNL     1      -0.335   4.739   3.875  0.00  0.00    +0.044 C 
ENDBRANCH  26  27
ENDBRANCH   1  26
TORSDOF 9
