REMARK  Name = ZINC34791926
REMARK  11 active torsions:
REMARK  status: ('A' for Active; 'I' for Inactive)
REMARK    1  A    between atoms: C_1  and  C_2
REMARK    2  A    between atoms: C_2  and  C_3
REMARK    3  A    between atoms: C_2  and  N_4
REMARK    4  A    between atoms: C_5  and  C_7
REMARK    5  A    between atoms: C_7  and  C_9
REMARK    6  A    between atoms: C_7  and  N_16
REMARK    7  A    between atoms: C_9  and  C_10
REMARK    8  A    between atoms: C_22  and  C_31
REMARK    9  A    between atoms: N_27  and  C_28
REMARK   10  A    between atoms: C_28  and  C_29
REMARK   11  A    between atoms: C_36  and  C_37
REMARK                            x       y       z     vdW  Elec       q    Type
REMARK                         _______ _______ _______ _____ _____    ______ ____
ROOT
ATOM      1  N   UNL     1      -2.984  -2.420  -2.142  0.00  0.00    -0.280 N 
ATOM      2  C   UNL     1      -3.443  -3.306  -1.061  0.00  0.00    +0.160 C 
ATOM      3  C   UNL     1      -3.310  -4.704  -1.621  0.00  0.00    +0.043 C 
ATOM      4  C   UNL     1      -2.828  -4.567  -2.873  0.00  0.00    +0.058 C 
ATOM      5  C   UNL     1      -2.640  -3.204  -3.180  0.00  0.00    +0.247 C 
ATOM      6  O   UNL     1      -2.219  -2.790  -4.244  0.00  0.00    -0.270 OA
ATOM      7  C   UNL     1      -2.593  -5.828  -3.679  0.00  0.00    +0.142 C 
ATOM      8  N   UNL     1      -2.913  -7.108  -3.024  0.00  0.00    -0.288 N 
ATOM      9  C   UNL     1      -3.390  -7.082  -1.764  0.00  0.00    +0.307 C 
ATOM     10  O   UNL     1      -3.656  -8.133  -1.215  0.00  0.00    -0.252 OA
ATOM     11  N   UNL     1      -3.578  -5.936  -1.097  0.00  0.00    -0.253 N 
ATOM     12  H   UNL     1      -2.785  -7.949  -3.489  0.00  0.00    +0.151 HD
ENDROOT
BRANCH   7  13
ATOM     13  C   UNL     1      -1.140  -5.862  -4.077  0.00  0.00    -0.011 A 
ATOM     14  C   UNL     1      -0.169  -6.120  -3.127  0.00  0.00    +0.006 A 
ATOM     15  C   UNL     1       1.164  -6.151  -3.492  0.00  0.00    +0.000 A 
ATOM     16  C   UNL     1       1.526  -5.923  -4.807  0.00  0.00    +0.001 A 
ATOM     17  C   UNL     1       0.555  -5.665  -5.757  0.00  0.00    +0.013 A 
ATOM     18  C   UNL     1      -0.778  -5.639  -5.393  0.00  0.00    +0.060 A 
BRANCH  18  19
ATOM     19  C   UNL     1      -1.837  -5.363  -6.429  0.00  0.00    +0.418 C 
ATOM     20  F   UNL     1      -1.227  -5.104  -7.661  0.00  0.00    -0.166 F 
ATOM     21  F   UNL     1      -2.674  -6.478  -6.548  0.00  0.00    -0.166 F 
ATOM     22  F   UNL     1      -2.593  -4.252  -6.039  0.00  0.00    -0.166 F 
ENDBRANCH  18  19
ENDBRANCH   7  13
BRANCH   1  23
ATOM     23  C   UNL     1      -2.919  -0.957  -2.098  0.00  0.00    +0.167 C 
BRANCH  23  25
ATOM     24  N   UNL     1      -1.194   0.802  -2.319  0.00  0.00    -0.311 N 
ATOM     25  C   UNL     1      -1.496  -0.511  -2.318  0.00  0.00    +0.234 C 
ATOM     26  O   UNL     1      -0.623  -1.334  -2.494  0.00  0.00    -0.274 OA
ATOM     27  H   UNL     1      -1.893   1.460  -2.178  0.00  0.00    +0.149 HD
BRANCH  24  29
ATOM     28  C   UNL     1       0.196   2.657  -3.099  0.00  0.00    +0.027 C 
ATOM     29  C   UNL     1       0.189   1.236  -2.533  0.00  0.00    +0.067 C 
ATOM     30  C   UNL     1       0.942   1.214  -1.201  0.00  0.00    +0.027 C 
ENDBRANCH  24  29
ENDBRANCH  23  25
BRANCH  23  31
ATOM     31  C   UNL     1      -3.811  -0.374  -3.195  0.00  0.00    +0.067 C 
BRANCH  31  32
ATOM     32  C   UNL     1      -5.250  -0.718  -2.907  0.00  0.00    -0.045 A 
ATOM     33  C   UNL     1      -5.793  -1.889  -3.401  0.00  0.00    +0.004 A 
ATOM     34  C   UNL     1      -7.113  -2.204  -3.138  0.00  0.00    +0.000 A 
ATOM     35  C   UNL     1      -7.890  -1.348  -2.379  0.00  0.00    +0.000 A 
ATOM     36  C   UNL     1      -7.346  -0.178  -1.883  0.00  0.00    +0.000 A 
ATOM     37  C   UNL     1      -6.025   0.136  -2.144  0.00  0.00    +0.004 A 
ENDBRANCH  31  32
ENDBRANCH  23  31
ENDBRANCH   1  23
BRANCH  11  38
ATOM     38  C   UNL     1      -4.100  -6.008   0.270  0.00  0.00    +0.141 C 
BRANCH  38  39
ATOM     39  C   UNL     1      -5.606  -5.958   0.236  0.00  0.00    -0.015 C 
ATOM     40  C   UNL     1      -6.306  -6.905   0.811  0.00  0.00    +0.005 C 
ENDBRANCH  38  39
ENDBRANCH  11  38
TORSDOF 9
