REMARK  Name = ZINC40580159
REMARK  7 active torsions:
REMARK  status: ('A' for Active; 'I' for Inactive)
REMARK    1  A    between atoms: C_1  and  C_2
REMARK    2  A    between atoms: C_2  and  C_3
REMARK    3  A    between atoms: C_2  and  N_4
REMARK    4  A    between atoms: C_5  and  C_7
REMARK    5  A    between atoms: C_7  and  N_8
REMARK    6  A    between atoms: N_11  and  C_12
REMARK    7  A    between atoms: C_17  and  C_18
REMARK                            x       y       z     vdW  Elec       q    Type
REMARK                         _______ _______ _______ _____ _____    ______ ____
ROOT
ATOM      1  N   UNL     1      -3.083  -3.593  -1.101  0.00  0.00    -0.291 N 
ATOM      2  C   UNL     1      -4.249  -4.264  -1.179  0.00  0.00    +0.304 C 
ATOM      3  O   UNL     1      -5.272  -3.757  -0.762  0.00  0.00    -0.252 OA
ATOM      4  N   UNL     1      -4.281  -5.498  -1.720  0.00  0.00    -0.269 N 
ATOM      5  H   UNL     1      -2.267  -3.998  -1.433  0.00  0.00    +0.151 HD
ATOM      6  H   UNL     1      -3.479  -5.877  -2.112  0.00  0.00    +0.156 HD
ENDROOT
BRANCH   4   7
ATOM      7  C   UNL     1      -5.467  -6.229  -1.718  0.00  0.00    +0.049 A 
ATOM      8  C   UNL     1      -6.685  -5.582  -1.876  0.00  0.00    +0.027 A 
ATOM      9  C   UNL     1      -7.859  -6.307  -1.873  0.00  0.00    +0.040 A 
ATOM     10  C   UNL     1      -7.833  -7.686  -1.714  0.00  0.00    +0.124 A 
ATOM     11  C   UNL     1      -6.633  -8.346  -1.557  0.00  0.00    +0.055 A 
ATOM     12  C   UNL     1      -5.435  -7.624  -1.562  0.00  0.00    +0.087 A 
ATOM     13  F   UNL     1      -8.990  -8.384  -1.713  0.00  0.00    -0.205 F 
BRANCH  12  14
ATOM     14  C   UNL     1      -4.149  -8.322  -1.401  0.00  0.00    +0.388 C 
ATOM     15  O   UNL     1      -4.117  -9.544  -1.364  0.00  0.00    -0.241 OA
ATOM     16  O   UNL     1      -3.113  -7.679  -1.303  0.00  0.00    -0.241 OA
ENDBRANCH  12  14
ENDBRANCH   4   7
BRANCH   1  17
ATOM     17  C   UNL     1      -3.049  -2.252  -0.512  0.00  0.00    +0.201 C 
BRANCH  17  19
ATOM     18  N   UNL     1      -1.363  -0.501  -0.053  0.00  0.00    -0.312 N 
ATOM     19  C   UNL     1      -1.637  -1.726  -0.544  0.00  0.00    +0.230 C 
ATOM     20  O   UNL     1      -0.747  -2.404  -1.012  0.00  0.00    -0.274 OA
ATOM     21  H   UNL     1      -2.074   0.042   0.322  0.00  0.00    +0.149 HD
BRANCH  18  23
ATOM     22  C   UNL     1      -0.016   1.540  -0.077  0.00  0.00    +0.027 C 
ATOM     23  C   UNL     1       0.010   0.010  -0.084  0.00  0.00    +0.067 C 
ATOM     24  C   UNL     1       0.769  -0.492   1.146  0.00  0.00    +0.027 C 
ENDBRANCH  18  23
ENDBRANCH  17  19
ENDBRANCH   1  17
TORSDOF 5
