REMARK  Name = ZINC39678497
REMARK  6 active torsions:
REMARK  status: ('A' for Active; 'I' for Inactive)
REMARK    1  A    between atoms: C_3  and  C_11
REMARK    2  A    between atoms: C_5  and  O_7
REMARK    3  A    between atoms: O_7  and  C_8
REMARK    4  A    between atoms: C_11  and  N_12
REMARK    5  A    between atoms: C_13  and  C_15
REMARK    6  A    between atoms: C_26  and  C_28
REMARK                            x       y       z     vdW  Elec       q    Type
REMARK                         _______ _______ _______ _____ _____    ______ ____
ROOT
ATOM      1  C   UNL     1       5.871   3.347   2.406  0.00  0.00    +0.100 C 
ATOM      2  C   UNL     1       5.887   2.098   3.315  0.00  0.00    +0.121 C 
ATOM      3  N   UNL     1       7.319   1.734   3.427  0.00  0.00    -0.296 N 
ATOM      4  C   UNL     1       8.022   3.035   3.534  0.00  0.00    +0.115 C 
ATOM      5  C   UNL     1       7.273   3.962   2.555  0.00  0.00    -0.004 C 
ATOM      6  C   UNL     1       7.985   3.988   1.206  0.00  0.00    -0.010 C 
ATOM      7  C   UNL     1       9.354   4.654   1.369  0.00  0.00    -0.082 C 
ATOM      8  N   UNL     1       9.177   6.020   1.879  0.00  0.00    +0.379 N 
ATOM      9  C   UNL     1       8.576   5.981   3.218  0.00  0.00    -0.082 C 
ATOM     10  C   UNL     1       7.175   5.370   3.133  0.00  0.00    -0.010 C 
ATOM     11  C   UNL     1       7.860   0.500   3.432  0.00  0.00    +0.248 C 
ATOM     12  O   UNL     1       9.052   0.359   3.628  0.00  0.00    -0.270 OA
ATOM     13  H   UNL     1      10.075   6.477   1.928  0.00  0.00    -0.086 HD
ATOM     14  H   UNL     1       8.574   6.535   1.256  0.00  0.00    -0.086 HD
ENDROOT
BRANCH  11  15
ATOM     15  C   UNL     1       7.005  -0.682   3.197  0.00  0.00    +0.057 A 
ATOM     16  C   UNL     1       5.696  -0.709   3.683  0.00  0.00    +0.014 A 
ATOM     17  C   UNL     1       4.903  -1.815   3.461  0.00  0.00    +0.002 A 
ATOM     18  C   UNL     1       5.401  -2.899   2.760  0.00  0.00    +0.021 A 
ATOM     19  C   UNL     1       6.697  -2.882   2.276  0.00  0.00    +0.060 A 
ATOM     20  C   UNL     1       7.501  -1.777   2.485  0.00  0.00    +0.071 A 
ATOM     21 CL   UNL     1       9.125  -1.753   1.871  0.00  0.00    -0.081 Cl
ATOM     22 CL   UNL     1       7.312  -4.248   1.398  0.00  0.00    -0.082 Cl
ENDBRANCH  11  15
BRANCH   1  24
ATOM     23  N   UNL     1       5.036   3.821   0.127  0.00  0.00    -0.311 N 
ATOM     24  C   UNL     1       5.621   2.951   0.974  0.00  0.00    +0.218 C 
ATOM     25  O   UNL     1       5.947   1.851   0.583  0.00  0.00    -0.275 OA
ATOM     26  H   UNL     1       4.775   4.702   0.439  0.00  0.00    +0.149 HD
BRANCH  23  27
ATOM     27  C   UNL     1       4.793   3.436  -1.266  0.00  0.00    +0.139 C 
BRANCH  27  30
ATOM     28  C   UNL     1       4.304   6.578  -3.304  0.00  0.00    +0.004 A 
ATOM     29  C   UNL     1       4.907   5.529  -2.634  0.00  0.00    +0.005 A 
ATOM     30  C   UNL     1       4.133   4.578  -1.995  0.00  0.00    -0.027 A 
ATOM     31  C   UNL     1       2.755   4.674  -2.023  0.00  0.00    +0.051 A 
ATOM     32  C   UNL     1       2.148   5.726  -2.694  0.00  0.00    +0.127 A 
ATOM     33  C   UNL     1       2.927   6.678  -3.335  0.00  0.00    +0.046 A 
BRANCH  32  34
ATOM     34  O   UNL     1       0.793   5.822  -2.724  0.00  0.00    -0.434 OA
BRANCH  34  35
ATOM     35  C   UNL     1       0.237   6.931  -3.434  0.00  0.00    +0.541 C 
ATOM     36  F   UNL     1       0.686   8.125  -2.860  0.00  0.00    -0.166 F 
ATOM     37  F   UNL     1       0.639   6.877  -4.773  0.00  0.00    -0.166 F 
ENDBRANCH  34  35
ENDBRANCH  32  34
ENDBRANCH  27  30
ENDBRANCH  23  27
ENDBRANCH   1  24
TORSDOF 6
