REMARK  Name = ZINC33071396
REMARK  3 active torsions:
REMARK  status: ('A' for Active; 'I' for Inactive)
REMARK    1  A    between atoms: C_6  and  C_7
REMARK    2  A    between atoms: C_7  and  N_8
REMARK    3  A    between atoms: C_14  and  C_16
REMARK                            x       y       z     vdW  Elec       q    Type
REMARK                         _______ _______ _______ _____ _____    ______ ____
ROOT
ATOM      1  N   UNL     1      -0.495  -1.843  -4.136  0.00  0.00    -0.295 NA
ATOM      2  C   UNL     1      -1.505  -2.884  -4.371  0.00  0.00    +0.103 C 
ATOM      3  C   UNL     1      -2.786  -2.529  -3.608  0.00  0.00    +0.123 C 
ATOM      4  N   UNL     1      -3.195  -1.169  -3.990  0.00  0.00    -0.299 N 
ATOM      5  C   UNL     1      -2.194  -0.094  -3.912  0.00  0.00    +0.123 C 
ATOM      6  C   UNL     1      -0.936  -0.545  -4.663  0.00  0.00    +0.103 C 
ATOM      7  C   UNL     1      -4.454  -0.914  -4.399  0.00  0.00    +0.220 C 
ATOM      8  O   UNL     1      -4.799   0.226  -4.623  0.00  0.00    -0.275 OA
ENDROOT
BRANCH   7   9
ATOM      9  C   UNL     1      -5.431  -2.047  -4.577  0.00  0.00    +0.092 C 
ATOM     10  C   UNL     1      -6.093  -2.367  -3.235  0.00  0.00    +0.016 C 
ATOM     11  C   UNL     1      -7.062  -3.539  -3.408  0.00  0.00    +0.020 C 
ATOM     12  C   UNL     1      -8.157  -3.147  -4.405  0.00  0.00    +0.108 C 
ATOM     13  N   UNL     1      -7.523  -2.699  -5.652  0.00  0.00    -0.300 N 
ATOM     14  C   UNL     1      -6.508  -1.639  -5.588  0.00  0.00    +0.120 C 
ATOM     15  C   UNL     1      -7.873  -3.264  -6.861  0.00  0.00    +0.197 A 
ATOM     16  N   UNL     1      -7.361  -2.936  -8.021  0.00  0.00    -0.214 NA
ATOM     17  C   UNL     1      -7.930  -3.688  -9.000  0.00  0.00    +0.092 A 
ATOM     18  C   UNL     1      -7.759  -3.748 -10.385  0.00  0.00    +0.050 A 
ATOM     19  C   UNL     1      -8.503  -4.638 -11.128  0.00  0.00    +0.043 A 
ATOM     20  C   UNL     1      -9.422  -5.475 -10.510  0.00  0.00    +0.022 A 
ATOM     21  C   UNL     1      -9.602  -5.427  -9.143  0.00  0.00    +0.029 A 
ATOM     22  C   UNL     1      -8.861  -4.537  -8.380  0.00  0.00    +0.068 A 
ATOM     23  N   UNL     1      -8.800  -4.252  -7.025  0.00  0.00    -0.326 N 
ATOM     24 CL   UNL     1      -8.291  -4.713 -12.849  0.00  0.00    -0.083 Cl
ATOM     25  H   UNL     1      -9.322  -4.675  -6.325  0.00  0.00    +0.169 HD
ENDBRANCH   7   9
BRANCH   1  26
ATOM     26  C   UNL     1       0.802  -2.230  -4.708  0.00  0.00    +0.119 C 
BRANCH  26  32
ATOM     27  C   UNL     1       1.025  -4.704  -4.411  0.00  0.00    +0.009 A 
ATOM     28  C   UNL     1       1.514  -5.809  -3.739  0.00  0.00    +0.050 A 
ATOM     29  C   UNL     1       2.318  -5.643  -2.624  0.00  0.00    +0.166 A 
ATOM     30  C   UNL     1       2.633  -4.360  -2.182  0.00  0.00    +0.167 A 
ATOM     31  C   UNL     1       2.139  -3.257  -2.860  0.00  0.00    +0.054 A 
ATOM     32  C   UNL     1       1.337  -3.431  -3.972  0.00  0.00    -0.030 A 
ATOM     33  O   UNL     1       3.429  -4.462  -1.078  0.00  0.00    -0.453 OA
ATOM     34  C   UNL     1       3.264  -5.813  -0.609  0.00  0.00    +0.466 C 
ATOM     35  O   UNL     1       2.918  -6.548  -1.797  0.00  0.00    -0.453 OA
ENDBRANCH  26  32
ENDBRANCH   1  26
TORSDOF 3
