REMARK  Name = ZINC11914097
REMARK  7 active torsions:
REMARK  status: ('A' for Active; 'I' for Inactive)
REMARK    1  A    between atoms: C_1  and  C_2
REMARK    2  A    between atoms: C_5  and  O_29
REMARK    3  A    between atoms: C_6  and  C_8
REMARK    4  A    between atoms: N_16  and  C_26
REMARK    5  A    between atoms: C_17  and  C_19
REMARK    6  A    between atoms: C_26  and  C_27
REMARK    7  A    between atoms: C_27  and  O_28
REMARK                            x       y       z     vdW  Elec       q    Type
REMARK                         _______ _______ _______ _____ _____    ______ ____
ROOT
ATOM      1  C   UNL     1      -0.350  -3.009   2.426  0.00  0.00    +0.102 A 
ATOM      2  C   UNL     1       0.022  -4.346   2.601  0.00  0.00    +0.035 A 
ATOM      3  C   UNL     1      -0.295  -4.657   3.909  0.00  0.00    +0.126 A 
ATOM      4  N   UNL     1      -0.831  -3.523   4.450  0.00  0.00    -0.272 N 
ATOM      5  H   UNL     1      -1.149  -3.438   5.362  0.00  0.00    +0.189 HD
ATOM      6  N   UNL     1      -0.845  -2.584   3.572  0.00  0.00    -0.173 NA
ATOM      7  C   UNL     1       0.073  -6.056   4.158  0.00  0.00    +0.266 C 
ATOM      8  O   UNL     1      -0.080  -6.636   5.216  0.00  0.00    -0.268 OA
ATOM      9  N   UNL     1       0.602  -6.605   3.050  0.00  0.00    -0.283 N 
ATOM     10  C   UNL     1       0.614  -5.587   1.992  0.00  0.00    +0.141 C 
ENDROOT
BRANCH   1  16
ATOM     11  C   UNL     1       2.451  -1.427  -1.392  0.00  0.00    +0.044 C 
ATOM     12  C   UNL     1       1.136  -1.449  -0.656  0.00  0.00    -0.050 A 
ATOM     13  C   UNL     1       0.062  -0.724  -1.141  0.00  0.00    +0.007 A 
ATOM     14  C   UNL     1      -1.148  -0.738  -0.473  0.00  0.00    +0.046 A 
ATOM     15  C   UNL     1      -1.290  -1.479   0.690  0.00  0.00    +0.126 A 
ATOM     16  C   UNL     1      -0.207  -2.212   1.182  0.00  0.00    +0.044 A 
ATOM     17  C   UNL     1       1.006  -2.196   0.497  0.00  0.00    +0.017 A 
BRANCH  15  18
ATOM     18  O   UNL     1      -2.478  -1.493   1.348  0.00  0.00    -0.506 OA
ATOM     19  H   UNL     1      -3.107  -2.146   1.010  0.00  0.00    +0.292 HD
ENDBRANCH  15  18
ENDBRANCH   1  16
BRANCH  10  20
ATOM     20  C   UNL     1      -0.224  -6.043   0.825  0.00  0.00    -0.022 A 
ATOM     21  C   UNL     1      -1.564  -6.328   1.007  0.00  0.00    +0.008 A 
ATOM     22  C   UNL     1      -2.334  -6.745  -0.062  0.00  0.00    +0.038 A 
ATOM     23  C   UNL     1      -1.762  -6.878  -1.317  0.00  0.00    +0.123 A 
ATOM     24  C   UNL     1      -0.419  -6.592  -1.498  0.00  0.00    +0.038 A 
ATOM     25  C   UNL     1       0.347  -6.170  -0.428  0.00  0.00    +0.008 A 
ATOM     26  F   UNL     1      -2.513  -7.286  -2.362  0.00  0.00    -0.205 F 
ENDBRANCH  10  20
BRANCH   9  27
ATOM     27  C   UNL     1       1.083  -7.983   2.922  0.00  0.00    +0.137 C 
BRANCH  27  28
ATOM     28  C   UNL     1      -0.098  -8.911   2.629  0.00  0.00    +0.175 C 
BRANCH  28  29
ATOM     29  O   UNL     1      -0.595  -8.650   1.315  0.00  0.00    -0.393 OA
ATOM     30  H   UNL     1      -1.346  -9.203   1.061  0.00  0.00    +0.209 HD
ENDBRANCH  28  29
ENDBRANCH  27  28
ENDBRANCH   9  27
TORSDOF 6
