REMARK  Name = ZINC14584993
REMARK  9 active torsions:
REMARK  status: ('A' for Active; 'I' for Inactive)
REMARK    1  A    between atoms: C_1  and  C_2
REMARK    2  A    between atoms: C_2  and  N_3
REMARK    3  A    between atoms: N_3  and  C_4
REMARK    4  A    between atoms: C_5  and  N_20
REMARK    5  A    between atoms: N_6  and  C_13
REMARK    6  A    between atoms: C_13  and  C_14
REMARK    7  A    between atoms: C_21  and  C_23
REMARK    8  A    between atoms: C_23  and  O_24
REMARK    9  A    between atoms: O_24  and  C_25
REMARK                            x       y       z     vdW  Elec       q    Type
REMARK                         _______ _______ _______ _____ _____    ______ ____
ROOT
ATOM      1  C   UNL     1       1.052   3.114   0.089  0.00  0.00    +0.140 A 
ATOM      2  C   UNL     1      -0.155   3.733  -0.165  0.00  0.00    +0.128 A 
ATOM      3  N   UNL     1      -1.311   2.988  -0.137  0.00  0.00    -0.276 N 
ATOM      4  C   UNL     1      -1.265   1.670   0.130  0.00  0.00    +0.331 A 
ATOM      5  O   UNL     1      -2.297   1.028   0.145  0.00  0.00    -0.246 OA
ATOM      6  N   UNL     1      -0.098   1.051   0.385  0.00  0.00    -0.273 N 
ATOM      7  H   UNL     1      -0.093   0.072   0.588  0.00  0.00    +0.173 HD
ATOM      8  C   UNL     1       1.062   1.735   0.370  0.00  0.00    +0.277 A 
ATOM      9  O   UNL     1       2.115   1.163   0.599  0.00  0.00    -0.266 OA
ENDROOT
BRANCH   1  10
ATOM     10  N   UNL     1       2.255   3.851   0.068  0.00  0.00    -0.262 N 
ATOM     11  C   UNL     1       3.184   3.598  -0.877  0.00  0.00    +0.258 C 
ATOM     12  O   UNL     1       2.949   2.801  -1.761  0.00  0.00    -0.272 OA
BRANCH  10  14
ATOM     13  C   UNL     1       3.308   4.306   2.228  0.00  0.00    +0.025 C 
ATOM     14  C   UNL     1       2.495   4.891   1.071  0.00  0.00    +0.110 C 
ENDBRANCH  10  14
BRANCH  11  15
ATOM     15  C   UNL     1       4.514   4.306  -0.835  0.00  0.00    +0.325 C 
BRANCH  15  16
ATOM     16  O   UNL     1       5.320   3.872  -1.933  0.00  0.00    -0.481 OA
BRANCH  16  17
ATOM     17  C   UNL     1       6.560   4.418  -2.042  0.00  0.00    +0.141 A 
ATOM     18  C   UNL     1       6.990   5.356  -1.114  0.00  0.00    +0.068 A 
ATOM     19  C   UNL     1       8.253   5.907  -1.224  0.00  0.00    +0.063 A 
ATOM     20  C   UNL     1       9.085   5.530  -2.265  0.00  0.00    +0.061 A 
ATOM     21  C   UNL     1       8.656   4.599  -3.194  0.00  0.00    +0.045 A 
ATOM     22  C   UNL     1       7.395   4.042  -3.084  0.00  0.00    +0.084 A 
ATOM     23 CL   UNL     1       6.858   2.874  -4.250  0.00  0.00    -0.080 Cl
ATOM     24 CL   UNL     1      10.669   6.228  -2.405  0.00  0.00    -0.082 Cl
ATOM     25 CL   UNL     1       8.794   7.076  -0.061  0.00  0.00    -0.082 Cl
ENDBRANCH  16  17
ENDBRANCH  15  16
ENDBRANCH  11  15
ENDBRANCH   1  10
BRANCH   2  26
ATOM     26  N   UNL     1      -0.202   5.078  -0.442  0.00  0.00    -0.343 N 
ATOM     27  H   UNL     1       0.612   5.607  -0.419  0.00  0.00    +0.144 HD
ATOM     28  H   UNL     1      -1.048   5.499  -0.661  0.00  0.00    +0.144 HD
ENDBRANCH   2  26
BRANCH   3  29
ATOM     29  C   UNL     1      -2.599   3.632  -0.405  0.00  0.00    +0.163 C 
BRANCH  29  30
ATOM     30  C   UNL     1      -2.893   3.572  -1.882  0.00  0.00    -0.028 A 
ATOM     31  C   UNL     1      -2.477   4.596  -2.712  0.00  0.00    +0.005 A 
ATOM     32  C   UNL     1      -2.742   4.539  -4.067  0.00  0.00    +0.000 A 
ATOM     33  C   UNL     1      -3.433   3.462  -4.591  0.00  0.00    +0.000 A 
ATOM     34  C   UNL     1      -3.854   2.441  -3.760  0.00  0.00    +0.000 A 
ATOM     35  C   UNL     1      -3.584   2.496  -2.406  0.00  0.00    +0.005 A 
ENDBRANCH  29  30
ENDBRANCH   3  29
TORSDOF 8
