REMARK  Name = ZINC16042528
REMARK  7 active torsions:
REMARK  status: ('A' for Active; 'I' for Inactive)
REMARK    1  A    between atoms: C_1  and  C_2
REMARK    2  A    between atoms: C_2  and  C_3
REMARK    3  A    between atoms: C_2  and  C_4
REMARK    4  A    between atoms: C_2  and  O_5
REMARK    5  A    between atoms: O_5  and  C_6
REMARK    6  A    between atoms: N_8  and  N_9
REMARK    7  A    between atoms: C_29  and  C_31
REMARK                            x       y       z     vdW  Elec       q    Type
REMARK                         _______ _______ _______ _____ _____    ______ ____
ROOT
ATOM      1  N   UNL     1       5.286   3.334   2.258  0.00  0.00    -0.207 N 
ATOM      2  C   UNL     1       4.810   2.088   2.835  0.00  0.00    +0.226 C 
ATOM      3  C   UNL     1       3.852   1.381   1.933  0.00  0.00    +0.236 C 
ATOM      4  O   UNL     1       3.369   0.340   2.325  0.00  0.00    -0.274 OA
ATOM      5  N   UNL     1       3.505   1.816   0.735  0.00  0.00    -0.276 N 
ATOM      6  C   UNL     1       4.058   3.015   0.105  0.00  0.00    +0.169 C 
ATOM      7  C   UNL     1       4.956   3.760   1.040  0.00  0.00    +0.253 C 
ATOM      8  O   UNL     1       5.411   4.819   0.666  0.00  0.00    -0.272 OA
ATOM      9  C   UNL     1       4.845   2.608  -1.149  0.00  0.00    +0.069 C 
ATOM     10  C   UNL     1       4.029   1.612  -1.934  0.00  0.00    -0.015 A 
ATOM     11  C   UNL     1       4.189   1.211  -3.317  0.00  0.00    +0.003 A 
ATOM     12  C   UNL     1       5.089   1.593  -4.316  0.00  0.00    +0.010 A 
ATOM     13  C   UNL     1       4.948   0.991  -5.542  0.00  0.00    +0.001 A 
ATOM     14  C   UNL     1       3.964   0.047  -5.789  0.00  0.00    +0.002 A 
ATOM     15  C   UNL     1       3.061  -0.350  -4.819  0.00  0.00    +0.026 A 
ATOM     16  C   UNL     1       3.180   0.245  -3.564  0.00  0.00    +0.047 A 
ATOM     17  N   UNL     1       2.473   0.091  -2.407  0.00  0.00    -0.356 N 
ATOM     18  H   UNL     1       1.720  -0.509  -2.288  0.00  0.00    +0.166 HD
ATOM     19  C   UNL     1       2.986   0.912  -1.438  0.00  0.00    +0.046 A 
ATOM     20  C   UNL     1       2.490   1.048  -0.016  0.00  0.00    +0.154 C 
ENDROOT
BRANCH  20  21
ATOM     21  C   UNL     1       1.175   1.783   0.000  0.00  0.00    -0.021 A 
ATOM     22  C   UNL     1       1.108   3.068   0.507  0.00  0.00    +0.006 A 
ATOM     23  C   UNL     1      -0.100   3.740   0.528  0.00  0.00    +0.000 A 
ATOM     24  C   UNL     1      -1.238   3.133   0.031  0.00  0.00    +0.000 A 
ATOM     25  C   UNL     1      -1.171   1.848  -0.475  0.00  0.00    +0.000 A 
ATOM     26  C   UNL     1       0.036   1.173  -0.491  0.00  0.00    +0.006 A 
ENDBRANCH  20  21
BRANCH   1  29
ATOM     27  C   UNL     1       5.649   4.856   4.052  0.00  0.00    +0.417 C 
ATOM     28  O   UNL     1       6.391   5.550   4.719  0.00  0.00    -0.225 OA
ATOM     29  N   UNL     1       6.142   4.133   3.027  0.00  0.00    -0.197 N 
ATOM     30  H   UNL     1       7.089   4.167   2.821  0.00  0.00    +0.176 HD
BRANCH  27  31
ATOM     31  O   UNL     1       4.333   4.810   4.337  0.00  0.00    -0.444 OA
BRANCH  31  33
ATOM     32  C   UNL     1       4.183   7.088   5.184  0.00  0.00    +0.055 C 
ATOM     33  C   UNL     1       3.873   5.614   5.454  0.00  0.00    +0.107 C 
ATOM     34  C   UNL     1       2.363   5.434   5.624  0.00  0.00    +0.055 C 
ATOM     35  C   UNL     1       4.586   5.168   6.732  0.00  0.00    +0.055 C 
ENDBRANCH  31  33
ENDBRANCH  27  31
ENDBRANCH   1  29
TORSDOF 4
