REMARK  Name = ZINC65306147
REMARK  10 active torsions:
REMARK  status: ('A' for Active; 'I' for Inactive)
REMARK    1  A    between atoms: C_1  and  C_2
REMARK    2  A    between atoms: C_5  and  C_33
REMARK    3  A    between atoms: C_6  and  C_8
REMARK    4  A    between atoms: C_8  and  N_9
REMARK    5  A    between atoms: N_21  and  C_24
REMARK    6  A    between atoms: C_24  and  C_25
REMARK    7  A    between atoms: C_25  and  C_26
REMARK    8  A    between atoms: N_28  and  C_29
REMARK    9  A    between atoms: C_29  and  C_30
REMARK   10  A    between atoms: C_29  and  C_31
REMARK                            x       y       z     vdW  Elec       q    Type
REMARK                         _______ _______ _______ _____ _____    ______ ____
ROOT
ATOM      1  N   UNL     1       1.421  -3.280   2.782  0.00  0.00    -0.206 N 
ATOM      2  C   UNL     1       2.344  -2.594   3.486  0.00  0.00    +0.353 A 
ATOM      3  O   UNL     1       2.192  -1.497   3.994  0.00  0.00    -0.244 OA
ATOM      4  N   UNL     1       3.466  -3.342   3.526  0.00  0.00    -0.229 N 
ATOM      5  C   UNL     1       4.707  -3.105   4.118  0.00  0.00    +0.067 A 
ATOM      6  C   UNL     1       4.950  -1.932   4.816  0.00  0.00    +0.028 A 
ATOM      7  C   UNL     1       6.186  -1.720   5.394  0.00  0.00    +0.022 A 
ATOM      8  C   UNL     1       7.189  -2.672   5.283  0.00  0.00    +0.042 A 
ATOM      9  C   UNL     1       6.963  -3.845   4.592  0.00  0.00    +0.035 A 
ATOM     10  C   UNL     1       5.719  -4.069   4.004  0.00  0.00    +0.065 A 
ATOM     11  C   UNL     1       5.439  -5.310   3.258  0.00  0.00    +0.263 A 
ATOM     12  O   UNL     1       6.295  -6.166   3.141  0.00  0.00    -0.267 OA
ATOM     13  N   UNL     1       4.220  -5.480   2.708  0.00  0.00    -0.276 N 
ATOM     14  C   UNL     1       3.235  -4.511   2.835  0.00  0.00    +0.240 A 
ATOM     15  N   UNL     1       2.008  -4.489   2.388  0.00  0.00    -0.129 NA
ATOM     16 CL   UNL     1       8.736  -2.387   6.017  0.00  0.00    -0.084 Cl
ENDROOT
BRANCH   1  17
ATOM     17  C   UNL     1       0.054  -2.845   2.489  0.00  0.00    +0.184 C 
BRANCH  17  23
ATOM     18  C   UNL     1      -0.018   1.503   0.010  0.00  0.00    +0.044 C 
ATOM     19  C   UNL     1       0.002  -0.004   0.002  0.00  0.00    -0.050 A 
ATOM     20  C   UNL     1       0.006  -0.689  -1.199  0.00  0.00    +0.003 A 
ATOM     21  C   UNL     1       0.025  -2.071  -1.207  0.00  0.00    +0.004 A 
ATOM     22  C   UNL     1       0.040  -2.768  -0.013  0.00  0.00    -0.045 A 
ATOM     23  C   UNL     1       0.037  -2.084   1.188  0.00  0.00    -0.023 A 
ATOM     24  C   UNL     1       0.023  -0.702   1.195  0.00  0.00    +0.009 A 
ATOM     25  C   UNL     1       0.059  -4.275  -0.021  0.00  0.00    +0.044 C 
ENDBRANCH  17  23
ENDBRANCH   1  17
BRANCH  13  26
ATOM     26  C   UNL     1       3.931  -6.709   1.965  0.00  0.00    +0.137 C 
BRANCH  26  27
ATOM     27  C   UNL     1       3.370  -7.764   2.920  0.00  0.00    +0.117 C 
BRANCH  27  28
ATOM     28  C   UNL     1       3.073  -9.027   2.155  0.00  0.00    +0.215 C 
ATOM     29  O   UNL     1       3.288  -9.079   0.963  0.00  0.00    -0.276 OA
ATOM     30  N   UNL     1       2.567 -10.100   2.796  0.00  0.00    -0.313 N 
ATOM     31  H   UNL     1       2.395 -10.059   3.750  0.00  0.00    +0.149 HD
BRANCH  30  32
ATOM     32  C   UNL     1       2.278 -11.329   2.052  0.00  0.00    +0.067 C 
ATOM     33  C   UNL     1       2.325 -12.525   3.005  0.00  0.00    +0.027 C 
ATOM     34  C   UNL     1       0.885 -11.230   1.426  0.00  0.00    +0.027 C 
ENDBRANCH  30  32
ENDBRANCH  27  28
ENDBRANCH  26  27
ENDBRANCH  13  26
TORSDOF 6
