REMARK  Name = ZINC35401629
REMARK  10 active torsions:
REMARK  status: ('A' for Active; 'I' for Inactive)
REMARK    1  A    between atoms: C_1  and  C_2
REMARK    2  A    between atoms: C_7  and  C_34
REMARK    3  A    between atoms: N_9  and  C_10
REMARK    4  A    between atoms: C_10  and  C_11
REMARK    5  A    between atoms: C_11  and  N_12
REMARK    6  A    between atoms: N_12  and  C_13
REMARK    7  A    between atoms: N_12  and  S_23
REMARK    8  A    between atoms: C_13  and  C_14
REMARK    9  A    between atoms: C_14  and  C_15
REMARK   10  A    between atoms: S_23  and  C_26
REMARK                            x       y       z     vdW  Elec       q    Type
REMARK                         _______ _______ _______ _____ _____    ______ ____
ROOT
ATOM      1  N   UNL     1       4.292  -0.089   2.404  0.00  0.00    -0.178 NA
ENDROOT
BRANCH   1   2
ATOM      2  S   UNL     1       5.565  -0.963   1.804  0.00  0.00    +0.061 S 
ATOM      3  O   UNL     1       6.711  -0.573   2.548  0.00  0.00    -0.153 OA
ATOM      4  O   UNL     1       5.129  -2.313   1.726  0.00  0.00    -0.153 OA
BRANCH   2   5
ATOM      5  C   UNL     1       5.832  -0.423   0.148  0.00  0.00    +0.108 A 
ATOM      6  C   UNL     1       5.173  -1.045  -0.896  0.00  0.00    +0.031 A 
ATOM      7  C   UNL     1       5.381  -0.624  -2.196  0.00  0.00    +0.043 A 
ATOM      8  C   UNL     1       6.251   0.422  -2.453  0.00  0.00    +0.159 A 
ATOM      9  C   UNL     1       6.912   1.045  -1.406  0.00  0.00    +0.160 A 
ATOM     10  C   UNL     1       6.698   0.624  -0.105  0.00  0.00    +0.069 A 
ATOM     11  F   UNL     1       7.762   2.066  -1.655  0.00  0.00    -0.202 F 
ATOM     12  F   UNL     1       6.455   0.834  -3.724  0.00  0.00    -0.202 F 
ENDBRANCH   2   5
ENDBRANCH   1   2
BRANCH   1  13
ATOM     13  C   UNL     1       2.939  -0.649   2.371  0.00  0.00    +0.091 C 
BRANCH  13  14
ATOM     14  C   UNL     1       2.213  -0.157   1.117  0.00  0.00    -0.061 C 
BRANCH  14  21
ATOM     15  C   UNL     1       1.565  -2.712   0.151  0.00  0.00    -0.013 C 
ATOM     16  C   UNL     1       0.777  -2.068   1.294  0.00  0.00    -0.071 C 
ATOM     17  C   UNL     1      -0.674  -2.550   1.248  0.00  0.00    -0.016 C 
ATOM     18  C   UNL     1      -1.458  -1.903   2.394  0.00  0.00    -0.003 C 
ATOM     19  C   UNL     1      -1.349  -0.380   2.278  0.00  0.00    -0.016 C 
ATOM     20  C   UNL     1       0.128   0.022   2.285  0.00  0.00    -0.071 C 
ATOM     21  N   UNL     1       0.815  -0.608   1.151  0.00  0.00    +0.384 N 
ATOM     22  C   UNL     1       0.242   1.543   2.169  0.00  0.00    -0.013 C 
ATOM     23  H   UNL     1       0.357  -0.343   0.292  0.00  0.00    -0.081 HD
ENDBRANCH  14  21
ENDBRANCH  13  14
ENDBRANCH   1  13
BRANCH   1  24
ATOM     24  C   UNL     1       4.519   1.244   2.967  0.00  0.00    +0.118 C 
BRANCH  24  25
ATOM     25  C   UNL     1       4.686   1.135   4.484  0.00  0.00    +0.113 C 
BRANCH  25  26
ATOM     26  C   UNL     1       4.919   2.507   5.063  0.00  0.00    +0.217 C 
ATOM     27  O   UNL     1       4.950   3.476   4.335  0.00  0.00    -0.276 OA
ATOM     28  N   UNL     1       5.094   2.656   6.391  0.00  0.00    -0.305 N 
ATOM     29  C   UNL     1       5.067   1.494   7.293  0.00  0.00    +0.088 C 
ATOM     30  C   UNL     1       6.314   1.541   8.183  0.00  0.00    -0.063 C 
ATOM     31  N   UNL     1       6.378   2.839   8.867  0.00  0.00    +0.381 N 
ATOM     32  C   UNL     1       6.553   3.915   7.884  0.00  0.00    -0.063 C 
ATOM     33  C   UNL     1       5.324   3.985   6.979  0.00  0.00    +0.088 C 
ATOM     34  H   UNL     1       5.521   2.989   9.380  0.00  0.00    -0.086 HD
ATOM     35  H   UNL     1       7.156   2.841   9.510  0.00  0.00    -0.086 HD
ENDBRANCH  25  26
ENDBRANCH  24  25
ENDBRANCH   1  24
TORSDOF 8
