REMARK  Name = ZINC05548726
REMARK  14 active torsions:
REMARK  status: ('A' for Active; 'I' for Inactive)
REMARK    1  A    between atoms: C_1  and  C_2
REMARK    2  A    between atoms: C_2  and  C_3
REMARK    3  A    between atoms: C_2  and  C_4
REMARK    4  A    between atoms: C_7  and  S_10
REMARK    5  A    between atoms: N_8  and  N_9
REMARK    6  A    between atoms: S_10  and  C_11
REMARK    7  A    between atoms: C_11  and  C_12
REMARK    8  A    between atoms: C_16  and  C_18
REMARK    9  A    between atoms: C_18  and  S_19
REMARK   10  A    between atoms: S_19  and  C_20
REMARK   11  A    between atoms: C_23  and  C_26
REMARK   12  A    between atoms: N_24  and  N_25
REMARK   13  A    between atoms: C_26  and  C_27
REMARK   14  A    between atoms: C_26  and  C_28
REMARK                            x       y       z     vdW  Elec       q    Type
REMARK                         _______ _______ _______ _____ _____    ______ ____
ROOT
ATOM      1  C   UNL     1       1.156   3.165   0.008  0.00  0.00    -0.037 A 
ATOM      2  C   UNL     1       1.175   1.783   0.000  0.00  0.00    +0.004 A 
ATOM      3  C   UNL     1      -0.013   1.076   0.008  0.00  0.00    +0.001 A 
ATOM      4  C   UNL     1      -1.219   1.751   0.017  0.00  0.00    +0.004 A 
ATOM      5  C   UNL     1      -1.238   3.133   0.030  0.00  0.00    -0.037 A 
ATOM      6  C   UNL     1      -0.050   3.840   0.022  0.00  0.00    +0.009 A 
ENDROOT
BRANCH   1   7
ATOM      7  C   UNL     1       2.451   3.937  -0.001  0.00  0.00    +0.112 C 
BRANCH   7   8
ATOM      8  S   UNL     1       2.953   4.254  -1.711  0.00  0.00    -0.080 S 
BRANCH   8  12
ATOM      9  C   UNL     1       6.304   6.250  -1.704  0.00  0.00    +0.154 A 
ATOM     10  N   UNL     1       6.066   6.094  -0.432  0.00  0.00    -0.132 NA
ATOM     11  N   UNL     1       4.973   5.441  -0.265  0.00  0.00    -0.121 NA
ATOM     12  C   UNL     1       4.449   5.142  -1.431  0.00  0.00    +0.209 A 
ATOM     13  N   UNL     1       5.285   5.644  -2.386  0.00  0.00    -0.228 N 
BRANCH   9  15
ATOM     14  C   UNL     1       7.500   8.418  -1.843  0.00  0.00    +0.015 C 
ATOM     15  C   UNL     1       7.486   6.961  -2.311  0.00  0.00    +0.052 C 
ATOM     16  C   UNL     1       8.778   6.271  -1.869  0.00  0.00    +0.015 C 
ENDBRANCH   9  15
BRANCH  13  17
ATOM     17  N   UNL     1       5.134   5.561  -3.741  0.00  0.00    -0.295 N 
ATOM     18  H   UNL     1       4.614   6.349  -4.096  0.00  0.00    +0.163 HD
ATOM     19  H   UNL     1       6.029   5.483  -4.200  0.00  0.00    +0.163 HD
ENDBRANCH  13  17
ENDBRANCH   8  12
ENDBRANCH   7   8
ENDBRANCH   1   7
BRANCH   5  20
ATOM     20  C   UNL     1      -2.553   3.869   0.045  0.00  0.00    +0.112 C 
BRANCH  20  21
ATOM     21  S   UNL     1      -3.095   4.171  -1.655  0.00  0.00    -0.080 S 
BRANCH  21  22
ATOM     22  C   UNL     1      -4.609   5.018  -1.347  0.00  0.00    +0.209 A 
ATOM     23  N   UNL     1      -5.119   5.304  -0.171  0.00  0.00    -0.121 NA
ATOM     24  N   UNL     1      -6.233   5.927  -0.318  0.00  0.00    -0.132 NA
ATOM     25  C   UNL     1      -6.499   6.075  -1.585  0.00  0.00    +0.154 A 
ATOM     26  N   UNL     1      -5.472   5.506  -2.286  0.00  0.00    -0.228 N 
BRANCH  26  27
ATOM     27  N   UNL     1      -5.338   5.439  -3.644  0.00  0.00    -0.295 N 
ATOM     28  H   UNL     1      -5.763   4.599  -4.007  0.00  0.00    +0.163 HD
ATOM     29  H   UNL     1      -5.722   6.260  -4.087  0.00  0.00    +0.163 HD
ENDBRANCH  26  27
BRANCH  25  30
ATOM     30  C   UNL     1      -7.712   6.753  -2.170  0.00  0.00    +0.052 C 
ATOM     31  C   UNL     1      -8.976   6.029  -1.701  0.00  0.00    +0.015 C 
ATOM     32  C   UNL     1      -7.756   8.209  -1.704  0.00  0.00    +0.015 C 
ENDBRANCH  25  30
ENDBRANCH  21  22
ENDBRANCH  20  21
ENDBRANCH   5  20
TORSDOF 10
