REMARK  Name = ZINC35051095
REMARK  6 active torsions:
REMARK  status: ('A' for Active; 'I' for Inactive)
REMARK    1  A    between atoms: C_4  and  C_22
REMARK    2  A    between atoms: C_6  and  O_7
REMARK    3  A    between atoms: C_13  and  C_15
REMARK    4  A    between atoms: C_15  and  C_17
REMARK    5  A    between atoms: C_15  and  N_21
REMARK    6  A    between atoms: C_17  and  C_18
REMARK                            x       y       z     vdW  Elec       q    Type
REMARK                         _______ _______ _______ _____ _____    ______ ____
ROOT
ATOM      1  C   UNL     1       0.094   1.337  -0.419  0.00  0.00    +0.024 A 
ATOM      2  C   UNL     1       1.267   2.022  -0.451  0.00  0.00    +0.014 A 
ATOM      3  C   UNL     1       2.466   1.376  -0.100  0.00  0.00    +0.029 A 
ATOM      4  C   UNL     1       3.695   2.070  -0.127  0.00  0.00    +0.072 A 
ATOM      5  C   UNL     1       4.843   1.390   0.228  0.00  0.00    +0.100 A 
ATOM      6  C   UNL     1       4.771   0.056   0.599  0.00  0.00    +0.285 A 
ATOM      7  O   UNL     1       3.604  -0.598   0.623  0.00  0.00    -0.425 OA
ATOM      8  C   UNL     1       2.452   0.017   0.286  0.00  0.00    +0.141 A 
ATOM      9  C   UNL     1       1.252  -0.670   0.316  0.00  0.00    +0.070 A 
ATOM     10  C   UNL     1       0.070  -0.016  -0.035  0.00  0.00    +0.037 A 
ATOM     11  N   UNL     1      -1.112  -0.691  -0.007  0.00  0.00    -0.287 N 
ATOM     12  C   UNL     1      -1.201  -1.837   0.638  0.00  0.00    +0.203 C 
ATOM     13  O   UNL     1      -0.265  -2.232   1.310  0.00  0.00    -0.277 OA
ATOM     14  H   UNL     1      -1.888  -0.328  -0.462  0.00  0.00    +0.155 HD
ENDROOT
BRANCH   4  15
ATOM     15  C   UNL     1       3.752   3.520  -0.533  0.00  0.00    +0.418 C 
ATOM     16  F   UNL     1       2.881   4.264   0.270  0.00  0.00    -0.166 F 
ATOM     17  F   UNL     1       5.057   3.998  -0.374  0.00  0.00    -0.166 F 
ATOM     18  F   UNL     1       3.370   3.643  -1.874  0.00  0.00    -0.166 F 
ENDBRANCH   4  15
BRANCH   6  19
ATOM     19  O   UNL     1       5.898  -0.595   0.943  0.00  0.00    -0.480 OA
ATOM     20  H   UNL     1       5.760  -1.520   1.187  0.00  0.00    +0.295 HD
ENDBRANCH   6  19
BRANCH  12  21
ATOM     21  C   UNL     1      -2.461  -2.658   0.545  0.00  0.00    +0.024 C 
BRANCH  21  22
ATOM     22  N   UNL     1      -2.168  -4.048   0.919  0.00  0.00    +0.386 N 
ATOM     23  H   UNL     1      -3.012  -4.598   0.856  0.00  0.00    -0.089 HD
ATOM     24  H   UNL     1      -1.473  -4.426   0.293  0.00  0.00    -0.089 HD
ATOM     25  H   UNL     1      -1.819  -4.075   1.865  0.00  0.00    -0.089 HD
ENDBRANCH  21  22
BRANCH  21  26
ATOM     26  C   UNL     1      -3.515  -2.086   1.494  0.00  0.00    +0.118 C 
BRANCH  26  27
ATOM     27  C   UNL     1      -4.813  -2.829   1.312  0.00  0.00    +0.355 C 
ATOM     28  O   UNL     1      -4.888  -3.734   0.497  0.00  0.00    -0.246 OA
ATOM     29  O   UNL     1      -5.788  -2.527   1.978  0.00  0.00    -0.246 OA
ENDBRANCH  26  27
ENDBRANCH  21  26
ENDBRANCH  12  21
TORSDOF 6
