REMARK  Name = ZINC63416420
REMARK  7 active torsions:
REMARK  status: ('A' for Active; 'I' for Inactive)
REMARK    1  A    between atoms: C_1  and  C_2
REMARK    2  A    between atoms: C_2  and  O_3
REMARK    3  A    between atoms: O_3  and  C_4
REMARK    4  A    between atoms: C_4  and  C_6
REMARK    5  A    between atoms: C_7  and  C_33
REMARK    6  A    between atoms: C_14  and  C_15
REMARK    7  A    between atoms: C_25  and  C_27
REMARK                            x       y       z     vdW  Elec       q    Type
REMARK                         _______ _______ _______ _____ _____    ______ ____
ROOT
ATOM      1  C   UNL     1       1.889  -2.413  -2.353  0.00  0.00    +0.090 C 
ATOM      2  C   UNL     1       1.838  -3.780  -2.592  0.00  0.00    +0.086 C 
ATOM      3  N   UNL     1       2.135  -4.261  -3.803  0.00  0.00    -0.222 NA
ATOM      4  C   UNL     1       2.485  -3.533  -4.828  0.00  0.00    +0.178 A 
ATOM      5  N   UNL     1       2.596  -2.161  -4.804  0.00  0.00    -0.275 N 
ATOM      6  C   UNL     1       2.965  -1.525  -5.924  0.00  0.00    +0.268 A 
ATOM      7  O   UNL     1       3.076  -0.315  -5.952  0.00  0.00    -0.266 OA
ATOM      8  C   UNL     1       3.231  -2.343  -7.126  0.00  0.00    +0.080 A 
ATOM      9  C   UNL     1       3.620  -1.946  -8.390  0.00  0.00    +0.026 C 
ATOM     10  S   UNL     1       2.913  -3.985  -6.499  0.00  0.00    -0.046 S 
ATOM     11  C   UNL     1       2.281  -1.511  -3.501  0.00  0.00    +0.162 C 
ENDROOT
BRANCH   9  12
ATOM     12  C   UNL     1       4.019  -0.627  -8.615  0.00  0.00    -0.018 C 
ATOM     13  C   UNL     1       4.566  -0.100  -9.785  0.00  0.00    +0.003 A 
ATOM     14  C   UNL     1       4.877  -0.673 -11.036  0.00  0.00    +0.010 A 
ATOM     15  C   UNL     1       5.414   0.098 -12.015  0.00  0.00    +0.001 A 
ATOM     16  C   UNL     1       5.671   1.459 -11.819  0.00  0.00    +0.002 A 
ATOM     17  C   UNL     1       5.399   2.076 -10.646  0.00  0.00    +0.026 A 
ATOM     18  C   UNL     1       4.835   1.335  -9.572  0.00  0.00    +0.043 A 
ATOM     19  N   UNL     1       4.485   1.692  -8.356  0.00  0.00    -0.380 N 
ATOM     20  C   UNL     1       3.943   0.531  -7.645  0.00  0.00    +0.149 C 
ATOM     21  H   UNL     1       4.568   2.586  -7.989  0.00  0.00    +0.160 HD
ENDBRANCH   9  12
BRANCH  11  22
ATOM     22  C   UNL     1       3.494  -0.723  -3.077  0.00  0.00    -0.020 A 
ATOM     23  C   UNL     1       4.748  -1.303  -3.130  0.00  0.00    +0.006 A 
ATOM     24  C   UNL     1       5.860  -0.581  -2.741  0.00  0.00    +0.000 A 
ATOM     25  C   UNL     1       5.719   0.721  -2.300  0.00  0.00    +0.000 A 
ATOM     26  C   UNL     1       4.466   1.301  -2.247  0.00  0.00    +0.000 A 
ATOM     27  C   UNL     1       3.353   0.581  -2.640  0.00  0.00    +0.006 A 
ENDBRANCH  11  22
BRANCH   2  28
ATOM     28  C   UNL     1       1.454  -4.706  -1.503  0.00  0.00    +0.001 A 
ATOM     29  C   UNL     1       0.178  -4.638  -0.942  0.00  0.00    +0.010 A 
ATOM     30  C   UNL     1      -0.174  -5.504   0.072  0.00  0.00    +0.001 A 
ATOM     31  C   UNL     1       0.735  -6.439   0.534  0.00  0.00    +0.000 A 
ATOM     32  C   UNL     1       2.002  -6.512  -0.017  0.00  0.00    +0.001 A 
ATOM     33  C   UNL     1       2.364  -5.656  -1.037  0.00  0.00    +0.010 A 
ENDBRANCH   2  28
BRANCH   1  34
ATOM     34  C   UNL     1       1.582  -1.887  -1.090  0.00  0.00    +0.340 C 
ATOM     35  O   UNL     1       1.330  -2.635  -0.163  0.00  0.00    -0.245 OA
BRANCH  34  36
ATOM     36  O   UNL     1       1.564  -0.549  -0.902  0.00  0.00    -0.462 OA
BRANCH  36  38
ATOM     37  C   UNL     1       1.273   1.448   0.428  0.00  0.00    +0.048 C 
ATOM     38  C   UNL     1       1.243  -0.082   0.410  0.00  0.00    +0.229 C 
ENDBRANCH  36  38
ENDBRANCH  34  36
ENDBRANCH   1  34
TORSDOF 6
