REMARK  Name = ZINC13223069
REMARK  9 active torsions:
REMARK  status: ('A' for Active; 'I' for Inactive)
REMARK    1  A    between atoms: C_1  and  C_2
REMARK    2  A    between atoms: C_2  and  C_4
REMARK    3  A    between atoms: C_2  and  N_16
REMARK    4  A    between atoms: C_7  and  C_10
REMARK    5  A    between atoms: C_17  and  C_19
REMARK    6  A    between atoms: C_19  and  S_20
REMARK    7  A    between atoms: S_20  and  C_21
REMARK    8  A    between atoms: N_31  and  C_32
REMARK    9  A    between atoms: C_32  and  C_33
REMARK                            x       y       z     vdW  Elec       q    Type
REMARK                         _______ _______ _______ _____ _____    ______ ____
ROOT
ATOM      1  N   UNL     1       2.283   7.215   2.338  0.00  0.00    -0.308 N 
ATOM      2  C   UNL     1       2.062   6.072   1.658  0.00  0.00    +0.224 C 
ATOM      3  O   UNL     1       2.717   5.819   0.669  0.00  0.00    -0.275 OA
ATOM      4  H   UNL     1       1.760   7.418   3.129  0.00  0.00    +0.149 HD
ENDROOT
BRANCH   1   6
ATOM      5  C   UNL     1       2.730   9.073   0.812  0.00  0.00    +0.033 C 
ATOM      6  C   UNL     1       3.315   8.150   1.883  0.00  0.00    +0.100 C 
BRANCH   6   7
ATOM      7  C   UNL     1       3.795   8.975   3.049  0.00  0.00    -0.027 A 
ATOM      8  C   UNL     1       2.889   9.439   3.985  0.00  0.00    +0.006 A 
ATOM      9  C   UNL     1       3.324  10.189   5.058  0.00  0.00    +0.009 A 
ATOM     10  C   UNL     1       4.678  10.489   5.192  0.00  0.00    -0.018 A 
ATOM     11  C   UNL     1       5.586  10.024   4.243  0.00  0.00    +0.009 A 
ATOM     12  C   UNL     1       5.141   9.269   3.177  0.00  0.00    +0.006 A 
BRANCH  10  13
ATOM     13  C   UNL     1       5.151  11.301   6.341  0.00  0.00    -0.018 A 
ATOM     14  C   UNL     1       6.506  11.595   6.478  0.00  0.00    +0.008 A 
ATOM     15  C   UNL     1       6.939  12.355   7.546  0.00  0.00    +0.001 A 
ATOM     16  C   UNL     1       6.033  12.814   8.484  0.00  0.00    +0.000 A 
ATOM     17  C   UNL     1       4.688  12.520   8.356  0.00  0.00    +0.001 A 
ATOM     18  C   UNL     1       4.242  11.766   7.289  0.00  0.00    +0.008 A 
ENDBRANCH  10  13
ENDBRANCH   6   7
ENDBRANCH   1   6
BRANCH   2  19
ATOM     19  C   UNL     1       1.001   5.110   2.126  0.00  0.00    +0.173 C 
BRANCH  19  20
ATOM     20  S   UNL     1       0.946   3.684   1.013  0.00  0.00    -0.078 S 
BRANCH  20  21
ATOM     21  C   UNL     1      -0.341   2.752   1.773  0.00  0.00    +0.173 A 
ATOM     22  N   UNL     1      -0.914   3.238   2.847  0.00  0.00    -0.223 NA
ATOM     23  C   UNL     1      -1.901   2.575   3.482  0.00  0.00    +0.079 A 
ATOM     24  C   UNL     1      -2.508   3.091   4.632  0.00  0.00    +0.028 A 
ATOM     25  C   UNL     1      -3.504   2.385   5.245  0.00  0.00    +0.002 A 
ATOM     26  C   UNL     1      -3.925   1.160   4.744  0.00  0.00    +0.001 A 
ATOM     27  C   UNL     1      -3.351   0.629   3.622  0.00  0.00    +0.015 A 
ATOM     28  C   UNL     1      -2.332   1.328   2.975  0.00  0.00    +0.065 A 
ATOM     29  C   UNL     1      -1.678   0.807   1.767  0.00  0.00    +0.263 A 
ATOM     30  O   UNL     1      -2.006  -0.261   1.283  0.00  0.00    -0.267 OA
ATOM     31  N   UNL     1      -0.698   1.558   1.213  0.00  0.00    -0.276 N 
BRANCH  31  32
ATOM     32  C   UNL     1      -0.013   1.086   0.008  0.00  0.00    +0.252 C 
BRANCH  32  33
ATOM     33  C   UNL     1      -0.742   1.585  -1.213  0.00  0.00    +0.375 C 
ATOM     34  O   UNL     1      -1.732   2.266  -1.089  0.00  0.00    -0.244 OA
ATOM     35  O   UNL     1      -0.290   1.274  -2.438  0.00  0.00    -0.244 OA
ENDBRANCH  32  33
ENDBRANCH  31  32
ENDBRANCH  20  21
ENDBRANCH  19  20
ENDBRANCH   2  19
TORSDOF 8
