REMARK  Name = ZINC12984067
REMARK  10 active torsions:
REMARK  status: ('A' for Active; 'I' for Inactive)
REMARK    1  A    between atoms: C_1  and  C_2
REMARK    2  A    between atoms: C_5  and  C_8
REMARK    3  A    between atoms: C_8  and  C_34
REMARK    4  A    between atoms: N_11  and  C_15
REMARK    5  A    between atoms: C_15  and  C_16
REMARK    6  A    between atoms: N_18  and  C_19
REMARK    7  A    between atoms: C_20  and  C_30
REMARK    8  A    between atoms: C_25  and  C_29
REMARK    9  A    between atoms: C_30  and  O_32
REMARK   10  A    between atoms: O_32  and  C_33
REMARK                            x       y       z     vdW  Elec       q    Type
REMARK                         _______ _______ _______ _____ _____    ______ ____
ROOT
ATOM      1  C   UNL     1       2.472  -7.579  -1.757  0.00  0.00    +0.236 C 
ATOM      2  O   UNL     1       1.404  -7.979  -1.343  0.00  0.00    -0.274 OA
ATOM      3  N   UNL     1       3.265  -8.397  -2.477  0.00  0.00    -0.278 N 
ATOM      4  H   UNL     1       4.119  -8.077  -2.808  0.00  0.00    +0.155 HD
ENDROOT
BRANCH   3   5
ATOM      5  C   UNL     1       2.861  -9.695  -2.744  0.00  0.00    +0.086 A 
ATOM      6  C   UNL     1       3.529 -10.676  -3.465  0.00  0.00    +0.091 A 
ATOM      7  C   UNL     1       2.882 -11.971  -3.596  0.00  0.00    -0.021 A 
ATOM      8  C   UNL     1       1.675 -12.074  -2.999  0.00  0.00    -0.004 A 
ATOM      9  S   UNL     1       1.395 -10.487  -2.266  0.00  0.00    -0.077 S 
ATOM     10  C   UNL     1       0.779 -13.274  -2.973  0.00  0.00    +0.046 C 
ATOM     11  C   UNL     1       1.264 -14.263  -4.043  0.00  0.00    -0.009 C 
ATOM     12  C   UNL     1       2.780 -14.431  -3.908  0.00  0.00    +0.008 C 
ATOM     13  C   UNL     1       3.488 -13.149  -4.349  0.00  0.00    +0.037 C 
ATOM     14  C   UNL     1       0.577 -15.615  -3.841  0.00  0.00    +0.008 C 
BRANCH   6  15
ATOM     15  C   UNL     1       4.838 -10.417  -4.067  0.00  0.00    +0.342 C 
ATOM     16  O   UNL     1       5.853 -10.638  -3.434  0.00  0.00    -0.245 OA
BRANCH  15  17
ATOM     17  O   UNL     1       4.919  -9.933  -5.324  0.00  0.00    -0.464 OA
ATOM     18  C   UNL     1       6.250  -9.700  -5.856  0.00  0.00    +0.280 C 
ENDBRANCH  15  17
ENDBRANCH   6  15
ENDBRANCH   3   5
BRANCH   1  19
ATOM     19  C   UNL     1       2.911  -6.167  -1.467  0.00  0.00    +0.214 C 
BRANCH  19  23
ATOM     20  C   UNL     1       0.060  -4.275  -0.021  0.00  0.00    +0.135 C 
ATOM     21  C   UNL     1       0.857  -4.791  -1.203  0.00  0.00    +0.251 C 
ATOM     22  O   UNL     1       0.621  -4.614  -2.379  0.00  0.00    -0.272 OA
ATOM     23  N   UNL     1       1.883  -5.488  -0.675  0.00  0.00    -0.215 N 
ATOM     24  C   UNL     1       1.845  -5.484   0.662  0.00  0.00    +0.310 C 
ATOM     25  O   UNL     1       2.664  -6.046   1.363  0.00  0.00    -0.252 OA
ATOM     26  N   UNL     1       0.798  -4.790   1.145  0.00  0.00    -0.281 N 
ATOM     27  C   UNL     1      -1.365  -4.832  -0.045  0.00  0.00    +0.047 C 
ATOM     28  H   UNL     1       0.573  -4.655   2.079  0.00  0.00    +0.152 HD
BRANCH  20  33
ATOM     29  C   UNL     1      -0.018   1.503   0.010  0.00  0.00    +0.044 C 
ATOM     30  C   UNL     1       0.002  -0.004   0.002  0.00  0.00    -0.050 A 
ATOM     31  C   UNL     1      -0.006  -0.689  -1.199  0.00  0.00    +0.004 A 
ATOM     32  C   UNL     1       0.018  -2.071  -1.206  0.00  0.00    +0.006 A 
ATOM     33  C   UNL     1       0.039  -2.768  -0.013  0.00  0.00    -0.015 A 
ATOM     34  C   UNL     1       0.041  -2.084   1.188  0.00  0.00    +0.006 A 
ATOM     35  C   UNL     1       0.023  -0.702   1.195  0.00  0.00    +0.004 A 
ENDBRANCH  20  33
ENDBRANCH  19  23
ENDBRANCH   1  19
TORSDOF 6
