REMARK  Name = ZINC27324831
REMARK  7 active torsions:
REMARK  status: ('A' for Active; 'I' for Inactive)
REMARK    1  A    between atoms: C_1  and  C_2
REMARK    2  A    between atoms: C_2  and  C_39
REMARK    3  A    between atoms: C_7  and  C_21
REMARK    4  A    between atoms: C_8  and  N_11
REMARK    5  A    between atoms: C_12  and  C_14
REMARK    6  A    between atoms: C_21  and  S_22
REMARK    7  A    between atoms: S_22  and  N_25
REMARK                            x       y       z     vdW  Elec       q    Type
REMARK                         _______ _______ _______ _____ _____    ______ ____
ROOT
ATOM      1  C   UNL     1      -7.578   0.100  -0.997  0.00  0.00    +0.012 C 
ATOM      2  C   UNL     1      -7.801   1.098   0.142  0.00  0.00    -0.023 C 
ATOM      3  C   UNL     1      -8.872   2.184  -0.229  0.00  0.00    -0.003 C 
ATOM      4  C   UNL     1      -8.182   2.900  -1.431  0.00  0.00    +0.005 C 
ATOM      5  C   UNL     1      -6.639   2.839  -1.075  0.00  0.00    +0.011 C 
ATOM      6  C   UNL     1      -6.599   2.095   0.295  0.00  0.00    +0.015 C 
ATOM      7  C   UNL     1      -7.199   3.115   1.311  0.00  0.00    +0.082 C 
ATOM      8  C   UNL     1      -8.704   3.174   0.964  0.00  0.00    +0.027 C 
ATOM      9  C   UNL     1      -8.132   0.392   1.458  0.00  0.00    +0.012 C 
ENDROOT
BRANCH   7  10
ATOM     10  N   UNL     1      -6.582   4.433   1.136  0.00  0.00    -0.310 N 
ATOM     11  C   UNL     1      -6.801   5.405   2.043  0.00  0.00    +0.235 C 
ATOM     12  O   UNL     1      -7.508   5.189   3.005  0.00  0.00    -0.274 OA
ATOM     13  H   UNL     1      -5.941   4.628   0.264  0.00  0.00    +0.149 HD
BRANCH  11  14
ATOM     14  C   UNL     1      -6.167   6.760   1.863  0.00  0.00    +0.177 C 
ATOM     15  C   UNL     1      -4.712   6.748   2.370  0.00  0.00    +0.137 C 
ATOM     16  N   UNL     1      -4.713   7.742   3.458  0.00  0.00    -0.297 N 
ATOM     17  C   UNL     1      -5.942   8.259   3.581  0.00  0.00    +0.300 C 
ATOM     18  O   UNL     1      -6.225   9.107   4.405  0.00  0.00    -0.253 OA
ATOM     19  N   UNL     1      -6.832   7.758   2.715  0.00  0.00    -0.287 N 
ATOM     20  H   UNL     1      -3.787   7.948   4.016  0.00  0.00    +0.150 HD
ATOM     21  H   UNL     1      -7.900   7.979   2.572  0.00  0.00    +0.151 HD
ENDBRANCH  11  14
ENDBRANCH   7  10
BRANCH   6  22
ATOM     22  C   UNL     1      -5.254   1.478   0.682  0.00  0.00    +0.194 C 
BRANCH  22  23
ATOM     23  S   UNL     1      -4.010   2.789   0.838  0.00  0.00    +0.032 S 
ATOM     24  O   UNL     1      -4.308   3.616   1.955  0.00  0.00    -0.158 OA
ATOM     25  O   UNL     1      -3.738   3.361  -0.434  0.00  0.00    -0.158 OA
BRANCH  23  26
ATOM     26  N   UNL     1      -2.613   2.003   1.255  0.00  0.00    -0.181 NA
ATOM     27  C   UNL     1      -1.691   1.517   0.220  0.00  0.00    +0.110 C 
ATOM     28  C   UNL     1      -0.293   2.078   0.503  0.00  0.00    +0.028 C 
ATOM     29  C   UNL     1       0.111   1.730   1.934  0.00  0.00    -0.001 C 
ATOM     30  C   UNL     1       0.161   0.201   2.108  0.00  0.00    +0.016 C 
ATOM     31  C   UNL     1       1.643  -0.115   1.808  0.00  0.00    +0.036 C 
ATOM     32  C   UNL     1       2.396   1.154   2.144  0.00  0.00    -0.044 A 
ATOM     33  C   UNL     1       1.513   2.217   2.216  0.00  0.00    -0.038 A 
ATOM     34  C   UNL     1       1.984   3.484   2.513  0.00  0.00    +0.004 A 
ATOM     35  C   UNL     1       3.332   3.691   2.737  0.00  0.00    +0.000 A 
ATOM     36  C   UNL     1       4.214   2.629   2.664  0.00  0.00    +0.000 A 
ATOM     37  C   UNL     1       3.746   1.364   2.368  0.00  0.00    +0.004 A 
ATOM     38  C   UNL     1      -0.872   2.337   2.932  0.00  0.00    +0.028 C 
ATOM     39  C   UNL     1      -2.274   1.779   2.667  0.00  0.00    +0.110 C 
ENDBRANCH  23  26
ENDBRANCH  22  23
ENDBRANCH   6  22
TORSDOF 5
