REMARK  Name = ZINC15802064
REMARK  8 active torsions:
REMARK  status: ('A' for Active; 'I' for Inactive)
REMARK    1  A    between atoms: C_1  and  C_2
REMARK    2  A    between atoms: C_2  and  C_4
REMARK    3  A    between atoms: C_2  and  O_15
REMARK    4  A    between atoms: N_6  and  C_7
REMARK    5  A    between atoms: O_15  and  C_16
REMARK    6  A    between atoms: C_16  and  C_18
REMARK    7  A    between atoms: C_19  and  C_20
REMARK    8  A    between atoms: C_24  and  N_26
REMARK                            x       y       z     vdW  Elec       q    Type
REMARK                         _______ _______ _______ _____ _____    ______ ____
ROOT
ATOM      1  C   UNL     1      -2.376  10.033   1.535  0.00  0.00    +0.062 C 
ATOM      2  C   UNL     1      -2.399   9.526   0.091  0.00  0.00    +0.259 C 
ENDROOT
BRANCH   2   3
ATOM      3  C   UNL     1      -3.610  10.079  -0.616  0.00  0.00    +0.258 C 
ATOM      4  O   UNL     1      -4.485   9.329  -0.996  0.00  0.00    -0.271 OA
ATOM      5  N   UNL     1      -3.720  11.405  -0.826  0.00  0.00    -0.280 N 
ATOM      6  H   UNL     1      -3.053  12.010  -0.466  0.00  0.00    +0.155 HD
BRANCH   5   7
ATOM      7  C   UNL     1      -4.798  11.910  -1.564  0.00  0.00    +0.069 A 
ATOM      8  C   UNL     1      -6.044  11.304  -1.480  0.00  0.00    +0.027 A 
ATOM      9  C   UNL     1      -7.105  11.803  -2.209  0.00  0.00    +0.017 A 
ATOM     10  C   UNL     1      -6.929  12.908  -3.024  0.00  0.00    +0.021 A 
ATOM     11  C   UNL     1      -5.689  13.516  -3.111  0.00  0.00    +0.055 A 
ATOM     12  C   UNL     1      -4.624  13.024  -2.379  0.00  0.00    +0.146 A 
ATOM     13  F   UNL     1      -3.414  13.620  -2.460  0.00  0.00    -0.204 F 
ATOM     14 BR   UNL     1      -8.385  13.588  -4.020  0.00  0.00    -0.050 Br
ENDBRANCH   5   7
ENDBRANCH   2   3
BRANCH   2  15
ATOM     15  O   UNL     1      -2.457   8.098   0.090  0.00  0.00    -0.449 OA
BRANCH  15  16
ATOM     16  C   UNL     1      -1.281   7.437   0.086  0.00  0.00    +0.333 C 
ATOM     17  O   UNL     1      -0.235   8.057   0.085  0.00  0.00    -0.246 OA
BRANCH  16  18
ATOM     18  C   UNL     1      -1.264   5.975   0.085  0.00  0.00    +0.092 C 
ATOM     19  C   UNL     1      -0.088   5.314   0.081  0.00  0.00    +0.015 C 
BRANCH  19  20
ATOM     20  C   UNL     1      -0.071   3.842   0.080  0.00  0.00    -0.023 A 
ATOM     21  C   UNL     1      -1.272   3.125   0.081  0.00  0.00    +0.008 A 
ATOM     22  C   UNL     1      -1.247   1.747   0.075  0.00  0.00    +0.003 A 
ATOM     23  C   UNL     1      -0.038   1.073   0.077  0.00  0.00    +0.033 A 
ATOM     24  C   UNL     1       1.154   1.775   0.075  0.00  0.00    +0.127 A 
ATOM     25  C   UNL     1       1.147   3.154   0.076  0.00  0.00    +0.040 A 
BRANCH  24  26
ATOM     26  N   UNL     1       2.441   1.044   0.072  0.00  0.00    +0.056 N 
ATOM     27  O   UNL     1       2.450  -0.174   0.071  0.00  0.00    -0.126 OA
ATOM     28  O   UNL     1       3.492   1.661   0.070  0.00  0.00    -0.126 OA
ENDBRANCH  24  26
ENDBRANCH  19  20
ENDBRANCH  16  18
ENDBRANCH  15  16
ENDBRANCH   2  15
TORSDOF 7
