REMARK  Name = ZINC39663746
REMARK  10 active torsions:
REMARK  status: ('A' for Active; 'I' for Inactive)
REMARK    1  A    between atoms: C_1  and  N_2
REMARK    2  A    between atoms: N_2  and  C_3
REMARK    3  A    between atoms: N_2  and  C_4
REMARK    4  A    between atoms: C_4  and  C_6
REMARK    5  A    between atoms: C_4  and  C_30
REMARK    6  A    between atoms: C_6  and  N_7
REMARK    7  A    between atoms: C_8  and  C_10
REMARK    8  A    between atoms: C_21  and  C_23
REMARK    9  A    between atoms: C_33  and  O_36
REMARK   10  A    between atoms: O_36  and  C_37
REMARK                            x       y       z     vdW  Elec       q    Type
REMARK                         _______ _______ _______ _____ _____    ______ ____
ROOT
ATOM      1  C   UNL     1      -0.504  -3.661   2.906  0.00  0.00    +0.100 C 
ATOM      2  C   UNL     1      -1.579  -3.005   3.801  0.00  0.00    +0.121 C 
ATOM      3  N   UNL     1      -2.556  -4.087   4.068  0.00  0.00    -0.296 N 
ATOM      4  C   UNL     1      -1.722  -5.297   4.261  0.00  0.00    +0.115 C 
ATOM      5  C   UNL     1      -0.599  -5.165   3.214  0.00  0.00    -0.004 C 
ATOM      6  C   UNL     1       0.721  -5.671   3.788  0.00  0.00    -0.010 C 
ATOM      7  C   UNL     1       0.622  -7.180   4.031  0.00  0.00    -0.082 C 
ATOM      8  N   UNL     1       0.322  -7.862   2.766  0.00  0.00    +0.379 N 
ATOM      9  C   UNL     1      -0.993  -7.438   2.268  0.00  0.00    -0.082 C 
ATOM     10  C   UNL     1      -0.962  -5.941   1.951  0.00  0.00    -0.010 C 
ATOM     11  C   UNL     1      -3.899  -3.992   4.122  0.00  0.00    +0.247 C 
ATOM     12  O   UNL     1      -4.446  -2.941   3.849  0.00  0.00    -0.270 OA
ATOM     13  H   UNL     1       1.029  -7.631   2.084  0.00  0.00    -0.086 HD
ATOM     14  H   UNL     1       0.317  -8.860   2.917  0.00  0.00    -0.086 HD
ENDROOT
BRANCH  11  15
ATOM     15  C   UNL     1      -4.708  -5.165   4.514  0.00  0.00    +0.037 A 
ATOM     16  C   UNL     1      -4.129  -6.200   5.251  0.00  0.00    +0.014 A 
ATOM     17  C   UNL     1      -4.889  -7.293   5.614  0.00  0.00    +0.021 A 
ATOM     18  C   UNL     1      -6.223  -7.364   5.248  0.00  0.00    +0.041 A 
ATOM     19  C   UNL     1      -6.803  -6.340   4.518  0.00  0.00    +0.021 A 
ATOM     20  C   UNL     1      -6.055  -5.240   4.154  0.00  0.00    +0.014 A 
ATOM     21 CL   UNL     1      -7.173  -8.743   5.708  0.00  0.00    -0.084 Cl
ENDBRANCH  11  15
BRANCH   1  23
ATOM     22  N   UNL     1       0.201  -3.365   0.554  0.00  0.00    -0.316 N 
ATOM     23  C   UNL     1      -0.803  -3.403   1.452  0.00  0.00    +0.218 C 
ATOM     24  O   UNL     1      -1.948  -3.229   1.090  0.00  0.00    -0.275 OA
ATOM     25  H   UNL     1       1.116  -3.505   0.843  0.00  0.00    +0.149 HD
BRANCH  22  26
ATOM     26  C   UNL     1      -0.090  -3.115  -0.860  0.00  0.00    +0.093 C 
BRANCH  26  27
ATOM     27  C   UNL     1       1.219  -3.079  -1.651  0.00  0.00    -0.021 C 
BRANCH  27  28
ATOM     28  C   UNL     1       1.884  -4.429  -1.582  0.00  0.00    -0.059 A 
ATOM     29  C   UNL     1       2.607  -4.786  -0.459  0.00  0.00    +0.005 A 
ATOM     30  C   UNL     1       3.218  -6.023  -0.393  0.00  0.00    +0.046 A 
ATOM     31  C   UNL     1       3.106  -6.908  -1.455  0.00  0.00    +0.120 A 
ATOM     32  C   UNL     1       2.380  -6.548  -2.581  0.00  0.00    +0.046 A 
ATOM     33  C   UNL     1       1.766  -5.312  -2.640  0.00  0.00    +0.005 A 
BRANCH  31  34
ATOM     34  O   UNL     1       3.707  -8.125  -1.393  0.00  0.00    -0.495 OA
ATOM     35  C   UNL     1       3.550  -8.985  -2.524  0.00  0.00    +0.277 C 
ENDBRANCH  31  34
ENDBRANCH  27  28
BRANCH  27  37
ATOM     36  C   UNL     1       3.393  -2.077  -1.793  0.00  0.00    -0.096 C 
ATOM     37  N   UNL     1       2.111  -2.063  -1.077  0.00  0.00    +0.382 N 
ATOM     38  C   UNL     1       1.492  -0.738  -1.207  0.00  0.00    -0.096 C 
ATOM     39  H   UNL     1       2.268  -2.267  -0.102  0.00  0.00    -0.082 HD
ENDBRANCH  27  37
ENDBRANCH  26  27
ENDBRANCH  22  26
ENDBRANCH   1  23
TORSDOF 7
