REMARK  Name = ZINC49149833
REMARK  4 active torsions:
REMARK  status: ('A' for Active; 'I' for Inactive)
REMARK    1  A    between atoms: C_4  and  N_19
REMARK    2  A    between atoms: C_6  and  S_7
REMARK    3  A    between atoms: S_7  and  N_10
REMARK    4  A    between atoms: N_10  and  C_11
REMARK                            x       y       z     vdW  Elec       q    Type
REMARK                         _______ _______ _______ _____ _____    ______ ____
ROOT
ATOM      1  S   UNL     1      -1.512  -0.904   0.012  0.00  0.00    +0.092 S 
ATOM      2  O   UNL     1      -1.220  -2.185   0.553  0.00  0.00    -0.148 OA
ATOM      3  O   UNL     1      -2.492  -0.045   0.577  0.00  0.00    -0.148 OA
ENDROOT
BRANCH   1   9
ATOM      4  C   UNL     1      -0.017   1.378   0.010  0.00  0.00    +0.030 A 
ATOM      5  C   UNL     1       1.170   2.089   0.002  0.00  0.00    +0.024 A 
ATOM      6  C   UNL     1       2.378   1.419  -0.013  0.00  0.00    +0.062 A 
ATOM      7  C   UNL     1       2.400   0.029  -0.021  0.00  0.00    +0.045 A 
ATOM      8  C   UNL     1       1.207  -0.680  -0.013  0.00  0.00    +0.053 A 
ATOM      9  C   UNL     1       0.002  -0.004   0.002  0.00  0.00    +0.112 A 
ATOM     10 CL   UNL     1       3.867   2.312  -0.023  0.00  0.00    -0.082 Cl
BRANCH   7  11
ATOM     11  N   UNL     1       3.620  -0.652  -0.036  0.00  0.00    -0.357 N 
ATOM     12  H   UNL     1       4.453  -0.155  -0.042  0.00  0.00    +0.142 HD
ATOM     13  H   UNL     1       3.634  -1.622  -0.042  0.00  0.00    +0.142 HD
ENDBRANCH   7  11
ENDBRANCH   1   9
BRANCH   1  14
ATOM     14  N   UNL     1      -1.949  -1.146  -1.567  0.00  0.00    -0.097 NA
BRANCH  14  15
ATOM     15  C   UNL     1      -3.124  -1.841  -1.869  0.00  0.00    +0.088 A 
ATOM     16  C   UNL     1      -3.929  -2.324  -0.845  0.00  0.00    +0.029 A 
ATOM     17  C   UNL     1      -5.089  -3.010  -1.147  0.00  0.00    +0.017 A 
ATOM     18  C   UNL     1      -5.450  -3.217  -2.466  0.00  0.00    +0.019 A 
ATOM     19  C   UNL     1      -4.651  -2.737  -3.488  0.00  0.00    +0.032 A 
ATOM     20  C   UNL     1      -3.491  -2.045  -3.193  0.00  0.00    +0.043 A 
ATOM     21 BR   UNL     1      -2.403  -1.382  -4.590  0.00  0.00    -0.048 Br
ATOM     22 BR   UNL     1      -7.039  -4.157  -2.874  0.00  0.00    -0.050 Br
ENDBRANCH  14  15
ENDBRANCH   1  14
TORSDOF 4
