REMARK  Name = ZINC08793015
REMARK  9 active torsions:
REMARK  status: ('A' for Active; 'I' for Inactive)
REMARK    1  A    between atoms: C_1  and  C_2
REMARK    2  A    between atoms: C_2  and  O_3
REMARK    3  A    between atoms: O_3  and  C_4
REMARK    4  A    between atoms: C_4  and  C_6
REMARK    5  A    between atoms: C_10  and  N_11
REMARK    6  A    between atoms: C_12  and  C_14
REMARK    7  A    between atoms: C_25  and  C_26
REMARK    8  A    between atoms: C_25  and  C_27
REMARK    9  A    between atoms: C_25  and  N_50
REMARK                            x       y       z     vdW  Elec       q    Type
REMARK                         _______ _______ _______ _____ _____    ______ ____
ROOT
ATOM      1  C   UNL     1      -3.680   1.655   0.029  0.00  0.00    +0.091 A 
ATOM      2  C   UNL     1      -4.762   0.688   0.028  0.00  0.00    -0.025 A 
ATOM      3  C   UNL     1      -4.378  -0.609   0.020  0.00  0.00    -0.021 A 
ATOM      4  S   UNL     1      -2.611  -0.557   0.004  0.00  0.00    -0.079 S 
ATOM      5  C   UNL     1      -2.381   1.161   0.020  0.00  0.00    +0.086 A 
ATOM      6  C   UNL     1      -5.281  -1.802   0.020  0.00  0.00    -0.035 C 
ATOM      7  C   UNL     1      -7.035  -0.187  -0.408  0.00  0.00    -0.073 C 
ATOM      8  C   UNL     1      -6.243   1.047   0.033  0.00  0.00    +0.018 C 
ATOM      9  N   UNL     1      -6.636  -1.346   0.416  0.00  0.00    +0.384 N 
ATOM     10  H   UNL     1      -6.619  -1.065   1.403  0.00  0.00    -0.081 HD
ENDROOT
BRANCH   5  11
ATOM     11  N   UNL     1      -1.191   1.869   0.018  0.00  0.00    -0.275 N 
ATOM     12  C   UNL     1      -0.014   1.212   0.009  0.00  0.00    +0.250 C 
ATOM     13  O   UNL     1       0.002  -0.004   0.002  0.00  0.00    -0.270 OA
ATOM     14  H   UNL     1      -1.204   2.839   0.023  0.00  0.00    +0.156 HD
BRANCH  12  15
ATOM     15  C   UNL     1       1.255   1.967   0.001  0.00  0.00    +0.057 A 
ATOM     16  C   UNL     1       1.239   3.364   0.008  0.00  0.00    +0.034 A 
ATOM     17  C   UNL     1       2.429   4.064   0.001  0.00  0.00    +0.042 A 
ATOM     18  C   UNL     1       3.636   3.384  -0.014  0.00  0.00    +0.021 A 
ATOM     19  C   UNL     1       3.659   2.002  -0.022  0.00  0.00    +0.022 A 
ATOM     20  C   UNL     1       2.476   1.289  -0.009  0.00  0.00    +0.053 A 
ATOM     21 CL   UNL     1       2.506  -0.447  -0.011  0.00  0.00    -0.083 Cl
ATOM     22 CL   UNL     1       2.412   5.800   0.010  0.00  0.00    -0.084 Cl
ENDBRANCH  12  15
ENDBRANCH   5  11
BRANCH   9  23
ATOM     23  C   UNL     1      -7.610  -2.446   0.246  0.00  0.00    -0.074 C 
ATOM     24  C   UNL     1      -7.649  -2.906  -1.212  0.00  0.00    -0.014 C 
ATOM     25  C   UNL     1      -7.197  -3.618   1.139  0.00  0.00    -0.014 C 
ENDBRANCH   9  23
BRANCH   1  26
ATOM     26  C   UNL     1      -3.946   3.095   0.037  0.00  0.00    +0.342 C 
ATOM     27  O   UNL     1      -4.061   3.698  -1.012  0.00  0.00    -0.245 OA
BRANCH  26  28
ATOM     28  O   UNL     1      -4.064   3.751   1.210  0.00  0.00    -0.461 OA
BRANCH  28  30
ATOM     29  C   UNL     1      -4.428   5.745   2.560  0.00  0.00    +0.048 C 
ATOM     30  C   UNL     1      -4.328   5.178   1.143  0.00  0.00    +0.229 C 
ENDBRANCH  28  30
ENDBRANCH  26  28
ENDBRANCH   1  26
TORSDOF 6
