REMARK  Name = ZINC39324544
REMARK  11 active torsions:
REMARK  status: ('A' for Active; 'I' for Inactive)
REMARK    1  A    between atoms: C_1  and  C_2
REMARK    2  A    between atoms: C_2  and  C_3
REMARK    3  A    between atoms: C_2  and  N_4
REMARK    4  A    between atoms: C_7  and  C_8
REMARK    5  A    between atoms: C_13  and  O_14
REMARK    6  A    between atoms: O_14  and  C_15
REMARK    7  A    between atoms: C_19  and  C_27
REMARK    8  A    between atoms: C_21  and  C_25
REMARK    9  A    between atoms: C_22  and  N_24
REMARK   10  A    between atoms: C_32  and  O_33
REMARK   11  A    between atoms: O_33  and  C_34
REMARK                            x       y       z     vdW  Elec       q    Type
REMARK                         _______ _______ _______ _____ _____    ______ ____
ROOT
ATOM      1  N   UNL     1       0.365  -0.203   1.646  0.00  0.00    -0.292 NA
ATOM      2  C   UNL     1       1.770   0.197   1.443  0.00  0.00    +0.124 C 
ATOM      3  C   UNL     1       2.552  -0.327   2.630  0.00  0.00    +0.010 C 
ATOM      4  C   UNL     1       3.512   0.414   3.214  0.00  0.00    +0.020 C 
ATOM      5  C   UNL     1       2.223  -1.680   3.122  0.00  0.00    +0.136 C 
ATOM      6  C   UNL     1       1.137  -2.304   2.663  0.00  0.00    -0.000 C 
ATOM      7  C   UNL     1       0.236  -1.661   1.639  0.00  0.00    +0.120 C 
ATOM      8  C   UNL     1       0.781  -3.683   3.162  0.00  0.00    +0.099 C 
ATOM      9  C   UNL     1       1.505  -3.980   4.444  0.00  0.00    +0.098 C 
ATOM     10  C   UNL     1       2.590  -3.254   4.811  0.00  0.00    +0.199 C 
ATOM     11  O   UNL     1       3.043  -2.253   4.037  0.00  0.00    -0.441 OA
ENDROOT
BRANCH   4  12
ATOM     12  C   UNL     1       3.931   1.688   2.607  0.00  0.00    +0.017 A 
ATOM     13  C   UNL     1       3.955   1.829   1.216  0.00  0.00    +0.011 A 
ATOM     14  C   UNL     1       4.348   3.026   0.654  0.00  0.00    +0.001 A 
ATOM     15  C   UNL     1       4.719   4.088   1.461  0.00  0.00    +0.004 A 
ATOM     16  C   UNL     1       4.699   3.961   2.838  0.00  0.00    +0.046 A 
ATOM     17  C   UNL     1       4.301   2.769   3.420  0.00  0.00    +0.127 A 
BRANCH  17  18
ATOM     18  O   UNL     1       4.276   2.645   4.772  0.00  0.00    -0.495 OA
ATOM     19  C   UNL     1       4.667   3.788   5.535  0.00  0.00    +0.277 C 
ENDBRANCH  17  18
ENDBRANCH   4  12
BRANCH   8  20
ATOM     20  C   UNL     1       1.172  -4.705   2.126  0.00  0.00    +0.007 A 
ATOM     21  C   UNL     1       2.492  -4.824   1.736  0.00  0.00    +0.008 A 
ATOM     22  C   UNL     1       2.852  -5.761   0.785  0.00  0.00    +0.001 A 
ATOM     23  C   UNL     1       1.891  -6.581   0.221  0.00  0.00    +0.004 A 
ATOM     24  C   UNL     1       0.570  -6.466   0.607  0.00  0.00    +0.046 A 
ATOM     25  C   UNL     1       0.208  -5.530   1.566  0.00  0.00    +0.124 A 
BRANCH  25  26
ATOM     26  O   UNL     1      -1.091  -5.419   1.951  0.00  0.00    -0.495 OA
ATOM     27  C   UNL     1      -2.029  -6.301   1.333  0.00  0.00    +0.277 C 
ENDBRANCH  25  26
ENDBRANCH   8  20
BRANCH   1  29
ATOM     28  C   UNL     1      -0.439   1.931   0.753  0.00  0.00    +0.024 C 
ATOM     29  C   UNL     1      -0.507   0.407   0.633  0.00  0.00    +0.051 C 
ATOM     30  C   UNL     1      -0.042  -0.016  -0.762  0.00  0.00    +0.024 C 
ENDBRANCH   1  29
BRANCH  10  31
ATOM     31  N   UNL     1       3.235  -3.546   5.987  0.00  0.00    -0.328 N 
ATOM     32  H   UNL     1       2.913  -4.268   6.550  0.00  0.00    +0.145 HD
ATOM     33  H   UNL     1       4.012  -3.031   6.255  0.00  0.00    +0.145 HD
ENDBRANCH  10  31
BRANCH   9  34
ATOM     34  C   UNL     1       1.043  -5.040   5.289  0.00  0.00    +0.101 C 
ATOM     35  N   UNL     1       0.677  -5.882   5.959  0.00  0.00    -0.191 NA
ENDBRANCH   9  34
TORSDOF 7
