REMARK  Name = ZINC39676065
REMARK  8 active torsions:
REMARK  status: ('A' for Active; 'I' for Inactive)
REMARK    1  A    between atoms: C_4  and  C_7
REMARK    2  A    between atoms: C_7  and  N_8
REMARK    3  A    between atoms: C_10  and  C_13
REMARK    4  A    between atoms: C_13  and  N_14
REMARK    5  A    between atoms: C_15  and  C_17
REMARK    6  A    between atoms: C_28  and  C_30
REMARK    7  A    between atoms: C_30  and  O_31
REMARK    8  A    between atoms: O_31  and  C_32
REMARK                            x       y       z     vdW  Elec       q    Type
REMARK                         _______ _______ _______ _____ _____    ______ ____
ROOT
ATOM      1  C   UNL     1       8.824  -4.257   4.774  0.00  0.00    +0.100 C 
ATOM      2  C   UNL     1       9.535  -2.918   5.076  0.00  0.00    +0.121 C 
ATOM      3  N   UNL     1       9.850  -2.980   6.523  0.00  0.00    -0.297 N 
ATOM      4  C   UNL     1      10.264  -4.385   6.750  0.00  0.00    +0.115 C 
ATOM      5  C   UNL     1       9.309  -5.218   5.873  0.00  0.00    -0.004 C 
ATOM      6  C   UNL     1      10.053  -6.397   5.253  0.00  0.00    -0.010 C 
ATOM      7  C   UNL     1      10.473  -7.368   6.360  0.00  0.00    -0.082 C 
ATOM      8  N   UNL     1       9.284  -7.838   7.080  0.00  0.00    +0.379 N 
ATOM      9  C   UNL     1       8.626  -6.710   7.750  0.00  0.00    -0.082 C 
ATOM     10  C   UNL     1       8.127  -5.711   6.702  0.00  0.00    -0.010 C 
ATOM     11  C   UNL     1       9.777  -1.984   7.428  0.00  0.00    +0.253 C 
ATOM     12  O   UNL     1      10.072  -2.193   8.585  0.00  0.00    -0.272 OA
ATOM     13  H   UNL     1       8.641  -8.259   6.426  0.00  0.00    -0.086 HD
ATOM     14  H   UNL     1       9.557  -8.523   7.768  0.00  0.00    -0.086 HD
ENDROOT
BRANCH   1  16
ATOM     15  N   UNL     1       6.523  -4.875   4.112  0.00  0.00    -0.311 N 
ATOM     16  C   UNL     1       7.329  -4.086   4.849  0.00  0.00    +0.218 C 
ATOM     17  O   UNL     1       6.851  -3.237   5.572  0.00  0.00    -0.275 OA
ATOM     18  H   UNL     1       6.905  -5.554   3.534  0.00  0.00    +0.149 HD
BRANCH  15  19
ATOM     19  C   UNL     1       5.069  -4.709   4.185  0.00  0.00    +0.142 C 
BRANCH  19  22
ATOM     20  N   UNL     1       3.459  -7.524   2.517  0.00  0.00    -0.267 N 
ATOM     21  C   UNL     1       4.010  -6.956   3.610  0.00  0.00    +0.113 A 
ATOM     22  C   UNL     1       4.403  -5.707   3.272  0.00  0.00    +0.007 A 
ATOM     23  C   UNL     1       4.082  -5.504   1.926  0.00  0.00    +0.139 A 
ATOM     24  N   UNL     1       3.521  -6.595   1.471  0.00  0.00    -0.179 NA
BRANCH  20  25
ATOM     25  C   UNL     1       2.900  -8.876   2.437  0.00  0.00    +0.178 C 
BRANCH  25  29
ATOM     26  C   UNL     1      -1.117  -8.676   0.999  0.00  0.00    +0.000 A 
ATOM     27  C   UNL     1      -0.070  -8.805   0.107  0.00  0.00    +0.000 A 
ATOM     28  C   UNL     1       1.230  -8.870   0.572  0.00  0.00    +0.005 A 
ATOM     29  C   UNL     1       1.483  -8.805   1.930  0.00  0.00    -0.026 A 
ATOM     30  C   UNL     1       0.435  -8.675   2.822  0.00  0.00    +0.005 A 
ATOM     31  C   UNL     1      -0.865  -8.611   2.357  0.00  0.00    +0.000 A 
ENDBRANCH  25  29
ENDBRANCH  20  25
ENDBRANCH  19  22
ENDBRANCH  15  19
ENDBRANCH   1  16
BRANCH  11  32
ATOM     32  C   UNL     1       9.329  -0.610   7.001  0.00  0.00    +0.324 C 
BRANCH  32  33
ATOM     33  O   UNL     1       9.335   0.266   8.130  0.00  0.00    -0.483 OA
BRANCH  33  34
ATOM     34  C   UNL     1       8.954   1.552   7.916  0.00  0.00    +0.123 A 
ATOM     35  C   UNL     1       8.577   1.963   6.645  0.00  0.00    +0.046 A 
ATOM     36  C   UNL     1       8.190   3.271   6.429  0.00  0.00    +0.005 A 
ATOM     37  C   UNL     1       8.177   4.172   7.477  0.00  0.00    +0.020 A 
ATOM     38  C   UNL     1       8.553   3.766   8.745  0.00  0.00    +0.044 A 
ATOM     39  C   UNL     1       8.935   2.456   8.968  0.00  0.00    +0.065 A 
ATOM     40 CL   UNL     1       8.536   4.900  10.060  0.00  0.00    -0.083 Cl
ENDBRANCH  33  34
ENDBRANCH  32  33
ENDBRANCH  11  32
TORSDOF 8
