REMARK  Name = ZINC63993705
REMARK  14 active torsions:
REMARK  status: ('A' for Active; 'I' for Inactive)
REMARK    1  A    between atoms: C_1  and  C_2
REMARK    2  A    between atoms: C_2  and  C_3
REMARK    3  A    between atoms: C_3  and  N_4
REMARK    4  A    between atoms: N_4  and  C_5
REMARK    5  A    between atoms: N_11  and  C_26
REMARK    6  A    between atoms: C_12  and  C_22
REMARK    7  A    between atoms: C_14  and  N_16
REMARK    8  A    between atoms: C_17  and  C_19
REMARK    9  A    between atoms: C_19  and  O_20
REMARK   10  A    between atoms: O_20  and  C_21
REMARK   11  A    between atoms: C_22  and  O_24
REMARK   12  A    between atoms: O_24  and  C_25
REMARK   13  A    between atoms: C_26  and  C_27
REMARK   14  A    between atoms: C_27  and  C_28
REMARK                            x       y       z     vdW  Elec       q    Type
REMARK                         _______ _______ _______ _____ _____    ______ ____
ROOT
ATOM      1  C   UNL     1      -2.617  -2.715   0.013  0.00  0.00    +0.044 A 
ATOM      2  C   UNL     1      -2.613  -4.109   0.011  0.00  0.00    +0.033 A 
ATOM      3  C   UNL     1      -3.826  -4.771   0.018  0.00  0.00    +0.015 A 
ATOM      4  C   UNL     1      -5.011  -4.050   0.028  0.00  0.00    +0.105 A 
ATOM      5  N   UNL     1      -4.970  -2.718   0.029  0.00  0.00    -0.348 N 
ATOM      6  C   UNL     1      -3.834  -2.052   0.028  0.00  0.00    +0.107 A 
ATOM      7  N   UNL     1      -6.121  -4.892   0.035  0.00  0.00    -0.301 N 
ATOM      8  C   UNL     1      -5.694  -6.293   0.030  0.00  0.00    +0.208 C 
ATOM      9  C   UNL     1      -4.157  -6.245   0.019  0.00  0.00    +0.138 C 
ATOM     10  H   UNL     1      -5.804  -2.222   0.035  0.00  0.00    +0.167 HD
ENDROOT
BRANCH   9  11
ATOM     11  N   UNL     1      -3.616  -6.891   1.218  0.00  0.00    -0.304 N 
ATOM     12  C   UNL     1      -2.348  -7.347   1.224  0.00  0.00    +0.239 C 
ATOM     13  O   UNL     1      -1.654  -7.224   0.237  0.00  0.00    -0.273 OA
ATOM     14  H   UNL     1      -4.171  -6.989   2.008  0.00  0.00    +0.149 HD
BRANCH  12  15
ATOM     15  C   UNL     1      -1.792  -8.011   2.458  0.00  0.00    +0.255 C 
BRANCH  15  16
ATOM     16  O   UNL     1      -0.440  -8.405   2.218  0.00  0.00    -0.374 OA
ATOM     17  C   UNL     1       0.184  -9.048   3.331  0.00  0.00    +0.194 C 
ENDBRANCH  15  16
ENDBRANCH  12  15
ENDBRANCH   9  11
BRANCH   1  18
ATOM     18  N   UNL     1      -1.413  -1.998   0.005  0.00  0.00    -0.343 N 
ATOM     19  H   UNL     1      -0.567  -2.472  -0.006  0.00  0.00    +0.146 HD
BRANCH  18  20
ATOM     20  C   UNL     1      -1.433  -0.534   0.013  0.00  0.00    +0.101 C 
BRANCH  20  22
ATOM     21  C   UNL     1      -0.019   1.526   0.010  0.00  0.00    +0.005 C 
ATOM     22  C   UNL     1       0.002  -0.004   0.002  0.00  0.00    +0.015 C 
ENDBRANCH  20  22
ENDBRANCH  18  20
ENDBRANCH   1  18
BRANCH   8  23
ATOM     23  C   UNL     1      -6.188  -6.995   1.268  0.00  0.00    +0.330 C 
ATOM     24  O   UNL     1      -6.536  -6.351   2.229  0.00  0.00    -0.249 OA
BRANCH  23  25
ATOM     25  O   UNL     1      -6.242  -8.335   1.304  0.00  0.00    -0.467 OA
ATOM     26  C   UNL     1      -6.721  -8.934   2.510  0.00  0.00    +0.280 C 
ENDBRANCH  23  25
ENDBRANCH   8  23
BRANCH   7  27
ATOM     27  C   UNL     1      -7.515  -4.441   0.046  0.00  0.00    +0.112 C 
BRANCH  27  28
ATOM     28  C   UNL     1      -8.011  -4.282  -1.393  0.00  0.00    +0.052 C 
BRANCH  28  29
ATOM     29  C   UNL     1      -9.445  -3.818  -1.382  0.00  0.00    -0.040 C 
ATOM     30  C   UNL     1      -9.888  -2.544  -1.476  0.00  0.00    -0.001 A 
ATOM     31  C   UNL     1      -9.195  -1.258  -1.612  0.00  0.00    +0.010 A 
ATOM     32  C   UNL     1      -9.926  -0.122  -1.683  0.00  0.00    +0.001 A 
ATOM     33  C   UNL     1     -11.327  -0.143  -1.631  0.00  0.00    +0.002 A 
ATOM     34  C   UNL     1     -12.035  -1.286  -1.507  0.00  0.00    +0.026 A 
ATOM     35  C   UNL     1     -11.368  -2.539  -1.424  0.00  0.00    +0.043 A 
ATOM     36  N   UNL     1     -11.822  -3.763  -1.302  0.00  0.00    -0.380 N 
ATOM     37  C   UNL     1     -10.680  -4.684  -1.269  0.00  0.00    +0.144 C 
ATOM     38  H   UNL     1     -12.756  -4.018  -1.246  0.00  0.00    +0.160 HD
ENDBRANCH  28  29
ENDBRANCH  27  28
ENDBRANCH   7  27
TORSDOF 11
