REMARK  Name = ZINC59503512
REMARK  5 active torsions:
REMARK  status: ('A' for Active; 'I' for Inactive)
REMARK    1  A    between atoms: C_4  and  N_7
REMARK    2  A    between atoms: N_9  and  C_23
REMARK    3  A    between atoms: C_13  and  C_14
REMARK    4  A    between atoms: C_17  and  O_21
REMARK    5  A    between atoms: C_19  and  O_20
REMARK                            x       y       z     vdW  Elec       q    Type
REMARK                         _______ _______ _______ _____ _____    ______ ____
ROOT
ATOM      1  N   UNL     1       2.777  -1.171  -0.665  0.00  0.00    -0.225 NA
ATOM      2  C   UNL     1       3.267  -1.901   0.312  0.00  0.00    +0.173 C 
ATOM      3  N   UNL     1       4.589  -2.163   0.610  0.00  0.00    -0.214 N 
ATOM      4  C   UNL     1       4.908  -2.926   1.641  0.00  0.00    +0.263 C 
ATOM      5  O   UNL     1       6.069  -3.167   1.918  0.00  0.00    -0.269 OA
ATOM      6  C   UNL     1       3.797  -3.472   2.440  0.00  0.00    +0.079 C 
ATOM      7  C   UNL     1       3.837  -4.274   3.536  0.00  0.00    +0.032 C 
ATOM      8  S   UNL     1       2.384  -2.791   1.584  0.00  0.00    -0.048 S 
ENDROOT
BRANCH   1  12
ATOM      9  C   UNL     1      -1.317  -0.723  -1.062  0.00  0.00    +0.000 A 
ATOM     10  C   UNL     1      -0.489   0.380  -1.178  0.00  0.00    +0.002 A 
ATOM     11  C   UNL     1       0.877   0.238  -1.047  0.00  0.00    +0.028 A 
ATOM     12  C   UNL     1       1.424  -1.023  -0.796  0.00  0.00    +0.067 A 
ATOM     13  C   UNL     1       0.582  -2.131  -0.679  0.00  0.00    +0.028 A 
ATOM     14  C   UNL     1      -0.782  -1.974  -0.813  0.00  0.00    +0.002 A 
ENDBRANCH   1  12
BRANCH   7  15
ATOM     15  C   UNL     1       2.604  -4.569   4.273  0.00  0.00    +0.018 A 
ATOM     16  C   UNL     1       1.558  -3.638   4.296  0.00  0.00    +0.015 A 
ATOM     17  C   UNL     1       0.403  -3.920   4.989  0.00  0.00    +0.046 A 
ATOM     18  C   UNL     1       0.271  -5.127   5.669  0.00  0.00    +0.120 A 
ATOM     19  C   UNL     1       1.301  -6.057   5.654  0.00  0.00    +0.091 A 
ATOM     20  C   UNL     1       2.465  -5.790   4.957  0.00  0.00    +0.127 A 
BRANCH  20  21
ATOM     21  O   UNL     1       3.471  -6.701   4.936  0.00  0.00    -0.506 OA
ATOM     22  H   UNL     1       4.109  -6.598   5.656  0.00  0.00    +0.292 HD
ENDBRANCH  20  21
BRANCH  18  23
ATOM     23  O   UNL     1      -0.872  -5.396   6.351  0.00  0.00    -0.507 OA
ATOM     24  H   UNL     1      -1.548  -5.845   5.824  0.00  0.00    +0.292 HD
ENDBRANCH  18  23
ENDBRANCH   7  15
BRANCH   3  25
ATOM     25  C   UNL     1       5.601  -1.614  -0.188  0.00  0.00    +0.043 A 
ATOM     26  C   UNL     1       6.442  -2.447  -0.915  0.00  0.00    +0.024 A 
ATOM     27  C   UNL     1       7.440  -1.903  -1.700  0.00  0.00    +0.002 A 
ATOM     28  C   UNL     1       7.601  -0.531  -1.764  0.00  0.00    +0.000 A 
ATOM     29  C   UNL     1       6.766   0.301  -1.041  0.00  0.00    +0.002 A 
ATOM     30  C   UNL     1       5.763  -0.237  -0.258  0.00  0.00    +0.024 A 
ENDBRANCH   3  25
TORSDOF 5
