REMARK  Name = ZINC40336598
REMARK  8 active torsions:
REMARK  status: ('A' for Active; 'I' for Inactive)
REMARK    1  A    between atoms: C_1  and  O_2
REMARK    2  A    between atoms: O_2  and  C_3
REMARK    3  A    between atoms: C_6  and  C_9
REMARK    4  A    between atoms: C_9  and  C_10
REMARK    5  A    between atoms: C_10  and  N_11
REMARK    6  A    between atoms: C_12  and  C_28
REMARK    7  A    between atoms: C_15  and  C_22
REMARK    8  A    between atoms: C_32  and  N_34
REMARK                            x       y       z     vdW  Elec       q    Type
REMARK                         _______ _______ _______ _____ _____    ______ ____
ROOT
ATOM      1  N   UNL     1       4.636  -3.373  -5.207  0.00  0.00    -0.285 N 
ATOM      2  C   UNL     1       4.757  -4.821  -5.417  0.00  0.00    +0.141 C 
ATOM      3  C   UNL     1       5.497  -4.993  -6.715  0.00  0.00    +0.035 A 
ATOM      4  C   UNL     1       6.036  -5.875  -7.658  0.00  0.00    +0.099 A 
ATOM      5  N   UNL     1       6.580  -5.148  -8.614  0.00  0.00    -0.173 NA
ATOM      6  N   UNL     1       6.439  -3.894  -8.367  0.00  0.00    -0.272 N 
ATOM      7  H   UNL     1       6.762  -3.175  -8.934  0.00  0.00    +0.189 HD
ATOM      8  C   UNL     1       5.767  -3.724  -7.190  0.00  0.00    +0.126 A 
ATOM      9  C   UNL     1       5.221  -2.745  -6.243  0.00  0.00    +0.265 C 
ATOM     10  O   UNL     1       5.289  -1.538  -6.375  0.00  0.00    -0.268 OA
ENDROOT
BRANCH   4  11
ATOM     11  C   UNL     1       6.000  -7.358  -7.595  0.00  0.00    +0.002 A 
ATOM     12  C   UNL     1       6.090  -8.007  -6.365  0.00  0.00    +0.010 A 
ATOM     13  C   UNL     1       6.057  -9.386  -6.312  0.00  0.00    +0.001 A 
ATOM     14  C   UNL     1       5.935 -10.123  -7.476  0.00  0.00    +0.000 A 
ATOM     15  C   UNL     1       5.845  -9.483  -8.700  0.00  0.00    +0.001 A 
ATOM     16  C   UNL     1       5.872  -8.105  -8.764  0.00  0.00    +0.010 A 
ENDBRANCH   4  11
BRANCH   2  17
ATOM     17  C   UNL     1       5.535  -5.447  -4.288  0.00  0.00    -0.020 A 
ATOM     18  C   UNL     1       6.637  -4.795  -3.764  0.00  0.00    +0.006 A 
ATOM     19  C   UNL     1       7.350  -5.369  -2.729  0.00  0.00    +0.003 A 
ATOM     20  C   UNL     1       6.963  -6.593  -2.217  0.00  0.00    +0.033 A 
ATOM     21  C   UNL     1       5.861  -7.244  -2.740  0.00  0.00    +0.127 A 
ATOM     22  C   UNL     1       5.145  -6.668  -3.773  0.00  0.00    +0.038 A 
BRANCH  21  23
ATOM     23  N   UNL     1       5.447  -8.555  -2.193  0.00  0.00    +0.056 N 
ATOM     24  O   UNL     1       6.071  -9.057  -1.288  0.00  0.00    -0.126 OA
ATOM     25  O   UNL     1       4.483  -9.124  -2.651  0.00  0.00    -0.126 OA
ENDBRANCH  21  23
ENDBRANCH   2  17
BRANCH   1  26
ATOM     26  C   UNL     1       3.986  -2.723  -4.066  0.00  0.00    +0.114 C 
BRANCH  26  27
ATOM     27  C   UNL     1       2.505  -2.503  -4.381  0.00  0.00    +0.054 C 
BRANCH  27  31
ATOM     28  C   UNL     1       0.606  -0.607  -1.056  0.00  0.00    +0.120 A 
ATOM     29  C   UNL     1       1.173   0.161  -2.062  0.00  0.00    +0.046 A 
ATOM     30  C   UNL     1       1.786  -0.455  -3.136  0.00  0.00    +0.007 A 
ATOM     31  C   UNL     1       1.835  -1.835  -3.209  0.00  0.00    -0.046 A 
ATOM     32  C   UNL     1       1.270  -2.602  -2.207  0.00  0.00    +0.007 A 
ATOM     33  C   UNL     1       0.661  -1.992  -1.128  0.00  0.00    +0.046 A 
BRANCH  28  35
ATOM     34  C   UNL     1      -0.017   1.425   0.010  0.00  0.00    +0.277 C 
ATOM     35  O   UNL     1       0.002  -0.004   0.002  0.00  0.00    -0.495 OA
ENDBRANCH  28  35
ENDBRANCH  27  31
ENDBRANCH  26  27
ENDBRANCH   1  26
TORSDOF 7
