REMARK  Name = ZINC36271074
REMARK  6 active torsions:
REMARK  status: ('A' for Active; 'I' for Inactive)
REMARK    1  A    between atoms: C_1  and  C_2
REMARK    2  A    between atoms: C_2  and  C_3
REMARK    3  A    between atoms: N_9  and  C_10
REMARK    4  A    between atoms: C_10  and  C_11
REMARK    5  A    between atoms: C_12  and  C_21
REMARK    6  A    between atoms: C_17  and  N_20
REMARK                            x       y       z     vdW  Elec       q    Type
REMARK                         _______ _______ _______ _____ _____    ______ ____
ROOT
ATOM      1  C   UNL     1      -2.534   1.766   2.715  0.00  0.00    +0.035 A 
ATOM      2  C   UNL     1      -3.682   2.461   2.952  0.00  0.00    +0.091 A 
ATOM      3  N   UNL     1      -3.610   2.986   4.184  0.00  0.00    -0.228 NA
ATOM      4  C   UNL     1      -2.452   2.645   4.734  0.00  0.00    +0.138 A 
ATOM      5  N   UNL     1      -1.760   1.875   3.837  0.00  0.00    -0.303 N 
ATOM      6  C   UNL     1      -0.525   1.380   4.154  0.00  0.00    +0.115 A 
ATOM      7  C   UNL     1       0.031   1.641   5.362  0.00  0.00    +0.041 A 
ATOM      8  C   UNL     1      -0.661   2.428   6.305  0.00  0.00    +0.028 A 
ATOM      9  C   UNL     1      -1.885   2.930   5.993  0.00  0.00    +0.048 A 
ENDROOT
BRANCH   2  10
ATOM     10  C   UNL     1      -4.817   2.611   2.008  0.00  0.00    +0.006 A 
ATOM     11  C   UNL     1      -6.128   2.499   2.469  0.00  0.00    +0.014 A 
ATOM     12  C   UNL     1      -7.183   2.639   1.590  0.00  0.00    +0.050 A 
ATOM     13  C   UNL     1      -6.944   2.890   0.248  0.00  0.00    +0.166 A 
ATOM     14  C   UNL     1      -5.635   3.003  -0.218  0.00  0.00    +0.167 A 
ATOM     15  C   UNL     1      -4.575   2.869   0.660  0.00  0.00    +0.059 A 
ATOM     16  O   UNL     1      -5.670   3.248  -1.561  0.00  0.00    -0.453 OA
ATOM     17  C   UNL     1      -6.996   2.879  -1.985  0.00  0.00    +0.466 C 
ATOM     18  O   UNL     1      -7.797   3.065  -0.803  0.00  0.00    -0.453 OA
ENDBRANCH   2  10
BRANCH   7  19
ATOM     19  N   UNL     1       1.297   1.128   5.675  0.00  0.00    -0.357 N 
ATOM     20  H   UNL     1       1.774   0.586   5.027  0.00  0.00    +0.142 HD
ATOM     21  H   UNL     1       1.696   1.314   6.539  0.00  0.00    +0.142 HD
ENDBRANCH   7  19
BRANCH   1  22
ATOM     22  C   UNL     1      -2.186   1.013   1.457  0.00  0.00    -0.021 C 
BRANCH  22  28
ATOM     23  C   UNL     1      -2.087  -1.156   0.441  0.00  0.00    -0.068 C 
ATOM     24  C   UNL     1      -2.357  -2.648   0.649  0.00  0.00    -0.015 C 
ATOM     25  C   UNL     1      -3.856  -2.863   0.873  0.00  0.00    -0.003 C 
ATOM     26  C   UNL     1      -4.310  -2.019   2.068  0.00  0.00    -0.019 C 
ATOM     27  C   UNL     1      -3.967  -0.551   1.808  0.00  0.00    -0.078 C 
ATOM     28  N   UNL     1      -2.518  -0.408   1.628  0.00  0.00    +0.385 N 
ATOM     29  H   UNL     1      -2.042  -0.767   2.442  0.00  0.00    -0.081 HD
BRANCH  23  31
ATOM     30  C   UNL     1      -0.154  -1.655  -1.062  0.00  0.00    +0.002 C 
ATOM     31  C   UNL     1      -0.589  -0.936   0.216  0.00  0.00    -0.019 C 
ENDBRANCH  23  31
ENDBRANCH  22  28
ENDBRANCH   1  22
TORSDOF 5
