REMARK  Name = ZINC66531811
REMARK  5 active torsions:
REMARK  status: ('A' for Active; 'I' for Inactive)
REMARK    1  A    between atoms: C_1  and  C_2
REMARK    2  A    between atoms: C_7  and  C_24
REMARK    3  A    between atoms: N_9  and  C_10
REMARK    4  A    between atoms: C_10  and  C_11
REMARK    5  A    between atoms: N_13  and  C_14
REMARK                            x       y       z     vdW  Elec       q    Type
REMARK                         _______ _______ _______ _____ _____    ______ ____
ROOT
ATOM      1  C   UNL     1       2.353  -0.741   2.860  0.00  0.00    +0.197 C 
ATOM      2  O   UNL     1       1.651  -1.538   3.446  0.00  0.00    -0.278 OA
ATOM      3  N   UNL     1       3.583  -0.454   3.328  0.00  0.00    -0.314 N 
ATOM      4  H   UNL     1       4.144   0.184   2.859  0.00  0.00    +0.149 HD
ENDROOT
BRANCH   3   5
ATOM      5  C   UNL     1       4.074  -1.105   4.545  0.00  0.00    +0.073 C 
ATOM      6  C   UNL     1       3.586  -0.330   5.770  0.00  0.00    +0.027 C 
ATOM      7  C   UNL     1       4.095  -1.012   7.042  0.00  0.00    +0.067 C 
ATOM      8  C   UNL     1       5.625  -1.039   7.026  0.00  0.00    +0.170 C 
ATOM      9  C   UNL     1       6.117  -1.810   5.800  0.00  0.00    +0.067 C 
ATOM     10  C   UNL     1       5.604  -1.127   4.530  0.00  0.00    +0.027 C 
ATOM     11  O   UNL     1       6.126   0.307   6.978  0.00  0.00    -0.346 OA
ATOM     12  C   UNL     1       6.396   0.650   8.358  0.00  0.00    +0.191 C 
ATOM     13  C   UNL     1       6.904  -0.699   8.925  0.00  0.00    +0.191 C 
ATOM     14  O   UNL     1       6.108  -1.671   8.219  0.00  0.00    -0.346 OA
ENDBRANCH   3   5
BRANCH   1  15
ATOM     15  C   UNL     1       1.848  -0.071   1.608  0.00  0.00    +0.019 C 
BRANCH  15  22
ATOM     16  C   UNL     1       1.639  -2.150  -0.371  0.00  0.00    -0.013 C 
ATOM     17  C   UNL     1       0.737  -2.060   0.862  0.00  0.00    -0.071 C 
ATOM     18  C   UNL     1      -0.622  -2.691   0.546  0.00  0.00    -0.016 C 
ATOM     19  C   UNL     1      -1.270  -1.936  -0.618  0.00  0.00    -0.003 C 
ATOM     20  C   UNL     1      -1.389  -0.455  -0.251  0.00  0.00    -0.016 C 
ATOM     21  C   UNL     1      -0.003   0.093   0.095  0.00  0.00    -0.071 C 
ATOM     22  N   UNL     1       0.552  -0.652   1.231  0.00  0.00    +0.389 N 
ATOM     23  C   UNL     1      -0.117   1.573   0.463  0.00  0.00    -0.013 C 
ATOM     24  H   UNL     1      -0.082  -0.590   2.013  0.00  0.00    -0.080 HD
ENDBRANCH  15  22
ENDBRANCH   1  15
TORSDOF 3
