REMARK  Name = ZINC35556639
REMARK  14 active torsions:
REMARK  status: ('A' for Active; 'I' for Inactive)
REMARK    1  A    between atoms: C_1  and  C_2
REMARK    2  A    between atoms: C_2  and  C_3
REMARK    3  A    between atoms: C_12  and  C_13
REMARK    4  A    between atoms: C_13  and  C_15
REMARK    5  A    between atoms: C_13  and  C_31
REMARK    6  A    between atoms: C_15  and  C_16
REMARK    7  A    between atoms: N_18  and  C_19
REMARK    8  A    between atoms: N_18  and  C_24
REMARK    9  A    between atoms: C_19  and  C_20
REMARK   10  A    between atoms: C_20  and  N_21
REMARK   11  A    between atoms: N_21  and  C_22
REMARK   12  A    between atoms: N_21  and  C_23
REMARK   13  A    between atoms: C_24  and  C_25
REMARK   14  A    between atoms: C_36  and  C_37
REMARK                            x       y       z     vdW  Elec       q    Type
REMARK                         _______ _______ _______ _____ _____    ______ ____
ROOT
ATOM      1  C   UNL     1      -5.223  -1.590  -3.073  0.00  0.00    +0.060 C 
ENDROOT
BRANCH   1  11
ATOM      2  C   UNL     1      -1.200  -0.040  -0.511  0.00  0.00    -0.024 A 
ATOM      3  C   UNL     1      -1.620  -0.410   0.748  0.00  0.00    +0.005 A 
ATOM      4  C   UNL     1      -2.854  -1.018   0.932  0.00  0.00    +0.001 A 
ATOM      5  C   UNL     1      -3.674  -1.260  -0.134  0.00  0.00    +0.010 A 
ATOM      6  C   UNL     1      -3.269  -0.893  -1.418  0.00  0.00    +0.004 A 
ATOM      7  C   UNL     1      -2.021  -0.271  -1.610  0.00  0.00    +0.050 A 
ATOM      8  N   UNL     1      -1.894  -0.022  -2.958  0.00  0.00    -0.360 N 
ATOM      9  H   UNL     1      -1.127   0.399  -3.377  0.00  0.00    +0.165 HD
ATOM     10  C   UNL     1      -3.011  -0.455  -3.618  0.00  0.00    +0.088 A 
ATOM     11  C   UNL     1      -3.876  -0.998  -2.747  0.00  0.00    -0.014 A 
BRANCH   2  13
ATOM     12  C   UNL     1      -0.032   2.140  -0.700  0.00  0.00    +0.009 C 
ATOM     13  C   UNL     1       0.143   0.620  -0.696  0.00  0.00    +0.034 C 
ENDBRANCH   2  13
ENDBRANCH   1  11
BRANCH   1  14
ATOM     14  C   UNL     1      -6.090  -0.540  -3.719  0.00  0.00    -0.028 A 
ATOM     15  C   UNL     1      -5.781  -0.069  -4.981  0.00  0.00    +0.005 A 
ATOM     16  C   UNL     1      -6.576   0.894  -5.573  0.00  0.00    +0.000 A 
ATOM     17  C   UNL     1      -7.681   1.385  -4.904  0.00  0.00    +0.001 A 
ATOM     18  C   UNL     1      -7.991   0.913  -3.642  0.00  0.00    +0.012 A 
ATOM     19  C   UNL     1      -7.198  -0.053  -3.051  0.00  0.00    +0.059 A 
BRANCH  19  20
ATOM     20  C   UNL     1      -7.539  -0.571  -1.678  0.00  0.00    +0.418 C 
ATOM     21  F   UNL     1      -8.630   0.141  -1.168  0.00  0.00    -0.166 F 
ATOM     22  F   UNL     1      -7.865  -1.929  -1.760  0.00  0.00    -0.166 F 
ATOM     23  F   UNL     1      -6.438  -0.406  -0.831  0.00  0.00    -0.166 F 
ENDBRANCH  19  20
ENDBRANCH   1  14
BRANCH   1  24
ATOM     24  C   UNL     1      -5.044  -2.766  -4.035  0.00  0.00    +0.109 C 
BRANCH  24  25
ATOM     25  C   UNL     1      -6.378  -3.425  -4.276  0.00  0.00    +0.217 C 
ATOM     26  O   UNL     1      -7.389  -2.931  -3.824  0.00  0.00    -0.276 OA
ATOM     27  N   UNL     1      -6.447  -4.564  -4.993  0.00  0.00    -0.299 N 
BRANCH  27  28
ATOM     28  C   UNL     1      -5.225  -5.162  -5.538  0.00  0.00    +0.089 C 
BRANCH  28  29
ATOM     29  C   UNL     1      -4.638  -6.140  -4.519  0.00  0.00    -0.060 C 
BRANCH  29  30
ATOM     30  N   UNL     1      -3.413  -6.739  -5.066  0.00  0.00    +0.377 N 
ATOM     31  C   UNL     1      -2.784  -7.587  -4.044  0.00  0.00    -0.097 C 
ATOM     32  C   UNL     1      -3.749  -7.556  -6.240  0.00  0.00    -0.097 C 
ATOM     33  H   UNL     1      -2.773  -6.008  -5.337  0.00  0.00    -0.083 HD
ENDBRANCH  29  30
ENDBRANCH  28  29
ENDBRANCH  27  28
BRANCH  27  34
ATOM     34  C   UNL     1      -7.743  -5.205  -5.227  0.00  0.00    +0.142 C 
BRANCH  34  35
ATOM     35  C   UNL     1      -8.348  -4.666  -6.498  0.00  0.00    -0.030 A 
ATOM     36  C   UNL     1      -9.162  -3.549  -6.456  0.00  0.00    +0.005 A 
ATOM     37  C   UNL     1      -9.716  -3.054  -7.622  0.00  0.00    +0.000 A 
ATOM     38  C   UNL     1      -9.457  -3.676  -8.829  0.00  0.00    +0.000 A 
ATOM     39  C   UNL     1      -8.643  -4.793  -8.870  0.00  0.00    +0.000 A 
ATOM     40  C   UNL     1      -8.084  -5.285  -7.705  0.00  0.00    +0.005 A 
ENDBRANCH  34  35
ENDBRANCH  27  34
ENDBRANCH  24  25
ENDBRANCH   1  24
TORSDOF 11
