REMARK  Name = ZINC21539402
REMARK  7 active torsions:
REMARK  status: ('A' for Active; 'I' for Inactive)
REMARK    1  A    between atoms: C_1  and  C_2
REMARK    2  A    between atoms: C_2  and  O_3
REMARK    3  A    between atoms: O_3  and  C_4
REMARK    4  A    between atoms: C_4  and  C_6
REMARK    5  A    between atoms: C_9  and  N_12
REMARK    6  A    between atoms: C_27  and  C_29
REMARK    7  A    between atoms: C_32  and  C_35
REMARK                            x       y       z     vdW  Elec       q    Type
REMARK                         _______ _______ _______ _____ _____    ______ ____
ROOT
ATOM      1  N   UNL     1       2.022   5.667   2.710  0.00  0.00    -0.269 N 
ATOM      2  C   UNL     1       2.133   5.120   1.483  0.00  0.00    +0.308 C 
ATOM      3  O   UNL     1       3.042   5.456   0.748  0.00  0.00    -0.252 OA
ATOM      4  N   UNL     1       1.237   4.202   1.071  0.00  0.00    -0.268 N 
ATOM      5  C   UNL     1       0.121   3.769   1.933  0.00  0.00    +0.148 C 
ATOM      6  C   UNL     1      -1.169   3.580   1.167  0.00  0.00    +0.005 A 
ATOM      7  C   UNL     1      -2.284   4.429   1.319  0.00  0.00    -0.030 A 
ATOM      8  C   UNL     1      -3.406   4.131   0.613  0.00  0.00    -0.005 A 
ATOM      9  S   UNL     1      -2.954   2.686  -0.314  0.00  0.00    -0.075 S 
ATOM     10  C   UNL     1      -1.296   2.553   0.283  0.00  0.00    +0.090 A 
ATOM     11  N   UNL     1      -0.282   1.651  -0.015  0.00  0.00    -0.312 N 
ATOM     12  C   UNL     1      -0.282   0.302  -0.114  0.00  0.00    +0.092 A 
ATOM     13  C   UNL     1       0.988  -0.100  -0.346  0.00  0.00    +0.020 A 
ATOM     14  C   UNL     1       1.796   1.056  -0.410  0.00  0.00    +0.025 A 
ATOM     15  C   UNL     1       0.994   2.116  -0.228  0.00  0.00    +0.049 A 
ATOM     16  C   UNL     1       1.325   3.578  -0.271  0.00  0.00    +0.155 C 
ATOM     17  C   UNL     1      -4.710   4.861   0.618  0.00  0.00    +0.043 C 
ATOM     18  C   UNL     1      -4.720   5.820   1.818  0.00  0.00    +0.005 C 
ATOM     19  C   UNL     1      -3.395   6.588   1.844  0.00  0.00    +0.005 C 
ATOM     20  C   UNL     1      -2.254   5.649   2.236  0.00  0.00    +0.036 C 
ATOM     21  H   UNL     1       1.246   5.309   3.403  0.00  0.00    +0.156 HD
ENDROOT
BRANCH  16  22
ATOM     22  C   UNL     1       0.361   4.272  -1.198  0.00  0.00    -0.021 A 
ATOM     23  C   UNL     1      -0.097   3.624  -2.330  0.00  0.00    +0.006 A 
ATOM     24  C   UNL     1      -0.985   4.260  -3.178  0.00  0.00    +0.004 A 
ATOM     25  C   UNL     1      -1.407   5.546  -2.900  0.00  0.00    -0.050 A 
ATOM     26  C   UNL     1      -0.945   6.196  -1.771  0.00  0.00    +0.004 A 
ATOM     27  C   UNL     1      -0.061   5.559  -0.920  0.00  0.00    +0.006 A 
ATOM     28  C   UNL     1      -2.370   6.241  -3.828  0.00  0.00    +0.044 C 
ENDBRANCH  16  22
BRANCH   1  32
ATOM     29  C   UNL     1       4.613   8.712   3.876  0.00  0.00    +0.059 A 
ATOM     30  C   UNL     1       3.279   8.729   4.295  0.00  0.00    +0.017 A 
ATOM     31  C   UNL     1       2.426   7.721   3.907  0.00  0.00    +0.024 A 
ATOM     32  C   UNL     1       2.889   6.686   3.100  0.00  0.00    +0.035 A 
ATOM     33  C   UNL     1       4.217   6.664   2.686  0.00  0.00    +0.024 A 
ATOM     34  C   UNL     1       5.075   7.671   3.065  0.00  0.00    +0.017 A 
BRANCH  29  35
ATOM     35  C   UNL     1       5.531   9.790   4.289  0.00  0.00    +0.339 C 
ATOM     36  O   UNL     1       5.128  10.694   4.995  0.00  0.00    -0.245 OA
BRANCH  35  37
ATOM     37  O   UNL     1       6.816   9.773   3.885  0.00  0.00    -0.461 OA
BRANCH  37  39
ATOM     38  C   UNL     1       9.075  10.675   3.775  0.00  0.00    +0.048 C 
ATOM     39  C   UNL     1       7.662  10.865   4.330  0.00  0.00    +0.229 C 
ENDBRANCH  37  39
ENDBRANCH  35  37
ENDBRANCH  29  35
ENDBRANCH   1  32
TORSDOF 5
