REMARK  Name = ZINC12371830
REMARK  5 active torsions:
REMARK  status: ('A' for Active; 'I' for Inactive)
REMARK    1  A    between atoms: C_1  and  S_2
REMARK    2  A    between atoms: S_2  and  N_5
REMARK    3  A    between atoms: C_13  and  S_15
REMARK    4  A    between atoms: S_15  and  N_18
REMARK    5  A    between atoms: N_21  and  C_24
REMARK                            x       y       z     vdW  Elec       q    Type
REMARK                         _______ _______ _______ _____ _____    ______ ____
ROOT
ATOM      1  N   UNL     1       2.159   1.224   0.907  0.00  0.00    -0.174 NA
ATOM      2  C   UNL     1       1.442   1.867  -0.204  0.00  0.00    +0.128 C 
ATOM      3  C   UNL     1       0.013   1.313  -0.247  0.00  0.00    +0.122 C 
ATOM      4  N   UNL     1       0.061  -0.154  -0.304  0.00  0.00    -0.327 N 
ATOM      5  C   UNL     1       0.679  -0.714   0.905  0.00  0.00    +0.122 C 
ATOM      6  C   UNL     1       2.135  -0.244   0.995  0.00  0.00    +0.128 C 
ENDROOT
BRANCH   4   7
ATOM      7  C   UNL     1      -1.204  -0.684  -0.507  0.00  0.00    +0.040 A 
ATOM      8  C   UNL     1      -2.228  -0.459   0.400  0.00  0.00    +0.041 A 
ATOM      9  C   UNL     1      -3.484  -1.000   0.167  0.00  0.00    +0.085 A 
ATOM     10  C   UNL     1      -2.795  -1.998  -1.805  0.00  0.00    +0.050 A 
ATOM     11  C   UNL     1      -1.488  -1.478  -1.643  0.00  0.00    +0.019 A 
ATOM     12  C   UNL     1      -0.505  -1.757  -2.603  0.00  0.00    +0.013 A 
ATOM     13  C   UNL     1      -0.818  -2.525  -3.684  0.00  0.00    +0.021 A 
ATOM     14  C   UNL     1      -2.104  -3.038  -3.847  0.00  0.00    +0.043 A 
ATOM     15  C   UNL     1      -3.082  -2.786  -2.933  0.00  0.00    +0.046 A 
ATOM     16 CL   UNL     1      -2.465  -4.013  -5.238  0.00  0.00    -0.083 Cl
ATOM     17  N   UNL     1      -3.810  -1.764  -0.901  0.00  0.00    -0.361 N 
ATOM     18  H   UNL     1      -4.754  -2.147  -1.030  0.00  0.00    +0.165 HD
ENDBRANCH   4   7
BRANCH   1  19
ATOM     19  S   UNL     1       2.971   2.130   2.031  0.00  0.00    +0.061 S 
ATOM     20  O   UNL     1       2.372   3.418   2.024  0.00  0.00    -0.153 OA
ATOM     21  O   UNL     1       3.057   1.336   3.207  0.00  0.00    -0.153 OA
BRANCH  19  30
ATOM     22  N   UNL     1       8.520   2.820   0.068  0.00  0.00    -0.207 N 
ATOM     23  C   UNL     1       8.797   3.781  -1.009  0.00  0.00    +0.131 C 
ATOM     24  C   UNL     1       8.032   5.073  -0.692  0.00  0.00    +0.025 C 
ATOM     25  C   UNL     1       6.533   4.774  -0.702  0.00  0.00    +0.039 C 
ATOM     26  C   UNL     1       6.225   3.589   0.175  0.00  0.00    -0.023 A 
ATOM     27  C   UNL     1       7.204   2.668   0.517  0.00  0.00    +0.054 A 
ATOM     28  C   UNL     1       6.884   1.579   1.320  0.00  0.00    +0.027 A 
ATOM     29  C   UNL     1       5.594   1.419   1.785  0.00  0.00    +0.030 A 
ATOM     30  C   UNL     1       4.618   2.337   1.442  0.00  0.00    +0.106 A 
ATOM     31  C   UNL     1       4.933   3.418   0.642  0.00  0.00    +0.034 A 
BRANCH  22  33
ATOM     32  C   UNL     1       9.680   0.330  -0.112  0.00  0.00    +0.218 C 
ATOM     33  S   UNL     1       9.746   1.931   0.738  0.00  0.00    +0.043 S 
ATOM     34  O   UNL     1      10.934   2.626   0.382  0.00  0.00    -0.155 OA
ATOM     35  O   UNL     1       9.378   1.777   2.102  0.00  0.00    -0.155 OA
ENDBRANCH  22  33
ENDBRANCH  19  30
ENDBRANCH   1  19
TORSDOF 4
