REMARK  Name = ZINC20132943
REMARK  6 active torsions:
REMARK  status: ('A' for Active; 'I' for Inactive)
REMARK    1  A    between atoms: C_1  and  O_2
REMARK    2  A    between atoms: O_2  and  C_3
REMARK    3  A    between atoms: C_7  and  C_11
REMARK    4  A    between atoms: C_8  and  O_9
REMARK    5  A    between atoms: O_9  and  C_10
REMARK    6  A    between atoms: C_25  and  O_26
REMARK                            x       y       z     vdW  Elec       q    Type
REMARK                         _______ _______ _______ _____ _____    ______ ____
ROOT
ATOM      1  C   UNL     1      -1.947   2.434   3.494  0.00  0.00    +0.146 A 
ATOM      2  N   UNL     1      -1.064   1.398   3.588  0.00  0.00    -0.333 N 
ATOM      3  H   UNL     1      -0.868   0.929   4.563  0.00  0.00    +0.168 HD
ATOM      4  C   UNL     1      -0.434   0.950   2.482  0.00  0.00    +0.094 A 
ATOM      5  S   UNL     1       0.677  -0.350   2.580  0.00  0.00    -0.032 S 
ATOM      6  C   UNL     1      -0.708   1.566   1.250  0.00  0.00    +0.050 A 
ATOM      7  C   UNL     1      -1.605   2.611   1.211  0.00  0.00    +0.229 A 
ATOM      8  N   UNL     1      -2.201   3.014   2.341  0.00  0.00    -0.194 NA
ATOM      9  O   UNL     1      -1.893   3.234   0.050  0.00  0.00    -0.434 OA
ATOM     10  C   UNL     1      -1.634   2.627  -1.133  0.00  0.00    +0.175 A 
ATOM     11  C   UNL     1      -0.733   1.580  -1.218  0.00  0.00    +0.003 A 
ATOM     12  C   UNL     1      -0.485   0.978  -2.439  0.00  0.00    +0.008 A 
ATOM     13  C   UNL     1      -1.133   1.417  -3.578  0.00  0.00    +0.004 A 
ATOM     14  C   UNL     1      -2.036   2.461  -3.501  0.00  0.00    +0.049 A 
ATOM     15  C   UNL     1      -2.290   3.068  -2.283  0.00  0.00    +0.159 A 
ATOM     16  C   UNL     1      -0.013   1.086   0.008  0.00  0.00    +0.082 C 
ENDROOT
BRANCH   1  21
ATOM     17  C   UNL     1      -4.174   4.422   5.789  0.00  0.00    +0.162 A 
ATOM     18  C   UNL     1      -3.909   3.814   7.005  0.00  0.00    +0.049 A 
ATOM     19  C   UNL     1      -3.010   2.763   7.079  0.00  0.00    +0.004 A 
ATOM     20  C   UNL     1      -2.375   2.308   5.944  0.00  0.00    +0.015 A 
ATOM     21  C   UNL     1      -2.629   2.915   4.711  0.00  0.00    +0.063 A 
ATOM     22  C   UNL     1      -3.537   3.978   4.635  0.00  0.00    +0.172 A 
BRANCH  17  24
ATOM     23  C   UNL     1      -5.675   5.859   6.947  0.00  0.00    +0.277 C 
ATOM     24  O   UNL     1      -5.058   5.454   5.723  0.00  0.00    -0.491 OA
ENDBRANCH  17  24
BRANCH  22  25
ATOM     25  O   UNL     1      -3.795   4.571   3.441  0.00  0.00    -0.491 OA
ATOM     26  C   UNL     1      -4.867   4.029   2.666  0.00  0.00    +0.277 C 
ENDBRANCH  22  25
ENDBRANCH   1  21
BRANCH  15  27
ATOM     27  O   UNL     1      -3.178   4.094  -2.206  0.00  0.00    -0.503 OA
ATOM     28  H   UNL     1      -3.695   4.442  -3.113  0.00  0.00    +0.292 HD
ENDBRANCH  15  27
TORSDOF 4
