REMARK  Name = ZINC39596419
REMARK  7 active torsions:
REMARK  status: ('A' for Active; 'I' for Inactive)
REMARK    1  A    between atoms: C_1  and  C_2
REMARK    2  A    between atoms: C_2  and  C_4
REMARK    3  A    between atoms: C_2  and  O_28
REMARK    4  A    between atoms: C_4  and  N_5
REMARK    5  A    between atoms: C_6  and  C_8
REMARK    6  A    between atoms: C_19  and  C_21
REMARK    7  A    between atoms: O_28  and  C_29
REMARK                            x       y       z     vdW  Elec       q    Type
REMARK                         _______ _______ _______ _____ _____    ______ ____
ROOT
ATOM      1  C   UNL     1       1.614  -2.467   3.546  0.00  0.00    +0.100 C 
ATOM      2  C   UNL     1       2.233  -3.664   2.791  0.00  0.00    +0.121 C 
ATOM      3  N   UNL     1       3.553  -3.869   3.432  0.00  0.00    -0.300 N 
ATOM      4  C   UNL     1       3.301  -3.643   4.875  0.00  0.00    +0.115 C 
ATOM      5  C   UNL     1       2.315  -2.459   4.915  0.00  0.00    -0.004 C 
ATOM      6  C   UNL     1       1.295  -2.659   6.032  0.00  0.00    -0.010 C 
ATOM      7  C   UNL     1       2.007  -2.588   7.386  0.00  0.00    -0.082 C 
ATOM      8  N   UNL     1       2.668  -1.285   7.527  0.00  0.00    +0.379 N 
ATOM      9  C   UNL     1       3.712  -1.140   6.505  0.00  0.00    -0.082 C 
ATOM     10  C   UNL     1       3.072  -1.149   5.114  0.00  0.00    -0.010 C 
ATOM     11  C   UNL     1       4.720  -4.189   2.837  0.00  0.00    +0.219 C 
ATOM     12  O   UNL     1       4.781  -4.276   1.629  0.00  0.00    -0.275 OA
ATOM     13  H   UNL     1       1.986  -0.550   7.416  0.00  0.00    -0.086 HD
ATOM     14  H   UNL     1       3.084  -1.218   8.443  0.00  0.00    -0.086 HD
ENDROOT
BRANCH  11  15
ATOM     15  C   UNL     1       5.948  -4.441   3.674  0.00  0.00    +0.079 C 
ATOM     16  C   UNL     1       7.205  -4.188   2.832  0.00  0.00    +0.017 C 
ATOM     17  C   UNL     1       8.427  -4.276   3.750  0.00  0.00    +0.027 C 
ATOM     18  C   UNL     1       8.368  -5.530   4.571  0.00  0.00    -0.031 C 
ATOM     19  C   UNL     1       7.295  -6.233   4.745  0.00  0.00    -0.030 C 
ATOM     20  C   UNL     1       5.960  -5.896   4.146  0.00  0.00    +0.039 C 
ENDBRANCH  11  15
BRANCH   1  22
ATOM     21  N   UNL     1       1.037  -0.143   2.924  0.00  0.00    -0.312 N 
ATOM     22  C   UNL     1       1.889  -1.182   2.809  0.00  0.00    +0.218 C 
ATOM     23  O   UNL     1       2.877  -1.081   2.112  0.00  0.00    -0.275 OA
ATOM     24  H   UNL     1       0.247  -0.224   3.481  0.00  0.00    +0.149 HD
BRANCH  21  25
ATOM     25  C   UNL     1       1.304   1.106   2.207  0.00  0.00    +0.148 C 
BRANCH  25  27
ATOM     26  C   UNL     1       0.404   3.372   1.662  0.00  0.00    +0.053 C 
ATOM     27  C   UNL     1       0.193   2.114   2.506  0.00  0.00    +0.187 C 
BRANCH  27  28
ATOM     28  O   UNL     1       0.224   2.459   3.893  0.00  0.00    -0.488 OA
BRANCH  28  29
ATOM     29  C   UNL     1      -0.951   2.843   4.460  0.00  0.00    +0.121 A 
ATOM     30  C   UNL     1      -2.085   2.990   3.675  0.00  0.00    +0.048 A 
ATOM     31  C   UNL     1      -3.278   3.380   4.253  0.00  0.00    +0.042 A 
ATOM     32  C   UNL     1      -3.341   3.624   5.614  0.00  0.00    +0.124 A 
ATOM     33  C   UNL     1      -2.210   3.478   6.398  0.00  0.00    +0.042 A 
ATOM     34  C   UNL     1      -1.017   3.081   5.824  0.00  0.00    +0.048 A 
ATOM     35  F   UNL     1      -4.508   4.006   6.178  0.00  0.00    -0.205 F 
ENDBRANCH  28  29
ENDBRANCH  27  28
ENDBRANCH  25  27
ENDBRANCH  21  25
ENDBRANCH   1  22
TORSDOF 6
