REMARK  Name = ZINC67617688
REMARK  5 active torsions:
REMARK  status: ('A' for Active; 'I' for Inactive)
REMARK    1  A    between atoms: C_6  and  C_11
REMARK    2  A    between atoms: C_11  and  C_13
REMARK    3  A    between atoms: C_11  and  O_28
REMARK    4  A    between atoms: C_13  and  N_14
REMARK    5  A    between atoms: N_17  and  C_18
REMARK                            x       y       z     vdW  Elec       q    Type
REMARK                         _______ _______ _______ _____ _____    ______ ____
ROOT
ATOM      1  N   UNL     1       6.665  -3.753  -1.519  0.00  0.00    -0.297 N 
ATOM      2  C   UNL     1       7.195  -4.160  -2.689  0.00  0.00    +0.300 C 
ATOM      3  O   UNL     1       6.608  -3.943  -3.731  0.00  0.00    -0.253 OA
ATOM      4  N   UNL     1       8.377  -4.808  -2.704  0.00  0.00    -0.297 N 
ATOM      5  H   UNL     1       7.134  -3.926  -0.688  0.00  0.00    +0.150 HD
ATOM      6  H   UNL     1       8.846  -4.981  -1.873  0.00  0.00    +0.151 HD
ENDROOT
BRANCH   4   7
ATOM      7  C   UNL     1       8.954  -5.250  -3.976  0.00  0.00    +0.075 C 
ATOM      8  C   UNL     1       8.367  -6.612  -4.355  0.00  0.00    +0.027 C 
ATOM      9  C   UNL     1       8.967  -7.073  -5.686  0.00  0.00    +0.067 C 
ATOM     10  C   UNL     1      10.486  -7.187  -5.547  0.00  0.00    +0.170 C 
ATOM     11  C   UNL     1      11.075  -5.828  -5.163  0.00  0.00    +0.067 C 
ATOM     12  C   UNL     1      10.472  -5.369  -3.834  0.00  0.00    +0.027 C 
ATOM     13  O   UNL     1      10.801  -8.149  -4.527  0.00  0.00    -0.346 OA
ATOM     14  C   UNL     1      11.025  -9.387  -5.244  0.00  0.00    +0.191 C 
ATOM     15  C   UNL     1      11.712  -8.882  -6.538  0.00  0.00    +0.191 C 
ATOM     16  O   UNL     1      11.052  -7.625  -6.788  0.00  0.00    -0.346 OA
ENDBRANCH   4   7
BRANCH   1  17
ATOM     17  C   UNL     1       5.380  -3.049  -1.503  0.00  0.00    +0.141 C 
BRANCH  17  18
ATOM     18  C   UNL     1       5.008  -2.700  -0.060  0.00  0.00    +0.162 C 
BRANCH  18  24
ATOM     19  C   UNL     1      -0.016   1.357   0.009  0.00  0.00    +0.001 A 
ATOM     20  C   UNL     1       1.169   2.091   0.002  0.00  0.00    +0.001 A 
ATOM     21  C   UNL     1       2.378   1.468  -0.013  0.00  0.00    +0.008 A 
ATOM     22  C   UNL     1       2.438   0.063  -0.021  0.00  0.00    -0.018 A 
ATOM     23  C   UNL     1       3.668  -0.615  -0.036  0.00  0.00    +0.014 A 
ATOM     24  C   UNL     1       3.687  -1.976  -0.043  0.00  0.00    -0.017 A 
ATOM     25  C   UNL     1       2.502  -2.710  -0.036  0.00  0.00    +0.007 A 
ATOM     26  C   UNL     1       1.292  -2.087  -0.021  0.00  0.00    +0.009 A 
ATOM     27  C   UNL     1       1.233  -0.683  -0.013  0.00  0.00    -0.018 A 
ATOM     28  C   UNL     1       0.002  -0.004   0.002  0.00  0.00    +0.008 A 
ENDBRANCH  18  24
BRANCH  18  29
ATOM     29  O   UNL     1       4.903  -3.901   0.708  0.00  0.00    -0.386 OA
ATOM     30  H   UNL     1       4.234  -4.519   0.382  0.00  0.00    +0.210 HD
ENDBRANCH  18  29
ENDBRANCH  17  18
ENDBRANCH   1  17
TORSDOF 5
