REMARK  Name = ZINC63948656
REMARK  12 active torsions:
REMARK  status: ('A' for Active; 'I' for Inactive)
REMARK    1  A    between atoms: C_1  and  C_2
REMARK    2  A    between atoms: C_4  and  C_13
REMARK    3  A    between atoms: C_13  and  C_14
REMARK    4  A    between atoms: C_14  and  N_15
REMARK    5  A    between atoms: C_16  and  C_18
REMARK    6  A    between atoms: C_24  and  C_26
REMARK    7  A    between atoms: C_28  and  O_36
REMARK    8  A    between atoms: C_29  and  O_34
REMARK    9  A    between atoms: C_30  and  O_32
REMARK   10  A    between atoms: O_32  and  C_33
REMARK   11  A    between atoms: O_34  and  C_35
REMARK   12  A    between atoms: O_36  and  C_37
REMARK                            x       y       z     vdW  Elec       q    Type
REMARK                         _______ _______ _______ _____ _____    ______ ____
ROOT
ATOM      1  C   UNL     1      -7.430  -1.128  -1.446  0.00  0.00    +0.078 C 
ATOM      2  C   UNL     1      -7.716   0.371  -1.567  0.00  0.00    +0.032 C 
ATOM      3  C   UNL     1      -8.465   0.638  -2.877  0.00  0.00    +0.109 C 
ATOM      4  N   UNL     1      -9.664  -0.210  -2.918  0.00  0.00    -0.297 N 
ATOM      5  C   UNL     1      -9.511  -1.658  -2.721  0.00  0.00    +0.109 C 
ATOM      6  C   UNL     1      -8.751  -1.900  -1.413  0.00  0.00    +0.032 C 
ATOM      7  C   UNL     1     -10.880   0.329  -3.132  0.00  0.00    +0.247 C 
ATOM      8  O   UNL     1     -11.855  -0.390  -3.233  0.00  0.00    -0.270 OA
ENDROOT
BRANCH   7   9
ATOM      9  C   UNL     1     -11.029   1.794  -3.245  0.00  0.00    +0.044 A 
ATOM     10  C   UNL     1     -10.211   2.515  -4.119  0.00  0.00    +0.062 A 
ATOM     11  C   UNL     1     -10.353   3.886  -4.222  0.00  0.00    +0.166 A 
ATOM     12  C   UNL     1     -11.308   4.548  -3.457  0.00  0.00    +0.204 A 
ATOM     13  C   UNL     1     -12.124   3.832  -2.584  0.00  0.00    +0.166 A 
ATOM     14  C   UNL     1     -11.991   2.460  -2.482  0.00  0.00    +0.062 A 
BRANCH  13  15
ATOM     15  O   UNL     1     -13.056   4.482  -1.837  0.00  0.00    -0.491 OA
ATOM     16  C   UNL     1     -13.858   3.685  -0.964  0.00  0.00    +0.277 C 
ENDBRANCH  13  15
BRANCH  12  17
ATOM     17  O   UNL     1     -11.445   5.896  -3.560  0.00  0.00    -0.488 OA
ATOM     18  C   UNL     1     -12.365   6.382  -4.540  0.00  0.00    +0.277 C 
ENDBRANCH  12  17
BRANCH  11  19
ATOM     19  O   UNL     1      -9.557   4.588  -5.073  0.00  0.00    -0.491 OA
ATOM     20  C   UNL     1      -8.598   3.845  -5.828  0.00  0.00    +0.277 C 
ENDBRANCH  11  19
ENDBRANCH   7   9
BRANCH   1  22
ATOM     21  N   UNL     1      -5.462  -0.812   0.019  0.00  0.00    -0.315 N 
ATOM     22  C   UNL     1      -6.663  -1.391  -0.175  0.00  0.00    +0.216 C 
ATOM     23  O   UNL     1      -7.128  -2.123   0.673  0.00  0.00    -0.276 OA
ATOM     24  H   UNL     1      -5.091  -0.226  -0.659  0.00  0.00    +0.149 HD
BRANCH  21  25
ATOM     25  C   UNL     1      -4.717  -1.067   1.254  0.00  0.00    +0.108 C 
BRANCH  25  26
ATOM     26  C   UNL     1      -3.396  -0.295   1.222  0.00  0.00    +0.052 C 
BRANCH  26  29
ATOM     27  C   UNL     1      -1.343   1.532   2.941  0.00  0.00    +0.035 C 
ATOM     28  C   UNL     1      -1.278   0.005   2.873  0.00  0.00    +0.103 C 
ATOM     29  C   UNL     1      -2.630  -0.558   2.493  0.00  0.00    -0.037 C 
ATOM     30  C   UNL     1      -3.011  -1.344   3.525  0.00  0.00    +0.002 A 
ATOM     31  C   UNL     1      -4.209  -2.159   3.764  0.00  0.00    +0.048 A 
ATOM     32  C   UNL     1      -4.310  -2.855   4.921  0.00  0.00    +0.124 A 
ATOM     33  C   UNL     1      -3.300  -2.814   5.896  0.00  0.00    +0.040 A 
ATOM     34  C   UNL     1      -2.172  -2.088   5.747  0.00  0.00    +0.029 A 
ATOM     35  C   UNL     1      -1.962  -1.320   4.569  0.00  0.00    +0.043 A 
ATOM     36  N   UNL     1      -0.968  -0.548   4.196  0.00  0.00    -0.378 N 
ATOM     37  F   UNL     1      -5.410  -3.605   5.144  0.00  0.00    -0.205 F 
ATOM     38  H   UNL     1      -0.163  -0.372   4.708  0.00  0.00    +0.160 HD
ENDBRANCH  26  29
ENDBRANCH  25  26
ENDBRANCH  21  25
ENDBRANCH   1  22
TORSDOF 8
