REMARK  Name = ZINC39363160
REMARK  6 active torsions:
REMARK  status: ('A' for Active; 'I' for Inactive)
REMARK    1  A    between atoms: C_4  and  C_8
REMARK    2  A    between atoms: C_8  and  S_9
REMARK    3  A    between atoms: S_9  and  C_10
REMARK    4  A    between atoms: C_13  and  C_23
REMARK    5  A    between atoms: N_15  and  C_16
REMARK    6  A    between atoms: C_23  and  C_24
REMARK                            x       y       z     vdW  Elec       q    Type
REMARK                         _______ _______ _______ _____ _____    ______ ____
ROOT
ATOM      1  C   UNL     1       5.915  -1.685   1.483  0.00  0.00    +0.180 C 
ATOM      2  N   UNL     1       6.408  -2.031   0.342  0.00  0.00    -0.162 NA
ATOM      3  N   UNL     1       7.460  -2.943   0.493  0.00  0.00    -0.246 N 
ATOM      4  C   UNL     1       7.606  -3.165   1.942  0.00  0.00    +0.187 C 
ATOM      5  N   UNL     1       6.567  -2.307   2.538  0.00  0.00    -0.258 N 
ATOM      6  H   UNL     1       7.986  -3.348  -0.214  0.00  0.00    +0.170 HD
ENDROOT
BRANCH   5   7
ATOM      7  C   UNL     1       6.291  -2.152   3.900  0.00  0.00    +0.038 A 
ATOM      8  C   UNL     1       7.218  -1.538   4.732  0.00  0.00    +0.025 A 
ATOM      9  C   UNL     1       6.943  -1.387   6.077  0.00  0.00    +0.022 A 
ATOM     10  C   UNL     1       5.744  -1.845   6.595  0.00  0.00    +0.041 A 
ATOM     11  C   UNL     1       4.819  -2.457   5.768  0.00  0.00    +0.022 A 
ATOM     12  C   UNL     1       5.087  -2.606   4.421  0.00  0.00    +0.025 A 
ATOM     13 CL   UNL     1       5.402  -1.653   8.286  0.00  0.00    -0.084 Cl
ENDBRANCH   5   7
BRANCH   1  14
ATOM     14  S   UNL     1       4.580  -0.551   1.679  0.00  0.00    -0.084 S 
BRANCH  14  15
ATOM     15  C   UNL     1       4.151  -0.082  -0.020  0.00  0.00    +0.116 C 
BRANCH  15  19
ATOM     16  C   UNL     1       0.905   2.698   0.046  0.00  0.00    +0.004 A 
ATOM     17  C   UNL     1       2.208   3.157   0.091  0.00  0.00    +0.039 A 
ATOM     18  C   UNL     1       3.260   2.258   0.069  0.00  0.00    +0.129 A 
ATOM     19  C   UNL     1       3.007   0.898   0.004  0.00  0.00    +0.016 A 
ATOM     20  C   UNL     1       1.703   0.440  -0.041  0.00  0.00    +0.048 A 
ATOM     21  C   UNL     1       0.652   1.341  -0.019  0.00  0.00    +0.020 A 
ATOM     22 CL   UNL     1       1.384  -1.264  -0.123  0.00  0.00    -0.083 Cl
ATOM     23  F   UNL     1       4.534   2.707   0.112  0.00  0.00    -0.205 F 
ENDBRANCH  15  19
ENDBRANCH  14  15
ENDBRANCH   1  14
BRANCH   4  24
ATOM     24  C   UNL     1       7.361  -4.635   2.288  0.00  0.00    +0.097 C 
BRANCH  24  25
ATOM     25  C   UNL     1       8.454  -5.481   1.687  0.00  0.00    +0.029 A 
ATOM     26  N   UNL     1       8.362  -5.902   0.388  0.00  0.00    -0.311 N 
ATOM     27  C   UNL     1       9.333  -6.657  -0.158  0.00  0.00    +0.327 A 
ATOM     28  O   UNL     1       9.231  -7.021  -1.313  0.00  0.00    -0.247 OA
ATOM     29  N   UNL     1      10.416  -7.015   0.558  0.00  0.00    -0.275 N 
ATOM     30  C   UNL     1      10.544  -6.620   1.841  0.00  0.00    +0.254 A 
ATOM     31  O   UNL     1      11.523  -6.944   2.489  0.00  0.00    -0.268 OA
ATOM     32  C   UNL     1       9.532  -5.822   2.426  0.00  0.00    +0.091 A 
ATOM     33  H   UNL     1      11.106  -7.560   0.149  0.00  0.00    +0.173 HD
ATOM     34  H   UNL     1       7.590  -5.655  -0.144  0.00  0.00    +0.170 HD
ENDBRANCH  24  25
ENDBRANCH   4  24
TORSDOF 6
