REMARK  Name = ZINC41399774
REMARK  10 active torsions:
REMARK  status: ('A' for Active; 'I' for Inactive)
REMARK    1  A    between atoms: C_1  and  S_2
REMARK    2  A    between atoms: S_2  and  C_3
REMARK    3  A    between atoms: C_3  and  C_4
REMARK    4  A    between atoms: C_4  and  C_5
REMARK    5  A    between atoms: C_5  and  C_7
REMARK    6  A    between atoms: C_5  and  N_25
REMARK    7  A    between atoms: N_9  and  C_10
REMARK    8  A    between atoms: C_10  and  C_11
REMARK    9  A    between atoms: C_11  and  C_13
REMARK   10  A    between atoms: C_11  and  N_20
REMARK                            x       y       z     vdW  Elec       q    Type
REMARK                         _______ _______ _______ _____ _____    ______ ____
ROOT
ATOM      1  C   UNL     1       2.917  -5.883  -4.580  0.00  0.00    +0.233 C 
ATOM      2  O   UNL     1       3.197  -5.184  -3.629  0.00  0.00    -0.274 OA
ATOM      3  N   UNL     1       1.632  -6.214  -4.817  0.00  0.00    -0.315 N 
ATOM      4  H   UNL     1       1.408  -6.773  -5.578  0.00  0.00    +0.149 HD
ENDROOT
BRANCH   1   5
ATOM      5  C   UNL     1       4.005  -6.380  -5.496  0.00  0.00    +0.161 C 
BRANCH   5   6
ATOM      6  N   UNL     1       5.295  -6.310  -4.805  0.00  0.00    -0.288 N 
ATOM      7  C   UNL     1       5.759  -5.125  -4.362  0.00  0.00    +0.298 C 
ATOM      8  O   UNL     1       5.107  -4.114  -4.536  0.00  0.00    -0.253 OA
ATOM      9  N   UNL     1       6.945  -5.061  -3.726  0.00  0.00    -0.313 N 
ATOM     10  H   UNL     1       5.815  -7.117  -4.667  0.00  0.00    +0.151 HD
ATOM     11  H   UNL     1       7.466  -5.868  -3.588  0.00  0.00    +0.146 HD
ATOM     12  H   UNL     1       7.279  -4.208  -3.407  0.00  0.00    +0.146 HD
ENDBRANCH   5   6
BRANCH   5  13
ATOM     13  C   UNL     1       4.052  -5.508  -6.753  0.00  0.00    +0.042 C 
BRANCH  13  14
ATOM     14  C   UNL     1       5.070  -6.087  -7.737  0.00  0.00    +0.071 C 
BRANCH  14  16
ATOM     15  C   UNL     1       6.363  -5.864 -10.277  0.00  0.00    +0.084 C 
ATOM     16  S   UNL     1       5.126  -5.053  -9.227  0.00  0.00    -0.164 S 
ENDBRANCH  14  16
ENDBRANCH  13  14
ENDBRANCH   5  13
ENDBRANCH   1   5
BRANCH   3  17
ATOM     17  C   UNL     1       0.574  -5.731  -3.927  0.00  0.00    +0.093 C 
BRANCH  17  18
ATOM     18  C   UNL     1      -0.789  -6.157  -4.475  0.00  0.00    -0.020 C 
BRANCH  18  19
ATOM     19  C   UNL     1      -0.901  -7.660  -4.429  0.00  0.00    -0.058 A 
ATOM     20  C   UNL     1      -1.225  -8.292  -3.242  0.00  0.00    +0.002 A 
ATOM     21  C   UNL     1      -1.329  -9.670  -3.199  0.00  0.00    +0.002 A 
ATOM     22  C   UNL     1      -1.108 -10.416  -4.341  0.00  0.00    +0.020 A 
ATOM     23  C   UNL     1      -0.784  -9.784  -5.528  0.00  0.00    +0.041 A 
ATOM     24  C   UNL     1      -0.686  -8.404  -5.573  0.00  0.00    +0.022 A 
ATOM     25 CL   UNL     1      -0.506 -10.721  -6.963  0.00  0.00    -0.084 Cl
ENDBRANCH  18  19
BRANCH  18  26
ATOM     26  N   UNL     1      -1.854  -5.561  -3.658  0.00  0.00    +0.385 N 
ATOM     27  C   UNL     1      -1.803  -4.080  -3.752  0.00  0.00    -0.078 C 
ATOM     28  C   UNL     1      -3.236  -3.649  -3.350  0.00  0.00    -0.020 C 
ATOM     29  C   UNL     1      -4.118  -4.748  -3.986  0.00  0.00    -0.020 C 
ATOM     30  C   UNL     1      -3.180  -5.953  -4.184  0.00  0.00    -0.078 C 
ATOM     31  H   UNL     1      -1.761  -5.853  -2.697  0.00  0.00    -0.081 HD
ENDBRANCH  18  26
ENDBRANCH  17  18
ENDBRANCH   3  17
TORSDOF 9
