REMARK  Name = ZINC09236411
REMARK  3 active torsions:
REMARK  status: ('A' for Active; 'I' for Inactive)
REMARK    1  A    between atoms: C_4  and  C_7
REMARK    2  A    between atoms: C_13  and  C_27
REMARK    3  A    between atoms: C_15  and  C_18
REMARK                            x       y       z     vdW  Elec       q    Type
REMARK                         _______ _______ _______ _____ _____    ______ ____
ROOT
ATOM      1  C   UNL     1       5.504   1.336  -2.036  0.00  0.00    +0.182 A 
ATOM      2  N   UNL     1       6.495   0.513  -1.779  0.00  0.00    -0.127 NA
ATOM      3  N   UNL     1       6.269  -0.121  -0.681  0.00  0.00    -0.121 NA
ATOM      4  C   UNL     1       5.124   0.260  -0.181  0.00  0.00    +0.210 A 
ATOM      5  N   UNL     1       4.595   1.205  -1.014  0.00  0.00    -0.221 N 
ATOM      6  N   UNL     1       3.423   1.872  -0.857  0.00  0.00    -0.272 N 
ATOM      7  C   UNL     1       2.467   1.184   0.012  0.00  0.00    +0.140 C 
ATOM      8  C   UNL     1       3.063   0.983   1.411  0.00  0.00    +0.166 C 
ATOM      9  S   UNL     1       4.337  -0.309   1.294  0.00  0.00    -0.069 S 
ATOM     10  H   UNL     1       3.584   2.816  -0.540  0.00  0.00    +0.167 HD
ENDROOT
BRANCH   8  11
ATOM     11  C   UNL     1       1.982   0.548   2.368  0.00  0.00    +0.231 C 
ATOM     12  O   UNL     1       1.094  -0.185   1.987  0.00  0.00    -0.274 OA
ATOM     13  N   UNL     1       2.003   0.973   3.647  0.00  0.00    -0.301 N 
ATOM     14  C   UNL     1       3.009   1.934   4.041  0.00  0.00    +0.108 C 
ATOM     15  C   UNL     1       4.283   1.200   4.510  0.00  0.00    +0.019 C 
ATOM     16  C   UNL     1       4.048   0.548   5.807  0.00  0.00    +0.002 C 
ATOM     17  C   UNL     1       2.974  -0.535   5.781  0.00  0.00    +0.002 C 
ATOM     18  C   UNL     1       1.617   0.101   5.960  0.00  0.00    +0.019 C 
ATOM     19  C   UNL     1       1.003   0.434   4.588  0.00  0.00    +0.108 C 
ENDBRANCH   8  11
BRANCH   1  23
ATOM     20  C   UNL     1       5.171   3.917  -5.394  0.00  0.00    +0.000 A 
ATOM     21  C   UNL     1       6.391   3.341  -5.086  0.00  0.00    +0.001 A 
ATOM     22  C   UNL     1       6.506   2.502  -3.997  0.00  0.00    +0.011 A 
ATOM     23  C   UNL     1       5.388   2.235  -3.204  0.00  0.00    +0.021 A 
ATOM     24  C   UNL     1       4.159   2.816  -3.523  0.00  0.00    +0.011 A 
ATOM     25  C   UNL     1       4.059   3.657  -4.612  0.00  0.00    +0.001 A 
ENDBRANCH   1  23
BRANCH   7  26
ATOM     26  C   UNL     1       1.209   2.008   0.120  0.00  0.00    -0.024 A 
ATOM     27  C   UNL     1      -0.026   1.388   0.112  0.00  0.00    +0.005 A 
ATOM     28  C   UNL     1      -1.180   2.144   0.206  0.00  0.00    +0.000 A 
ATOM     29  C   UNL     1      -1.097   3.519   0.317  0.00  0.00    +0.000 A 
ATOM     30  C   UNL     1       0.138   4.139   0.325  0.00  0.00    +0.000 A 
ATOM     31  C   UNL     1       1.291   3.384   0.227  0.00  0.00    +0.005 A 
ENDBRANCH   7  26
TORSDOF 3
