REMARK  Name = ZINC13148508
REMARK  13 active torsions:
REMARK  status: ('A' for Active; 'I' for Inactive)
REMARK    1  A    between atoms: C_1  and  C_2
REMARK    2  A    between atoms: C_9  and  N_17
REMARK    3  A    between atoms: C_10  and  C_11
REMARK    4  A    between atoms: C_11  and  O_13
REMARK    5  A    between atoms: O_13  and  C_14
REMARK    6  A    between atoms: C_14  and  C_15
REMARK    7  A    between atoms: C_14  and  C_16
REMARK    8  A    between atoms: C_18  and  C_20
REMARK    9  A    between atoms: C_20  and  N_63
REMARK   10  A    between atoms: C_21  and  N_63
REMARK   11  A    between atoms: C_22  and  C_23
REMARK   12  A    between atoms: C_22  and  N_63
REMARK   13  A    between atoms: N_25  and  C_26
REMARK                            x       y       z     vdW  Elec       q    Type
REMARK                         _______ _______ _______ _____ _____    ______ ____
ROOT
ATOM      1  N   UNL     1       6.050   1.016  -0.159  0.00  0.00    -0.281 N 
ATOM      2  C   UNL     1       4.773   0.641   0.054  0.00  0.00    +0.201 C 
ATOM      3  O   UNL     1       4.503  -0.531   0.208  0.00  0.00    -0.278 OA
ATOM      4  H   UNL     1       6.266   1.953  -0.282  0.00  0.00    +0.155 HD
ENDROOT
BRANCH   1  12
ATOM      5  C   UNL     1      11.401  -4.684  -0.424  0.00  0.00    +0.008 C 
ATOM      6  C   UNL     1      10.645  -3.391  -0.737  0.00  0.00    -0.009 C 
ATOM      7  C   UNL     1      11.375  -2.201  -0.106  0.00  0.00    +0.008 C 
ATOM      8  C   UNL     1      10.771  -0.891  -0.617  0.00  0.00    +0.037 C 
ATOM      9  C   UNL     1       9.263  -0.931  -0.407  0.00  0.00    -0.021 A 
ATOM     10  C   UNL     1       8.620  -2.101  -0.202  0.00  0.00    -0.004 A 
ATOM     11  S   UNL     1       6.918  -1.655  -0.005  0.00  0.00    -0.077 S 
ATOM     12  C   UNL     1       7.054   0.061  -0.202  0.00  0.00    +0.086 A 
ATOM     13  C   UNL     1       8.415   0.249  -0.408  0.00  0.00    +0.091 A 
ATOM     14  C   UNL     1       9.228  -3.469  -0.150  0.00  0.00    +0.046 C 
BRANCH  13  15
ATOM     15  C   UNL     1       8.974   1.586  -0.617  0.00  0.00    +0.342 C 
ATOM     16  O   UNL     1       9.349   2.244   0.335  0.00  0.00    -0.245 OA
BRANCH  15  17
ATOM     17  O   UNL     1       9.074   2.088  -1.865  0.00  0.00    -0.458 OA
BRANCH  17  18
ATOM     18  C   UNL     1       9.638   3.419  -1.997  0.00  0.00    +0.171 C 
ATOM     19  C   UNL     1      11.155   3.316  -2.168  0.00  0.00    +0.052 C 
ATOM     20  C   UNL     1       9.033   4.110  -3.221  0.00  0.00    +0.052 C 
ENDBRANCH  17  18
ENDBRANCH  15  17
ENDBRANCH  13  15
ENDBRANCH   1  12
BRANCH   2  21
ATOM     21  C   UNL     1       3.681   1.678   0.101  0.00  0.00    +0.019 C 
BRANCH  21  23
ATOM     22  C   UNL     1       2.353   0.412   1.680  0.00  0.00    -0.095 C 
ATOM     23  N   UNL     1       2.387   0.999   0.324  0.00  0.00    +0.389 N 
ATOM     24  H   UNL     1       2.281   0.247  -0.367  0.00  0.00    -0.081 HD
BRANCH  23  25
ATOM     25  C   UNL     1       1.277   1.961   0.161  0.00  0.00    +0.019 C 
BRANCH  25  26
ATOM     26  C   UNL     1      -0.027   1.205   0.175  0.00  0.00    +0.201 C 
ATOM     27  O   UNL     1      -0.028   0.001   0.322  0.00  0.00    -0.278 OA
ATOM     28  N   UNL     1      -1.191   1.867   0.018  0.00  0.00    -0.287 N 
ATOM     29  H   UNL     1      -1.196   2.836  -0.023  0.00  0.00    +0.155 HD
BRANCH  28  30
ATOM     30  C   UNL     1      -2.392   1.155  -0.086  0.00  0.00    +0.033 A 
ATOM     31  C   UNL     1      -2.412  -0.089  -0.704  0.00  0.00    +0.026 A 
ATOM     32  C   UNL     1      -3.597  -0.791  -0.801  0.00  0.00    +0.040 A 
ATOM     33  C   UNL     1      -4.766  -0.252  -0.292  0.00  0.00    +0.124 A 
ATOM     34  C   UNL     1      -4.750   0.990   0.320  0.00  0.00    +0.040 A 
ATOM     35  C   UNL     1      -3.566   1.694   0.423  0.00  0.00    +0.026 A 
ATOM     36  F   UNL     1      -5.926  -0.939  -0.392  0.00  0.00    -0.205 F 
ENDBRANCH  28  30
ENDBRANCH  25  26
ENDBRANCH  23  25
ENDBRANCH  21  23
ENDBRANCH   2  21
TORSDOF 9
