REMARK  Name = ZINC63393832
REMARK  10 active torsions:
REMARK  status: ('A' for Active; 'I' for Inactive)
REMARK    1  A    between atoms: C_1  and  C_2
REMARK    2  A    between atoms: C_2  and  C_3
REMARK    3  A    between atoms: C_2  and  C_4
REMARK    4  A    between atoms: C_2  and  C_5
REMARK    5  A    between atoms: C_7  and  C_16
REMARK    6  A    between atoms: C_9  and  C_12
REMARK    7  A    between atoms: C_10  and  O_11
REMARK    8  A    between atoms: C_12  and  C_13
REMARK    9  A    between atoms: C_12  and  C_14
REMARK   10  A    between atoms: C_12  and  C_15
REMARK                            x       y       z     vdW  Elec       q    Type
REMARK                         _______ _______ _______ _____ _____    ______ ____
ROOT
ATOM      1  C   UNL     1       0.707  -0.490  -1.238  0.00  0.00    +0.000 A 
ATOM      2  C   UNL     1       1.217   0.419  -2.145  0.00  0.00    +0.013 A 
ATOM      3  C   UNL     1       1.864  -0.026  -3.283  0.00  0.00    -0.027 A 
ATOM      4  C   UNL     1       2.003  -1.382  -3.516  0.00  0.00    +0.013 A 
ATOM      5  C   UNL     1       1.496  -2.295  -2.612  0.00  0.00    +0.000 A 
ATOM      6  C   UNL     1       0.851  -1.851  -1.467  0.00  0.00    +0.124 A 
ENDROOT
BRANCH   3   7
ATOM      7  C   UNL     1       2.418   0.968  -4.270  0.00  0.00    +0.111 C 
ATOM      8  C   UNL     1       3.927   1.117  -4.061  0.00  0.00    +0.128 C 
ATOM      9  C   UNL     1       4.430   1.998  -5.199  0.00  0.00    -0.035 C 
ATOM     10  C   UNL     1       5.086   3.002  -4.633  0.00  0.00    -0.001 A 
ATOM     11  C   UNL     1       5.860   4.115  -5.206  0.00  0.00    +0.010 A 
ATOM     12  C   UNL     1       6.400   4.990  -4.317  0.00  0.00    +0.001 A 
ATOM     13  C   UNL     1       6.250   4.871  -2.932  0.00  0.00    +0.002 A 
ATOM     14  C   UNL     1       5.560   3.876  -2.318  0.00  0.00    +0.026 A 
ATOM     15  C   UNL     1       4.951   2.891  -3.148  0.00  0.00    +0.043 A 
ATOM     16  N   UNL     1       4.256   1.818  -2.821  0.00  0.00    -0.376 N 
ATOM     17  C   UNL     1       4.079   1.710  -6.638  0.00  0.00    +0.048 C 
ATOM     18  C   UNL     1       2.560   1.463  -6.669  0.00  0.00    +0.086 C 
ATOM     19  N   UNL     1       2.186   0.487  -5.641  0.00  0.00    -0.307 NA
ATOM     20  H   UNL     1       2.648  -0.397  -5.798  0.00  0.00    +0.123 HD
ATOM     21  H   UNL     1       4.002   1.540  -1.927  0.00  0.00    +0.160 HD
ENDBRANCH   3   7
BRANCH   1  23
ATOM     22  C   UNL     1      -0.019   1.526   0.010  0.00  0.00    +0.015 C 
ATOM     23  C   UNL     1       0.002  -0.004   0.002  0.00  0.00    -0.009 C 
ATOM     24  C   UNL     1       0.742  -0.511   1.242  0.00  0.00    +0.015 C 
ATOM     25  C   UNL     1      -1.433  -0.534   0.013  0.00  0.00    +0.015 C 
ENDBRANCH   1  23
BRANCH   5  26
ATOM     26  C   UNL     1       1.648  -3.773  -2.867  0.00  0.00    -0.009 C 
ATOM     27  C   UNL     1       2.396  -3.989  -4.184  0.00  0.00    +0.015 C 
ATOM     28  C   UNL     1       2.438  -4.409  -1.722  0.00  0.00    +0.015 C 
ATOM     29  C   UNL     1       0.264  -4.420  -2.953  0.00  0.00    +0.015 C 
ENDBRANCH   5  26
BRANCH   6  30
ATOM     30  O   UNL     1       0.356  -2.747  -0.573  0.00  0.00    -0.506 OA
ATOM     31  H   UNL     1      -0.556  -3.015  -0.749  0.00  0.00    +0.292 HD
ENDBRANCH   6  30
TORSDOF 4
