REMARK  Name = ZINC39694681
REMARK  6 active torsions:
REMARK  status: ('A' for Active; 'I' for Inactive)
REMARK    1  A    between atoms: C_1  and  C_2
REMARK    2  A    between atoms: C_4  and  C_33
REMARK    3  A    between atoms: C_6  and  C_8
REMARK    4  A    between atoms: C_8  and  N_9
REMARK    5  A    between atoms: C_10  and  C_12
REMARK    6  A    between atoms: C_23  and  C_25
REMARK                            x       y       z     vdW  Elec       q    Type
REMARK                         _______ _______ _______ _____ _____    ______ ____
ROOT
ATOM      1  C   UNL     1       3.127  -3.970   4.467  0.00  0.00    +0.100 C 
ATOM      2  C   UNL     1       3.879  -2.628   4.618  0.00  0.00    +0.121 C 
ATOM      3  N   UNL     1       3.759  -2.292   6.056  0.00  0.00    -0.296 N 
ATOM      4  C   UNL     1       3.918  -3.591   6.753  0.00  0.00    +0.115 C 
ATOM      5  C   UNL     1       3.158  -4.600   5.869  0.00  0.00    -0.004 C 
ATOM      6  C   UNL     1       3.898  -5.934   5.833  0.00  0.00    -0.010 C 
ATOM      7  C   UNL     1       3.865  -6.569   7.226  0.00  0.00    -0.082 C 
ATOM      8  N   UNL     1       2.471  -6.771   7.640  0.00  0.00    +0.379 N 
ATOM      9  C   UNL     1       1.792  -5.476   7.763  0.00  0.00    -0.082 C 
ATOM     10  C   UNL     1       1.738  -4.794   6.393  0.00  0.00    -0.010 C 
ATOM     11  C   UNL     1       3.553  -1.079   6.607  0.00  0.00    +0.248 C 
ATOM     12  O   UNL     1       3.346  -0.116   5.895  0.00  0.00    -0.270 OA
ATOM     13  H   UNL     1       1.996  -7.335   6.952  0.00  0.00    -0.086 HD
ATOM     14  H   UNL     1       2.452  -7.245   8.531  0.00  0.00    -0.086 HD
ENDROOT
BRANCH  11  15
ATOM     15  C   UNL     1       3.580  -0.921   8.075  0.00  0.00    +0.055 A 
ATOM     16  C   UNL     1       4.460  -1.683   8.847  0.00  0.00    +0.016 A 
ATOM     17  C   UNL     1       4.480  -1.531  10.217  0.00  0.00    +0.021 A 
ATOM     18  C   UNL     1       3.630  -0.624  10.829  0.00  0.00    +0.042 A 
ATOM     19  C   UNL     1       2.755   0.135  10.071  0.00  0.00    +0.040 A 
ATOM     20  C   UNL     1       2.729  -0.003   8.697  0.00  0.00    +0.054 A 
ATOM     21 CL   UNL     1       1.637   0.954   7.746  0.00  0.00    -0.083 Cl
ATOM     22 CL   UNL     1       3.662  -0.439  12.555  0.00  0.00    -0.083 Cl
ENDBRANCH  11  15
BRANCH   1  24
ATOM     23  N   UNL     1       1.066  -4.641   3.274  0.00  0.00    -0.311 N 
ATOM     24  C   UNL     1       1.704  -3.727   4.032  0.00  0.00    +0.218 C 
ATOM     25  O   UNL     1       1.134  -2.709   4.363  0.00  0.00    -0.275 OA
ATOM     26  H   UNL     1       1.522  -5.455   3.009  0.00  0.00    +0.149 HD
BRANCH  23  27
ATOM     27  C   UNL     1      -0.317  -4.406   2.851  0.00  0.00    +0.139 C 
BRANCH  27  33
ATOM     28  C   UNL     1      -0.864  -6.614  -1.606  0.00  0.00    +0.044 C 
ATOM     29  C   UNL     1      -1.056  -6.626  -0.111  0.00  0.00    -0.050 A 
ATOM     30  C   UNL     1      -1.669  -7.705   0.498  0.00  0.00    +0.006 A 
ATOM     31  C   UNL     1      -1.845  -7.715   1.869  0.00  0.00    -0.050 A 
ATOM     32  C   UNL     1      -1.407  -6.648   2.631  0.00  0.00    +0.008 A 
ATOM     33  C   UNL     1      -0.793  -5.570   2.021  0.00  0.00    -0.030 A 
ATOM     34  C   UNL     1      -0.613  -5.561   0.651  0.00  0.00    +0.008 A 
ATOM     35  C   UNL     1      -2.515  -8.890   2.534  0.00  0.00    +0.044 C 
ENDBRANCH  27  33
ENDBRANCH  23  27
ENDBRANCH   1  24
TORSDOF 4
