REMARK  Name = ZINC44709957
REMARK  26 active torsions:
REMARK  status: ('A' for Active; 'I' for Inactive)
REMARK    1  A    between atoms: C_1  and  C_2
REMARK    2  A    between atoms: C_2  and  N_35
REMARK    3  A    between atoms: C_3  and  C_4
REMARK    4  A    between atoms: C_4  and  O_6
REMARK    5  A    between atoms: O_6  and  C_7
REMARK    6  A    between atoms: C_7  and  C_8
REMARK    7  A    between atoms: C_7  and  C_9
REMARK    8  A    between atoms: C_7  and  O_17
REMARK    9  A    between atoms: C_9  and  O_10
REMARK   10  A    between atoms: O_10  and  C_11
REMARK   11  A    between atoms: C_11  and  C_12
REMARK   12  A    between atoms: C_13  and  N_14
REMARK   13  A    between atoms: C_13  and  C_15
REMARK   14  A    between atoms: O_17  and  C_18
REMARK   15  A    between atoms: C_18  and  C_19
REMARK   16  A    between atoms: C_18  and  C_20
REMARK   17  A    between atoms: C_18  and  O_28
REMARK   18  A    between atoms: C_20  and  O_21
REMARK   19  A    between atoms: O_21  and  C_22
REMARK   20  A    between atoms: C_22  and  C_23
REMARK   21  A    between atoms: C_24  and  N_25
REMARK   22  A    between atoms: C_24  and  C_26
REMARK   23  A    between atoms: O_28  and  C_29
REMARK   24  A    between atoms: C_29  and  C_30
REMARK   25  A    between atoms: C_31  and  N_32
REMARK   26  A    between atoms: C_31  and  C_33
REMARK                            x       y       z     vdW  Elec       q    Type
REMARK                         _______ _______ _______ _____ _____    ______ ____
ROOT
ATOM      1  O   UNL     1      -1.678  -3.696   0.926  0.00  0.00    -0.291 OA
ENDROOT
BRANCH   1   2
ATOM      2  C   UNL     1      -0.289  -3.951   1.148  0.00  0.00    +0.250 C 
ATOM      3  C   UNL     1      -0.066  -5.457   1.297  0.00  0.00    +0.093 C 
BRANCH   2   4
ATOM      4  C   UNL     1       0.521  -3.431  -0.041  0.00  0.00    +0.311 C 
BRANCH   4   5
ATOM      5  O   UNL     1       1.894  -3.789   0.125  0.00  0.00    -0.455 OA
BRANCH   5   6
ATOM      6  C   UNL     1       2.750  -3.402  -0.844  0.00  0.00    +0.334 C 
ATOM      7  O   UNL     1       2.340  -2.777  -1.804  0.00  0.00    -0.246 OA
BRANCH   6   8
ATOM      8  C   UNL     1       4.122  -3.723  -0.744  0.00  0.00    +0.109 C 
ATOM      9  C   UNL     1       4.955  -3.450  -1.771  0.00  0.00    +0.005 C 
ATOM     10  C   UNL     1       6.446  -3.565  -1.583  0.00  0.00    +0.060 C 
BRANCH   9  11
ATOM     11  N   UNL     1       4.447  -3.070  -2.981  0.00  0.00    -0.361 N 
ATOM     12  H   UNL     1       3.490  -2.962  -3.092  0.00  0.00    +0.142 HD
ATOM     13  H   UNL     1       5.044  -2.909  -3.728  0.00  0.00    +0.142 HD
ENDBRANCH   9  11
ENDBRANCH   6   8
ENDBRANCH   5   6
ENDBRANCH   4   5
ENDBRANCH   2   4
BRANCH   2  14
ATOM     14  O   UNL     1       0.133  -3.287   2.340  0.00  0.00    -0.426 OA
BRANCH  14  15
ATOM     15  C   UNL     1       0.144  -1.937   2.318  0.00  0.00    +0.336 C 
ATOM     16  O   UNL     1      -0.265  -1.341   1.339  0.00  0.00    -0.245 OA
BRANCH  15  17
ATOM     17  C   UNL     1       0.631  -1.217   3.431  0.00  0.00    +0.109 C 
ATOM     18  C   UNL     1       0.959  -1.870   4.566  0.00  0.00    +0.005 C 
ATOM     19  C   UNL     1       1.358  -1.092   5.794  0.00  0.00    +0.060 C 
BRANCH  18  20
ATOM     20  N   UNL     1       0.930  -3.235   4.602  0.00  0.00    -0.361 N 
ATOM     21  H   UNL     1       0.559  -3.732   3.856  0.00  0.00    +0.142 HD
ATOM     22  H   UNL     1       1.280  -3.707   5.374  0.00  0.00    +0.142 HD
ENDBRANCH  18  20
ENDBRANCH  15  17
ENDBRANCH  14  15
ENDBRANCH   2  14
ENDBRANCH   1   2
BRANCH   1  23
ATOM     23  C   UNL     1      -2.480  -3.784   2.106  0.00  0.00    +0.250 C 
ATOM     24  C   UNL     1      -2.200  -5.111   2.815  0.00  0.00    +0.093 C 
BRANCH  23  25
ATOM     25  C   UNL     1      -3.960  -3.714   1.722  0.00  0.00    +0.311 C 
BRANCH  25  26
ATOM     26  O   UNL     1      -4.762  -3.803   2.901  0.00  0.00    -0.455 OA
BRANCH  26  27
ATOM     27  C   UNL     1      -6.101  -3.755   2.736  0.00  0.00    +0.334 C 
ATOM     28  O   UNL     1      -6.573  -3.642   1.620  0.00  0.00    -0.246 OA
BRANCH  27  29
ATOM     29  C   UNL     1      -6.954  -3.838   3.858  0.00  0.00    +0.109 C 
ATOM     30  C   UNL     1      -8.291  -3.910   3.686  0.00  0.00    +0.005 C 
ATOM     31  C   UNL     1      -9.213  -3.757   4.868  0.00  0.00    +0.060 C 
BRANCH  30  32
ATOM     32  N   UNL     1      -8.808  -4.123   2.440  0.00  0.00    -0.361 N 
ATOM     33  H   UNL     1      -8.225  -4.385   1.711  0.00  0.00    +0.142 HD
ATOM     34  H   UNL     1      -9.759  -4.012   2.284  0.00  0.00    +0.142 HD
ENDBRANCH  30  32
ENDBRANCH  27  29
ENDBRANCH  26  27
ENDBRANCH  25  26
ENDBRANCH  23  25
BRANCH  23  35
ATOM     35  O   UNL     1      -2.163  -2.700   2.981  0.00  0.00    -0.426 OA
BRANCH  35  36
ATOM     36  C   UNL     1      -2.481  -1.458   2.558  0.00  0.00    +0.336 C 
ATOM     37  O   UNL     1      -2.908  -1.290   1.431  0.00  0.00    -0.245 OA
BRANCH  36  40
ATOM     38  C   UNL     1      -2.183   2.086   3.815  0.00  0.00    +0.060 C 
ATOM     39  C   UNL     1      -2.575   0.894   2.980  0.00  0.00    +0.005 C 
ATOM     40  C   UNL     1      -2.317  -0.355   3.423  0.00  0.00    +0.109 C 
BRANCH  39  41
ATOM     41  N   UNL     1      -3.193   1.078   1.776  0.00  0.00    -0.361 N 
ATOM     42  H   UNL     1      -3.232   1.963   1.381  0.00  0.00    +0.142 HD
ATOM     43  H   UNL     1      -3.591   0.323   1.315  0.00  0.00    +0.142 HD
ENDBRANCH  39  41
ENDBRANCH  36  40
ENDBRANCH  35  36
ENDBRANCH  23  35
ENDBRANCH   1  23
TORSDOF 20
