REMARK  Name = ZINC66702660
REMARK  11 active torsions:
REMARK  status: ('A' for Active; 'I' for Inactive)
REMARK    1  A    between atoms: C_1  and  C_2
REMARK    2  A    between atoms: C_2  and  C_3
REMARK    3  A    between atoms: C_3  and  N_4
REMARK    4  A    between atoms: N_4  and  C_5
REMARK    5  A    between atoms: C_5  and  C_6
REMARK    6  A    between atoms: C_11  and  O_12
REMARK    7  A    between atoms: N_15  and  C_16
REMARK    8  A    between atoms: C_16  and  C_17
REMARK    9  A    between atoms: C_17  and  C_19
REMARK   10  A    between atoms: C_17  and  N_25
REMARK   11  A    between atoms: C_22  and  C_24
REMARK                            x       y       z     vdW  Elec       q    Type
REMARK                         _______ _______ _______ _____ _____    ______ ____
ROOT
ATOM      1  N   UNL     1      -1.523  -2.007   0.007  0.00  0.00    -0.281 N 
ATOM      2  C   UNL     1      -1.647  -2.666  -1.163  0.00  0.00    +0.302 C 
ATOM      3  O   UNL     1      -1.878  -3.860  -1.167  0.00  0.00    -0.253 OA
ATOM      4  N   UNL     1      -1.514  -2.001  -2.328  0.00  0.00    -0.300 N 
ATOM      5  H   UNL     1      -1.330  -1.049  -2.324  0.00  0.00    +0.150 HD
ENDROOT
BRANCH   1   6
ATOM      6  C   UNL     1      -1.245  -0.569   0.012  0.00  0.00    +0.109 C 
BRANCH   6   8
ATOM      7  C   UNL     1       0.559   1.160   0.023  0.00  0.00    +0.005 C 
ATOM      8  C   UNL     1       0.268  -0.342   0.018  0.00  0.00    +0.016 C 
ENDBRANCH   6   8
ENDBRANCH   1   6
BRANCH   1   9
ATOM      9  C   UNL     1      -1.667  -2.730   1.273  0.00  0.00    +0.148 C 
BRANCH   9  10
ATOM     10  C   UNL     1      -3.112  -2.707   1.703  0.00  0.00    +0.011 A 
ATOM     11  C   UNL     1      -3.535  -1.803   2.657  0.00  0.00    +0.009 A 
ATOM     12  C   UNL     1      -4.860  -1.782   3.052  0.00  0.00    +0.001 A 
ATOM     13  C   UNL     1      -5.764  -2.666   2.492  0.00  0.00    +0.004 A 
ATOM     14  C   UNL     1      -5.346  -3.572   1.537  0.00  0.00    +0.046 A 
ATOM     15  C   UNL     1      -4.018  -3.591   1.135  0.00  0.00    +0.122 A 
BRANCH  15  16
ATOM     16  O   UNL     1      -3.605  -4.477   0.192  0.00  0.00    -0.506 OA
ATOM     17  H   UNL     1      -3.306  -5.324   0.551  0.00  0.00    +0.292 HD
ENDBRANCH  15  16
ENDBRANCH   9  10
ENDBRANCH   1   9
BRANCH   4  18
ATOM     18  C   UNL     1      -1.648  -2.717  -3.599  0.00  0.00    +0.098 C 
BRANCH  18  19
ATOM     19  C   UNL     1      -1.588  -1.718  -4.756  0.00  0.00    +0.016 C 
BRANCH  19  20
ATOM     20  C   UNL     1      -2.787  -0.806  -4.695  0.00  0.00    +0.093 A 
ATOM     21  C   UNL     1      -2.799   0.446  -4.204  0.00  0.00    +0.043 A 
ATOM     22  C   UNL     1      -4.121   0.928  -4.343  0.00  0.00    +0.044 A 
ATOM     23  C   UNL     1      -4.837  -0.059  -4.911  0.00  0.00    +0.102 A 
ATOM     24  O   UNL     1      -4.023  -1.105  -5.128  0.00  0.00    -0.466 OA
ATOM     25  C   UNL     1      -6.304   0.002  -5.253  0.00  0.00    +0.086 C 
ENDBRANCH  19  20
BRANCH  19  26
ATOM     26  N   UNL     1      -1.590  -2.445  -6.032  0.00  0.00    +0.387 N 
ATOM     27  C   UNL     1      -1.526  -1.489  -7.167  0.00  0.00    -0.078 C 
ATOM     28  C   UNL     1      -0.978  -2.355  -8.329  0.00  0.00    -0.020 C 
ATOM     29  C   UNL     1       0.047  -3.272  -7.623  0.00  0.00    -0.020 C 
ATOM     30  C   UNL     1      -0.377  -3.284  -6.142  0.00  0.00    -0.078 C 
ATOM     31  H   UNL     1      -2.418  -3.018  -6.105  0.00  0.00    -0.081 HD
ENDBRANCH  19  26
ENDBRANCH  18  19
ENDBRANCH   4  18
TORSDOF 9
