REMARK  Name = ZINC06321228
REMARK  10 active torsions:
REMARK  status: ('A' for Active; 'I' for Inactive)
REMARK    1  A    between atoms: C_1  and  C_2
REMARK    2  A    between atoms: C_6  and  C_15
REMARK    3  A    between atoms: C_13  and  C_14
REMARK    4  A    between atoms: C_15  and  C_17
REMARK    5  A    between atoms: C_15  and  N_71
REMARK    6  A    between atoms: N_21  and  C_22
REMARK    7  A    between atoms: C_27  and  C_28
REMARK    8  A    between atoms: C_27  and  N_71
REMARK    9  A    between atoms: C_33  and  C_34
REMARK   10  A    between atoms: C_33  and  N_71
REMARK                            x       y       z     vdW  Elec       q    Type
REMARK                         _______ _______ _______ _____ _____    ______ ____
ROOT
ATOM      1  C   UNL     1      -1.507   7.763  -0.211  0.00  0.00    +0.039 C 
ENDROOT
BRANCH   1   7
ATOM      2  C   UNL     1       4.695   3.633   0.097  0.00  0.00    +0.044 C 
ATOM      3  C   UNL     1       3.232   3.833   0.401  0.00  0.00    -0.047 A 
ATOM      4  C   UNL     1       2.611   4.986   0.012  0.00  0.00    +0.013 A 
ATOM      5  C   UNL     1       1.254   5.171   0.294  0.00  0.00    -0.001 A 
ATOM      6  C   UNL     1       0.557   6.394  -0.109  0.00  0.00    +0.017 A 
ATOM      7  C   UNL     1      -0.760   6.518   0.190  0.00  0.00    +0.011 A 
ATOM      8  C   UNL     1      -1.433   5.484   0.876  0.00  0.00    +0.251 A 
ATOM      9  O   UNL     1      -2.617   5.616   1.136  0.00  0.00    -0.268 OA
ATOM     10  N   UNL     1      -0.802   4.358   1.250  0.00  0.00    -0.322 N 
ATOM     11  H   UNL     1      -1.294   3.667   1.721  0.00  0.00    +0.169 HD
ATOM     12  C   UNL     1       0.536   4.170   0.976  0.00  0.00    +0.049 A 
ATOM     13  C   UNL     1       1.189   3.003   1.358  0.00  0.00    +0.030 A 
ATOM     14  C   UNL     1       2.528   2.844   1.074  0.00  0.00    -0.046 A 
ATOM     15  C   UNL     1       3.234   1.580   1.494  0.00  0.00    +0.044 C 
ENDBRANCH   1   7
BRANCH   1  16
ATOM     16  C   UNL     1      -2.059   8.436   1.019  0.00  0.00    +0.143 A 
ATOM     17  N   UNL     1      -3.129   8.085   1.690  0.00  0.00    -0.115 NA
ATOM     18  N   UNL     1      -3.268   8.903   2.675  0.00  0.00    -0.023 NA
ATOM     19  N   UNL     1      -2.319   9.773   2.645  0.00  0.00    -0.044 NA
ATOM     20  N   UNL     1      -1.553   9.518   1.639  0.00  0.00    -0.227 N 
BRANCH  20  21
ATOM     21  C   UNL     1      -0.357  10.267   1.244  0.00  0.00    +0.111 C 
ATOM     22  C   UNL     1       0.715  10.172   2.350  0.00  0.00    +0.027 C 
ATOM     23  C   UNL     1       1.378  11.572   2.356  0.00  0.00    +0.002 C 
ATOM     24  C   UNL     1       0.180  12.520   2.105  0.00  0.00    +0.002 C 
ATOM     25  C   UNL     1      -0.697  11.760   1.088  0.00  0.00    +0.027 C 
ENDBRANCH  20  21
ENDBRANCH   1  16
BRANCH   1  26
ATOM     26  N   UNL     1      -2.632   7.391  -1.094  0.00  0.00    +0.396 N 
ATOM     27  H   UNL     1      -3.370   6.956  -0.529  0.00  0.00    -0.080 HD
BRANCH  26  28
ATOM     28  C   UNL     1      -3.180   8.597  -1.751  0.00  0.00    -0.002 C 
BRANCH  28  29
ATOM     29  C   UNL     1      -4.061   9.324  -0.768  0.00  0.00    +0.089 A 
ATOM     30  C   UNL     1      -3.783  10.503  -0.183  0.00  0.00    +0.042 A 
ATOM     31  C   UNL     1      -4.876  10.811   0.659  0.00  0.00    +0.041 A 
ATOM     32  C   UNL     1      -5.757   9.802   0.538  0.00  0.00    +0.195 A 
ATOM     33  O   UNL     1      -5.261   8.906  -0.332  0.00  0.00    -0.470 OA
ENDBRANCH  28  29
ENDBRANCH  26  28
BRANCH  26  34
ATOM     34  C   UNL     1      -2.176   6.424  -2.114  0.00  0.00    -0.045 C 
BRANCH  34  35
ATOM     35  C   UNL     1      -2.728   5.043  -1.754  0.00  0.00    +0.102 C 
ATOM     36  C   UNL     1      -2.365   4.016  -2.849  0.00  0.00    +0.032 C 
ATOM     37  C   UNL     1      -3.610   3.106  -2.937  0.00  0.00    +0.030 C 
ATOM     38  C   UNL     1      -4.578   3.690  -1.885  0.00  0.00    +0.160 C 
ATOM     39  O   UNL     1      -4.172   5.068  -1.735  0.00  0.00    -0.378 OA
ENDBRANCH  34  35
ENDBRANCH  26  34
ENDBRANCH   1  26
TORSDOF 8
