REMARK  Name = ZINC14467261
REMARK  5 active torsions:
REMARK  status: ('A' for Active; 'I' for Inactive)
REMARK    1  A    between atoms: C_1  and  C_2
REMARK    2  A    between atoms: N_5  and  S_8
REMARK    3  A    between atoms: S_8  and  C_11
REMARK    4  A    between atoms: C_24  and  C_27
REMARK    5  A    between atoms: C_32  and  O_33
REMARK                            x       y       z     vdW  Elec       q    Type
REMARK                         _______ _______ _______ _____ _____    ______ ____
ROOT
ATOM      1  C   UNL     1       6.495   6.332   0.394  0.00  0.00    +0.106 A 
ATOM      2  C   UNL     1       5.568   6.398   1.417  0.00  0.00    +0.030 A 
ATOM      3  C   UNL     1       4.574   5.444   1.502  0.00  0.00    +0.025 A 
ATOM      4  C   UNL     1       4.507   4.424   0.561  0.00  0.00    +0.031 A 
ATOM      5  C   UNL     1       5.433   4.355  -0.468  0.00  0.00    -0.018 A 
ATOM      6  C   UNL     1       6.429   5.320  -0.542  0.00  0.00    +0.034 A 
ATOM      7  C   UNL     1       5.398   3.279  -1.506  0.00  0.00    +0.049 C 
ATOM      8  C   UNL     1       6.481   2.252  -1.274  0.00  0.00    -0.023 C 
ATOM      9  C   UNL     1       6.047   1.056  -1.589  0.00  0.00    -0.030 C 
ATOM     10  C   UNL     1       4.613   1.123  -2.079  0.00  0.00    +0.033 C 
ATOM     11  C   UNL     1       4.092   2.460  -1.482  0.00  0.00    +0.029 C 
ATOM     12  C   UNL     1       3.675   2.185  -0.034  0.00  0.00    +0.109 C 
ATOM     13  N   UNL     1       3.494   3.464   0.661  0.00  0.00    -0.336 N 
ATOM     14  H   UNL     1       2.692   3.639   1.178  0.00  0.00    +0.147 HD
ENDROOT
BRANCH  12  15
ATOM     15  C   UNL     1       2.381   1.415  -0.019  0.00  0.00    +0.017 A 
ATOM     16  C   UNL     1       2.378   0.074   0.315  0.00  0.00    +0.029 A 
ATOM     17  C   UNL     1       1.190  -0.635   0.328  0.00  0.00    +0.043 A 
ATOM     18  C   UNL     1       0.001  -0.003   0.007  0.00  0.00    +0.043 A 
ATOM     19  C   UNL     1      -0.000   1.338  -0.329  0.00  0.00    +0.084 A 
ATOM     20  C   UNL     1       1.191   2.050  -0.342  0.00  0.00    +0.140 A 
ATOM     21 CL   UNL     1      -1.491   2.131  -0.733  0.00  0.00    -0.080 Cl
ATOM     22 CL   UNL     1       1.188  -2.317   0.756  0.00  0.00    -0.083 Cl
BRANCH  20  23
ATOM     23  O   UNL     1       1.192   3.369  -0.672  0.00  0.00    -0.505 OA
ATOM     24  H   UNL     1       0.995   3.960   0.068  0.00  0.00    +0.292 HD
ENDBRANCH  20  23
ENDBRANCH  12  15
BRANCH   1  25
ATOM     25  S   UNL     1       7.767   7.546   0.282  0.00  0.00    +0.061 S 
ATOM     26  O   UNL     1       8.182   7.578  -1.076  0.00  0.00    -0.153 OA
ATOM     27  O   UNL     1       7.288   8.700   0.959  0.00  0.00    -0.153 OA
BRANCH  25  32
ATOM     28  C   UNL     1      10.746   3.928   3.586  0.00  0.00    +0.007 C 
ATOM     29  C   UNL     1      10.545   5.217   2.787  0.00  0.00    -0.012 C 
ATOM     30  C   UNL     1      10.260   4.870   1.323  0.00  0.00    +0.020 C 
ATOM     31  C   UNL     1      10.094   6.163   0.520  0.00  0.00    +0.110 C 
ATOM     32  N   UNL     1       9.057   6.986   1.157  0.00  0.00    -0.177 NA
ATOM     33  C   UNL     1       9.189   7.308   2.585  0.00  0.00    +0.110 C 
ATOM     34  C   UNL     1       9.363   5.997   3.367  0.00  0.00    +0.020 C 
ENDBRANCH  25  32
ENDBRANCH   1  25
TORSDOF 4
