REMARK  Name = ZINC01107181
REMARK  7 active torsions:
REMARK  status: ('A' for Active; 'I' for Inactive)
REMARK    1  A    between atoms: C_1  and  O_2
REMARK    2  A    between atoms: O_2  and  C_3
REMARK    3  A    between atoms: C_6  and  C_11
REMARK    4  A    between atoms: C_8  and  O_9
REMARK    5  A    between atoms: O_9  and  C_10
REMARK    6  A    between atoms: C_16  and  C_26
REMARK    7  A    between atoms: C_31  and  N_32
REMARK                            x       y       z     vdW  Elec       q    Type
REMARK                         _______ _______ _______ _____ _____    ______ ____
ROOT
ATOM      1  C   UNL     1       4.685   3.038  -3.872  0.00  0.00    +0.032 C 
ATOM      2  C   UNL     1       3.769   4.258  -3.804  0.00  0.00    +0.059 C 
ATOM      3  C   UNL     1       3.318   4.487  -2.370  0.00  0.00    +0.017 C 
ATOM      4  C   UNL     1       3.130   3.446  -1.542  0.00  0.00    +0.036 C 
ATOM      5  C   UNL     1       2.651   3.525  -0.112  0.00  0.00    +0.138 C 
ATOM      6  N   UNL     1       2.640   4.862   0.442  0.00  0.00    -0.331 N 
ATOM      7  C   UNL     1       1.800   5.848  -0.071  0.00  0.00    +0.049 A 
ATOM      8  C   UNL     1       0.773   6.390   0.685  0.00  0.00    +0.025 A 
ATOM      9  C   UNL     1      -0.064   7.335   0.118  0.00  0.00    +0.002 A 
ATOM     10  C   UNL     1       0.117   7.733  -1.194  0.00  0.00    +0.002 A 
ATOM     11  C   UNL     1       1.152   7.205  -1.948  0.00  0.00    +0.025 A 
ATOM     12  C   UNL     1       2.003   6.277  -1.374  0.00  0.00    +0.052 A 
ATOM     13  N   UNL     1       3.123   5.788  -2.038  0.00  0.00    -0.316 N 
ATOM     14  C   UNL     1       3.389   2.127  -1.987  0.00  0.00    +0.163 C 
ATOM     15  O   UNL     1       3.197   1.203  -1.220  0.00  0.00    -0.292 OA
ATOM     16  C   UNL     1       3.890   1.828  -3.368  0.00  0.00    +0.088 C 
ATOM     17  H   UNL     1       3.228   5.075   1.184  0.00  0.00    +0.147 HD
ATOM     18  H   UNL     1       3.814   6.423  -2.282  0.00  0.00    +0.152 HD
ENDROOT
BRANCH   1  22
ATOM     19  C   UNL     1       5.913   2.376  -7.915  0.00  0.00    +0.161 A 
ATOM     20  C   UNL     1       4.568   2.349  -7.583  0.00  0.00    +0.049 A 
ATOM     21  C   UNL     1       4.175   2.557  -6.274  0.00  0.00    +0.008 A 
ATOM     22  C   UNL     1       5.120   2.805  -5.296  0.00  0.00    -0.040 A 
ATOM     23  C   UNL     1       6.463   2.834  -5.621  0.00  0.00    +0.053 A 
ATOM     24  C   UNL     1       6.865   2.620  -6.929  0.00  0.00    +0.162 A 
BRANCH  19  26
ATOM     25  C   UNL     1       5.271   1.922 -10.159  0.00  0.00    +0.277 C 
ATOM     26  O   UNL     1       6.302   2.165  -9.201  0.00  0.00    -0.491 OA
ENDBRANCH  19  26
BRANCH  24  27
ATOM     27  O   UNL     1       8.186   2.647  -7.250  0.00  0.00    -0.491 OA
ATOM     28  C   UNL     1       9.107   2.903  -6.187  0.00  0.00    +0.277 C 
ENDBRANCH  24  27
ENDBRANCH   1  22
BRANCH   5  29
ATOM     29  C   UNL     1       1.252   2.968  -0.046  0.00  0.00    +0.007 A 
ATOM     30  C   UNL     1       0.486   2.884  -1.194  0.00  0.00    +0.008 A 
ATOM     31  C   UNL     1      -0.797   2.374  -1.132  0.00  0.00    +0.000 A 
ATOM     32  C   UNL     1      -1.312   1.942   0.076  0.00  0.00    +0.002 A 
ATOM     33  C   UNL     1      -0.548   2.031   1.224  0.00  0.00    +0.033 A 
ATOM     34  C   UNL     1       0.735   2.542   1.163  0.00  0.00    +0.131 A 
BRANCH  34  35
ATOM     35  N   UNL     1       1.555   2.631   2.392  0.00  0.00    +0.057 N 
ATOM     36  O   UNL     1       1.143   2.157   3.435  0.00  0.00    -0.126 OA
ATOM     37  O   UNL     1       2.643   3.179   2.360  0.00  0.00    -0.126 OA
ENDBRANCH  34  35
ENDBRANCH   5  29
TORSDOF 5
