REMARK  Name = ZINC08630534
REMARK  7 active torsions:
REMARK  status: ('A' for Active; 'I' for Inactive)
REMARK    1  A    between atoms: C_1  and  C_2
REMARK    2  A    between atoms: C_2  and  C_4
REMARK    3  A    between atoms: C_2  and  O_16
REMARK    4  A    between atoms: O_16  and  C_17
REMARK    5  A    between atoms: C_17  and  C_19
REMARK    6  A    between atoms: C_19  and  N_20
REMARK    7  A    between atoms: C_21  and  C_23
REMARK                            x       y       z     vdW  Elec       q    Type
REMARK                         _______ _______ _______ _____ _____    ______ ____
ROOT
ATOM      1  C   UNL     1       5.904   3.405  -0.035  0.00  0.00    +0.325 C 
ATOM      2  O   UNL     1       5.493   4.541  -0.026  0.00  0.00    -0.249 OA
ENDROOT
BRANCH   1   3
ATOM      3  O   UNL     1       7.226   3.170  -0.049  0.00  0.00    -0.453 OA
BRANCH   3   5
ATOM      4  C   UNL     1       8.395   4.742  -1.494  0.00  0.00    +0.060 C 
ATOM      5  C   UNL     1       8.101   4.328  -0.051  0.00  0.00    +0.239 C 
BRANCH   5   6
ATOM      6  C   UNL     1       9.392   3.983   0.645  0.00  0.00    +0.151 A 
ATOM      7  N   UNL     1       9.390   3.898   2.001  0.00  0.00    -0.307 N 
ATOM      8  H   UNL     1       8.569   4.058   2.491  0.00  0.00    +0.170 HD
ATOM      9  C   UNL     1      10.522   3.586   2.674  0.00  0.00    +0.259 A 
ATOM     10  O   UNL     1      10.534   3.501   3.888  0.00  0.00    -0.267 OA
ATOM     11  C   UNL     1      11.740   3.359   1.881  0.00  0.00    +0.065 A 
ATOM     12  C   UNL     1      12.958   3.038   2.476  0.00  0.00    +0.015 A 
ATOM     13  C   UNL     1      14.068   2.836   1.685  0.00  0.00    +0.001 A 
ATOM     14  C   UNL     1      13.981   2.950   0.304  0.00  0.00    +0.002 A 
ATOM     15  C   UNL     1      12.787   3.266  -0.304  0.00  0.00    +0.028 A 
ATOM     16  C   UNL     1      11.648   3.475   0.476  0.00  0.00    +0.078 A 
ATOM     17  N   UNL     1      10.451   3.789  -0.081  0.00  0.00    -0.230 NA
ENDBRANCH   5   6
ENDBRANCH   3   5
ENDBRANCH   1   3
BRANCH   1  18
ATOM     18  C   UNL     1       4.934   2.252  -0.032  0.00  0.00    +0.225 C 
BRANCH  18  19
ATOM     19  N   UNL     1       3.563   2.768  -0.017  0.00  0.00    -0.300 N 
ATOM     20  C   UNL     1       2.521   1.913  -0.011  0.00  0.00    +0.253 C 
ATOM     21  O   UNL     1       2.720   0.712  -0.019  0.00  0.00    -0.270 OA
ATOM     22  H   UNL     1       3.405   3.725  -0.010  0.00  0.00    +0.150 HD
BRANCH  20  23
ATOM     23  C   UNL     1       1.147   2.429   0.004  0.00  0.00    +0.093 A 
ATOM     24  C   UNL     1      -0.021   1.732   0.012  0.00  0.00    +0.068 A 
ATOM     25  C   UNL     1      -1.249   2.420   0.021  0.00  0.00    +0.008 A 
ATOM     26  C   UNL     1      -2.560   1.878   0.025  0.00  0.00    +0.010 A 
ATOM     27  C   UNL     1      -3.648   2.690   0.034  0.00  0.00    +0.001 A 
ATOM     28  C   UNL     1      -3.524   4.075   0.040  0.00  0.00    +0.001 A 
ATOM     29  C   UNL     1      -2.267   4.644   0.047  0.00  0.00    +0.016 A 
ATOM     30  C   UNL     1      -1.153   3.832   0.033  0.00  0.00    +0.021 A 
ATOM     31  S   UNL     1       0.598   4.127   0.018  0.00  0.00    -0.082 S 
ATOM     32 CL   UNL     1       0.002  -0.004   0.002  0.00  0.00    -0.082 Cl
ENDBRANCH  20  23
ENDBRANCH  18  19
ENDBRANCH   1  18
TORSDOF 6
