REMARK  Name = ZINC43165813
REMARK  3 active torsions:
REMARK  status: ('A' for Active; 'I' for Inactive)
REMARK    1  A    between atoms: C_7  and  N_12
REMARK    2  A    between atoms: N_15  and  N_16
REMARK    3  A    between atoms: C_17  and  C_19
REMARK                            x       y       z     vdW  Elec       q    Type
REMARK                         _______ _______ _______ _____ _____    ______ ____
ROOT
ATOM      1  N   UNL     1       0.148  -2.670  -0.926  0.00  0.00    -0.291 N 
ATOM      2  C   UNL     1      -1.127  -2.780  -0.501  0.00  0.00    +0.316 C 
ATOM      3  O   UNL     1      -1.414  -2.485   0.643  0.00  0.00    -0.251 OA
ATOM      4  N   UNL     1      -2.083  -3.217  -1.345  0.00  0.00    -0.218 N 
ATOM      5  H   UNL     1       0.377  -2.905  -1.839  0.00  0.00    +0.151 HD
ATOM      6  H   UNL     1      -3.000  -3.297  -1.039  0.00  0.00    +0.174 HD
ENDROOT
BRANCH   1  13
ATOM      7  C   UNL     1      -0.017   1.377   0.010  0.00  0.00    +0.001 A 
ATOM      8  C   UNL     1       1.172   2.084   0.002  0.00  0.00    +0.004 A 
ATOM      9  C   UNL     1       2.375   1.409  -0.015  0.00  0.00    +0.046 A 
ATOM     10  C   UNL     1       2.398   0.018  -0.024  0.00  0.00    +0.125 A 
ATOM     11  C   UNL     1       1.207  -0.687  -0.012  0.00  0.00    +0.015 A 
ATOM     12  C   UNL     1       0.002  -0.004   0.002  0.00  0.00    +0.009 A 
ATOM     13  C   UNL     1       1.187  -2.194  -0.010  0.00  0.00    +0.111 C 
ATOM     14  C   UNL     1       2.548  -2.729  -0.463  0.00  0.00    +0.068 C 
ATOM     15  C   UNL     1       3.641  -1.990   0.320  0.00  0.00    +0.231 C 
ATOM     16  O   UNL     1       3.602  -0.610  -0.046  0.00  0.00    -0.492 OA
ENDBRANCH   1  13
BRANCH   4  17
ATOM     17  N   UNL     1      -1.752  -3.557  -2.663  0.00  0.00    -0.229 N 
ATOM     18  C   UNL     1      -2.708  -3.994  -3.506  0.00  0.00    +0.267 C 
ATOM     19  O   UNL     1      -3.859  -4.094  -3.123  0.00  0.00    -0.268 OA
ATOM     20  H   UNL     1      -0.835  -3.478  -2.969  0.00  0.00    +0.173 HD
BRANCH  18  21
ATOM     21  C   UNL     1      -2.362  -4.350  -4.886  0.00  0.00    +0.076 A 
ATOM     22  C   UNL     1      -3.177  -4.806  -5.899  0.00  0.00    +0.024 A 
ATOM     23  C   UNL     1      -2.567  -5.095  -7.123  0.00  0.00    -0.036 A 
ATOM     24  C   UNL     1      -1.231  -4.940  -7.190  0.00  0.00    -0.006 A 
ATOM     25  S   UNL     1      -0.779  -4.299  -5.699  0.00  0.00    -0.088 S 
ATOM     26  C   UNL     1      -0.216  -5.292  -8.250  0.00  0.00    +0.043 C 
ATOM     27  C   UNL     1      -0.855  -5.967  -9.464  0.00  0.00    +0.005 C 
ATOM     28  C   UNL     1      -1.501  -4.941 -10.380  0.00  0.00    +0.000 C 
ATOM     29  C   UNL     1      -2.175  -3.816  -9.621  0.00  0.00    +0.000 C 
ATOM     30  C   UNL     1      -3.576  -4.310  -9.245  0.00  0.00    +0.005 C 
ATOM     31  C   UNL     1      -3.443  -5.503  -8.299  0.00  0.00    +0.036 C 
ENDBRANCH  18  21
ENDBRANCH   4  17
TORSDOF 3
