REMARK  Name = ZINC49911313
REMARK  5 active torsions:
REMARK  status: ('A' for Active; 'I' for Inactive)
REMARK    1  A    between atoms: C_1  and  C_2
REMARK    2  A    between atoms: C_4  and  C_22
REMARK    3  A    between atoms: C_5  and  C_9
REMARK    4  A    between atoms: C_6  and  C_8
REMARK    5  A    between atoms: C_9  and  N_10
REMARK                            x       y       z     vdW  Elec       q    Type
REMARK                         _______ _______ _______ _____ _____    ______ ____
ROOT
ATOM      1  N   UNL     1       1.447  -4.746  -0.032  0.00  0.00    -0.200 N 
ATOM      2  C   UNL     1       2.169  -4.981  -1.148  0.00  0.00    +0.268 C 
ATOM      3  O   UNL     1       1.809  -4.849  -2.298  0.00  0.00    -0.271 OA
ATOM      4  C   UNL     1       3.521  -5.443  -0.658  0.00  0.00    +0.187 C 
ATOM      5  C   UNL     1       3.809  -6.859  -1.150  0.00  0.00    +0.039 C 
ATOM      6  C   UNL     1       5.205  -7.282  -0.682  0.00  0.00    -0.078 C 
ATOM      7  N   UNL     1       6.205  -6.348  -1.212  0.00  0.00    +0.379 N 
ATOM      8  C   UNL     1       5.976  -5.006  -0.663  0.00  0.00    -0.078 C 
ATOM      9  C   UNL     1       4.613  -4.487  -1.130  0.00  0.00    +0.039 C 
ATOM     10  O   UNL     1       3.415  -5.419   0.768  0.00  0.00    -0.434 OA
ATOM     11  C   UNL     1       2.174  -4.996   1.065  0.00  0.00    +0.411 C 
ATOM     12  O   UNL     1       1.759  -4.859   2.199  0.00  0.00    -0.226 OA
ATOM     13  H   UNL     1       7.128  -6.663  -0.953  0.00  0.00    -0.086 HD
ATOM     14  H   UNL     1       6.134  -6.315  -2.218  0.00  0.00    -0.086 HD
ENDROOT
BRANCH   1  15
ATOM     15  C   UNL     1       0.059  -4.275  -0.021  0.00  0.00    +0.155 C 
BRANCH  15  20
ATOM     16  C   UNL     1      -0.018   1.503   0.010  0.00  0.00    +0.044 C 
ATOM     17  C   UNL     1       0.002  -0.004   0.002  0.00  0.00    -0.050 A 
ATOM     18  C   UNL     1       0.006  -0.689  -1.199  0.00  0.00    +0.007 A 
ATOM     19  C   UNL     1       0.025  -2.071  -1.206  0.00  0.00    -0.045 A 
ATOM     20  C   UNL     1       0.040  -2.768  -0.013  0.00  0.00    -0.024 A 
ATOM     21  C   UNL     1       0.037  -2.084   1.188  0.00  0.00    -0.045 A 
ATOM     22  C   UNL     1       0.023  -0.702   1.195  0.00  0.00    +0.007 A 
ATOM     23  C   UNL     1       0.054  -2.844   2.489  0.00  0.00    +0.044 C 
ATOM     24  C   UNL     1       0.027  -2.817  -2.516  0.00  0.00    +0.044 C 
ENDBRANCH  15  20
ENDBRANCH   1  15
TORSDOF 2
