REMARK  Name = ZINC20347862
REMARK  10 active torsions:
REMARK  status: ('A' for Active; 'I' for Inactive)
REMARK    1  A    between atoms: C_1  and  C_2
REMARK    2  A    between atoms: C_5  and  N_8
REMARK    3  A    between atoms: C_9  and  C_11
REMARK    4  A    between atoms: C_11  and  S_12
REMARK    5  A    between atoms: S_12  and  C_13
REMARK    6  A    between atoms: C_14  and  C_36
REMARK    7  A    between atoms: C_15  and  C_31
REMARK    8  A    between atoms: C_17  and  C_21
REMARK    9  A    between atoms: C_18  and  C_20
REMARK   10  A    between atoms: N_23  and  C_24
REMARK                            x       y       z     vdW  Elec       q    Type
REMARK                         _______ _______ _______ _____ _____    ______ ____
ROOT
ATOM      1  C   UNL     1      -1.229  -5.181   0.929  0.00  0.00    +0.080 C 
ATOM      2  C   UNL     1      -0.096  -4.429   0.906  0.00  0.00    +0.072 C 
ATOM      3  C   UNL     1      -0.109  -3.016   0.397  0.00  0.00    +0.134 C 
ATOM      4  C   UNL     1      -1.512  -2.487   0.324  0.00  0.00    +0.047 C 
ATOM      5  C   UNL     1      -2.578  -3.302   0.372  0.00  0.00    +0.015 C 
ATOM      6  N   UNL     1      -2.425  -4.657   0.490  0.00  0.00    -0.312 N 
ATOM      7  C   UNL     1      -3.964  -2.717   0.291  0.00  0.00    +0.061 C 
ATOM      8  H   UNL     1      -3.258  -5.327   0.233  0.00  0.00    +0.152 HD
ENDROOT
BRANCH   3   9
ATOM      9  C   UNL     1       0.508  -2.979  -0.978  0.00  0.00    +0.118 A 
ATOM     10  C   UNL     1       1.612  -2.295  -1.327  0.00  0.00    +0.045 A 
ATOM     11  C   UNL     1       1.829  -2.542  -2.702  0.00  0.00    +0.041 A 
ATOM     12  C   UNL     1       0.845  -3.363  -3.111  0.00  0.00    +0.195 A 
ATOM     13  O   UNL     1       0.051  -3.629  -2.061  0.00  0.00    -0.467 OA
ENDBRANCH   3   9
BRANCH   4  14
ATOM     14  C   UNL     1      -1.717  -1.091   0.205  0.00  0.00    +0.247 C 
ATOM     15  O   UNL     1      -2.847  -0.637   0.234  0.00  0.00    -0.270 OA
ATOM     16  N   UNL     1      -0.662  -0.265   0.061  0.00  0.00    -0.282 N 
ATOM     17  H   UNL     1       0.352  -0.680  -0.035  0.00  0.00    +0.155 HD
BRANCH  16  18
ATOM     18  C   UNL     1      -0.857   1.121   0.035  0.00  0.00    +0.034 A 
ATOM     19  C   UNL     1       0.086   1.967   0.604  0.00  0.00    +0.026 A 
ATOM     20  C   UNL     1      -0.106   3.334   0.573  0.00  0.00    +0.040 A 
ATOM     21  C   UNL     1      -1.243   3.861  -0.016  0.00  0.00    +0.124 A 
ATOM     22  C   UNL     1      -2.187   3.019  -0.579  0.00  0.00    +0.040 A 
ATOM     23  C   UNL     1      -1.996   1.652  -0.555  0.00  0.00    +0.026 A 
ATOM     24  F   UNL     1      -1.431   5.199  -0.040  0.00  0.00    -0.205 F 
ENDBRANCH  16  18
ENDBRANCH   4  14
BRANCH   2  25
ATOM     25  C   UNL     1       1.132  -4.995   1.377  0.00  0.00    +0.098 C 
ATOM     26  N   UNL     1       2.106  -5.444   1.751  0.00  0.00    -0.191 NA
ENDBRANCH   2  25
BRANCH   1  27
ATOM     27  S   UNL     1      -1.168  -6.838   1.526  0.00  0.00    -0.100 S 
BRANCH  27  28
ATOM     28  C   UNL     1      -2.903  -7.310   1.321  0.00  0.00    +0.171 C 
BRANCH  28  30
ATOM     29  N   UNL     1      -4.314  -9.302   1.721  0.00  0.00    -0.285 N 
ATOM     30  C   UNL     1      -3.094  -8.732   1.781  0.00  0.00    +0.227 C 
ATOM     31  O   UNL     1      -2.150  -9.365   2.205  0.00  0.00    -0.275 OA
ATOM     32  H   UNL     1      -5.184  -8.707   1.405  0.00  0.00    +0.155 HD
BRANCH  29  37
ATOM     33  C   UNL     1      -4.966 -14.766   3.103  0.00  0.00    +0.044 C 
ATOM     34  C   UNL     1      -4.792 -13.314   2.736  0.00  0.00    -0.050 A 
ATOM     35  C   UNL     1      -3.870 -12.537   3.412  0.00  0.00    +0.005 A 
ATOM     36  C   UNL     1      -3.709 -11.207   3.078  0.00  0.00    +0.023 A 
ATOM     37  C   UNL     1      -4.475 -10.650   2.062  0.00  0.00    +0.033 A 
ATOM     38  C   UNL     1      -5.404 -11.431   1.389  0.00  0.00    +0.023 A 
ATOM     39  C   UNL     1      -5.557 -12.763   1.724  0.00  0.00    +0.005 A 
ENDBRANCH  29  37
ENDBRANCH  28  30
ENDBRANCH  27  28
ENDBRANCH   1  27
TORSDOF 8
