REMARK  Name = ZINC63295927
REMARK  3 active torsions:
REMARK  status: ('A' for Active; 'I' for Inactive)
REMARK    1  A    between atoms: C_6  and  N_7
REMARK    2  A    between atoms: C_13  and  C_15
REMARK    3  A    between atoms: C_15  and  N_16
REMARK                            x       y       z     vdW  Elec       q    Type
REMARK                         _______ _______ _______ _____ _____    ______ ____
ROOT
ATOM      1  N   UNL     1      -5.885  -4.592  -1.230  0.00  0.00    -0.291 N 
ATOM      2  C   UNL     1      -6.114  -5.917  -1.330  0.00  0.00    +0.303 C 
ATOM      3  O   UNL     1      -5.180  -6.695  -1.356  0.00  0.00    -0.253 OA
ATOM      4  N   UNL     1      -7.378  -6.378  -1.401  0.00  0.00    -0.283 N 
ATOM      5  C   UNL     1      -8.492  -5.429  -1.498  0.00  0.00    +0.114 C 
ATOM      6  C   UNL     1      -9.305  -5.721  -2.773  0.00  0.00    +0.052 C 
ATOM      7  C   UNL     1      -9.506  -7.215  -2.826  0.00  0.00    -0.035 C 
ATOM      8  C   UNL     1     -10.602  -7.948  -2.974  0.00  0.00    +0.001 A 
ATOM      9  C   UNL     1     -11.999  -7.577  -3.249  0.00  0.00    +0.030 A 
ATOM     10  C   UNL     1     -12.890  -8.602  -3.320  0.00  0.00    +0.042 A 
ATOM     11  C   UNL     1     -12.533  -9.944  -3.147  0.00  0.00    +0.022 A 
ATOM     12  C   UNL     1     -11.271 -10.376  -2.899  0.00  0.00    +0.027 A 
ATOM     13  C   UNL     1     -10.245  -9.390  -2.811  0.00  0.00    +0.043 A 
ATOM     14  N   UNL     1      -8.967  -9.522  -2.609  0.00  0.00    -0.376 N 
ATOM     15  C   UNL     1      -8.350  -8.197  -2.680  0.00  0.00    +0.124 C 
ATOM     16  C   UNL     1      -7.626  -7.829  -1.387  0.00  0.00    +0.138 C 
ATOM     17 CL   UNL     1     -14.554  -8.227  -3.642  0.00  0.00    -0.084 Cl
ATOM     18  H   UNL     1      -6.628  -3.977  -1.133  0.00  0.00    +0.151 HD
ATOM     19  H   UNL     1      -8.502 -10.357  -2.440  0.00  0.00    +0.160 HD
ENDROOT
BRANCH   1  20
ATOM     20  C   UNL     1      -4.512  -4.082  -1.270  0.00  0.00    +0.201 C 
BRANCH  20  27
ATOM     21  N   UNL     1      -1.192  -0.729   0.019  0.00  0.00    -0.327 N 
ATOM     22  C   UNL     1      -2.479  -0.032   0.156  0.00  0.00    +0.124 C 
ATOM     23  C   UNL     1      -3.377  -0.425  -1.024  0.00  0.00    +0.126 C 
ATOM     24  N   UNL     1      -3.374  -1.889  -1.150  0.00  0.00    -0.297 N 
ATOM     25  C   UNL     1      -2.087  -2.585  -1.287  0.00  0.00    +0.126 C 
ATOM     26  C   UNL     1      -1.190  -2.192  -0.112  0.00  0.00    +0.124 C 
ATOM     27  C   UNL     1      -4.530  -2.580  -1.140  0.00  0.00    +0.233 C 
ATOM     28  O   UNL     1      -5.586  -1.995  -1.026  0.00  0.00    -0.274 OA
BRANCH  21  34
ATOM     29  C   UNL     1       1.221  -0.686  -0.014  0.00  0.00    +0.026 A 
ATOM     30  C   UNL     1       2.405   0.025  -0.025  0.00  0.00    +0.040 A 
ATOM     31  C   UNL     1       2.383   1.409  -0.014  0.00  0.00    +0.124 A 
ATOM     32  C   UNL     1       1.174   2.084   0.008  0.00  0.00    +0.040 A 
ATOM     33  C   UNL     1      -0.012   1.377   0.020  0.00  0.00    +0.026 A 
ATOM     34  C   UNL     1       0.008  -0.011   0.008  0.00  0.00    +0.030 A 
ATOM     35  F   UNL     1       3.543   2.103  -0.025  0.00  0.00    -0.205 F 
ENDBRANCH  21  34
ENDBRANCH  20  27
ENDBRANCH   1  20
TORSDOF 3
