REMARK  Name = ZINC07607104
REMARK  11 active torsions:
REMARK  status: ('A' for Active; 'I' for Inactive)
REMARK    1  A    between atoms: C_1  and  C_2
REMARK    2  A    between atoms: C_3  and  C_29
REMARK    3  A    between atoms: N_4  and  C_23
REMARK    4  A    between atoms: C_5  and  N_9
REMARK    5  A    between atoms: C_6  and  C_7
REMARK    6  A    between atoms: C_10  and  C_12
REMARK    7  A    between atoms: C_12  and  N_51
REMARK    8  A    between atoms: C_13  and  C_15
REMARK    9  A    between atoms: C_13  and  C_16
REMARK   10  A    between atoms: C_13  and  N_51
REMARK   11  A    between atoms: C_23  and  C_24
REMARK                            x       y       z     vdW  Elec       q    Type
REMARK                         _______ _______ _______ _____ _____    ______ ____
ROOT
ATOM      1  N   UNL     1      -2.459   1.825   0.022  0.00  0.00    -0.272 N 
ATOM      2  C   UNL     1      -3.455   2.728  -0.071  0.00  0.00    +0.201 C 
ATOM      3  O   UNL     1      -3.197   3.900  -0.250  0.00  0.00    -0.278 OA
ATOM      4  H   UNL     1      -2.665   0.879   0.079  0.00  0.00    +0.156 HD
ENDROOT
BRANCH   1   9
ATOM      5  C   UNL     1       1.749   4.537   0.714  0.00  0.00    +0.047 C 
ATOM      6  C   UNL     1       0.780   3.447   0.336  0.00  0.00    -0.011 A 
ATOM      7  C   UNL     1       1.079   2.276  -0.249  0.00  0.00    +0.022 A 
ATOM      8  N   UNL     1      -0.070   1.554  -0.432  0.00  0.00    -0.324 N 
ATOM      9  C   UNL     1      -1.138   2.249   0.038  0.00  0.00    +0.124 A 
ATOM     10  C   UNL     1      -0.674   3.460   0.534  0.00  0.00    +0.095 A 
ATOM     11  C   UNL     1       2.463   1.825  -0.640  0.00  0.00    +0.064 C 
BRANCH  10  12
ATOM     12  C   UNL     1      -1.455   4.505   1.124  0.00  0.00    +0.103 C 
ATOM     13  N   UNL     1      -2.074   5.335   1.592  0.00  0.00    -0.191 NA
ENDBRANCH  10  12
BRANCH   8  14
ATOM     14  C   UNL     1      -0.138   0.224  -1.042  0.00  0.00    +0.197 C 
BRANCH  14  15
ATOM     15  C   UNL     1       0.131  -0.824   0.007  0.00  0.00    +0.124 A 
ATOM     16  C   UNL     1      -0.795  -1.416   0.782  0.00  0.00    +0.046 A 
ATOM     17  C   UNL     1      -0.108  -2.329   1.616  0.00  0.00    +0.041 A 
ATOM     18  C   UNL     1       1.197  -2.234   1.305  0.00  0.00    +0.195 A 
ATOM     19  O   UNL     1       1.336  -1.321   0.330  0.00  0.00    -0.466 OA
ENDBRANCH  14  15
ENDBRANCH   8  14
ENDBRANCH   1   9
BRANCH   2  20
ATOM     20  C   UNL     1      -4.890   2.282   0.046  0.00  0.00    +0.016 C 
BRANCH  20  21
ATOM     21  N   UNL     1      -5.773   3.455  -0.091  0.00  0.00    +0.389 N 
ATOM     22  H   UNL     1      -5.618   3.891  -1.007  0.00  0.00    -0.084 HD
ATOM     23  H   UNL     1      -5.557   4.131   0.651  0.00  0.00    -0.084 HD
BRANCH  21  24
ATOM     24  C   UNL     1      -7.187   3.047   0.020  0.00  0.00    -0.043 C 
ATOM     25  C   UNL     1      -7.693   2.584  -1.347  0.00  0.00    -0.009 C 
BRANCH  24  26
ATOM     26  C   UNL     1      -8.006   4.223   0.487  0.00  0.00    -0.062 A 
ATOM     27  C   UNL     1      -7.736   5.489   0.003  0.00  0.00    +0.003 A 
ATOM     28  C   UNL     1      -8.490   6.567   0.427  0.00  0.00    +0.020 A 
ATOM     29  C   UNL     1      -9.508   6.380   1.345  0.00  0.00    +0.041 A 
ATOM     30  C   UNL     1      -9.774   5.113   1.834  0.00  0.00    +0.020 A 
ATOM     31  C   UNL     1      -9.023   4.035   1.405  0.00  0.00    +0.003 A 
ATOM     32 CL   UNL     1     -10.451   7.734   1.884  0.00  0.00    -0.084 Cl
ENDBRANCH  24  26
ENDBRANCH  21  24
ENDBRANCH  20  21
ENDBRANCH   2  20
TORSDOF 8
