REMARK  Name = ZINC04898587
REMARK  6 active torsions:
REMARK  status: ('A' for Active; 'I' for Inactive)
REMARK    1  A    between atoms: C_3  and  O_30
REMARK    2  A    between atoms: C_6  and  C_7
REMARK    3  A    between atoms: C_9  and  C_21
REMARK    4  A    between atoms: C_11  and  C_16
REMARK    5  A    between atoms: C_13  and  O_15
REMARK    6  A    between atoms: C_21  and  C_23
REMARK                            x       y       z     vdW  Elec       q    Type
REMARK                         _______ _______ _______ _____ _____    ______ ____
ROOT
ATOM      1  C   UNL     1      -1.347  -0.513   0.169  0.00  0.00    +0.120 C 
ATOM      2  C   UNL     1      -1.662  -1.212   1.500  0.00  0.00    +0.149 C 
ATOM      3  C   UNL     1      -2.798  -2.210   1.265  0.00  0.00    +0.284 C 
ATOM      4  N   UNL     1      -2.514  -3.047   0.105  0.00  0.00    -0.306 N 
ATOM      5  C   UNL     1      -1.676  -2.727  -0.822  0.00  0.00    +0.256 C 
ATOM      6  N   UNL     1      -0.960  -1.555  -0.795  0.00  0.00    -0.293 N 
ATOM      7  O   UNL     1      -4.015  -1.495   1.044  0.00  0.00    -0.194 OA
ATOM      8  H   UNL     1      -0.212  -1.418  -1.398  0.00  0.00    +0.151 HD
ATOM      9  H   UNL     1      -2.981  -3.893   0.027  0.00  0.00    +0.167 HD
ENDROOT
BRANCH   1  15
ATOM     10  C   UNL     1      -0.476   1.804   0.538  0.00  0.00    +0.009 A 
ATOM     11  C   UNL     1       0.564   2.697   0.711  0.00  0.00    +0.046 A 
ATOM     12  C   UNL     1       1.875   2.243   0.702  0.00  0.00    +0.117 A 
ATOM     13  C   UNL     1       2.139   0.893   0.519  0.00  0.00    +0.046 A 
ATOM     14  C   UNL     1       1.095   0.004   0.347  0.00  0.00    +0.009 A 
ATOM     15  C   UNL     1      -0.211   0.459   0.356  0.00  0.00    -0.026 A 
BRANCH  12  16
ATOM     16  O   UNL     1       2.900   3.120   0.871  0.00  0.00    -0.507 OA
ATOM     17  H   UNL     1       3.159   3.248   1.794  0.00  0.00    +0.292 HD
ENDBRANCH  12  16
ENDBRANCH   1  15
BRANCH   3  18
ATOM     18  C   UNL     1      -2.953  -3.097   2.502  0.00  0.00    +0.441 C 
ATOM     19  F   UNL     1      -3.127  -2.294   3.634  0.00  0.00    -0.166 F 
ATOM     20  F   UNL     1      -4.068  -3.927   2.343  0.00  0.00    -0.166 F 
ATOM     21  F   UNL     1      -1.806  -3.883   2.660  0.00  0.00    -0.166 F 
ENDBRANCH   3  18
BRANCH   5  22
ATOM     22  O   UNL     1      -1.499  -3.574  -1.860  0.00  0.00    -0.483 OA
ATOM     23  H   UNL     1      -2.037  -4.375  -1.810  0.00  0.00    +0.295 HD
ENDBRANCH   5  22
BRANCH   2  24
ATOM     24  C   UNL     1      -0.438  -1.941   1.992  0.00  0.00    +0.173 C 
ATOM     25  O   UNL     1       0.070  -2.803   1.308  0.00  0.00    -0.292 OA
BRANCH  24  26
ATOM     26  C   UNL     1       0.139  -1.607   3.303  0.00  0.00    +0.018 A 
ATOM     27  C   UNL     1      -0.382  -0.545   4.050  0.00  0.00    +0.014 A 
ATOM     28  C   UNL     1       0.164  -0.238   5.277  0.00  0.00    +0.039 A 
ATOM     29  C   UNL     1       1.227  -0.978   5.772  0.00  0.00    +0.123 A 
ATOM     30  C   UNL     1       1.748  -2.033   5.036  0.00  0.00    +0.039 A 
ATOM     31  C   UNL     1       1.208  -2.354   3.811  0.00  0.00    +0.014 A 
ATOM     32  F   UNL     1       1.758  -0.671   6.976  0.00  0.00    -0.205 F 
ENDBRANCH  24  26
ENDBRANCH   2  24
TORSDOF 6
