REMARK  Name = ZINC35958146
REMARK  17 active torsions:
REMARK  status: ('A' for Active; 'I' for Inactive)
REMARK    1  A    between atoms: C_1  and  C_2
REMARK    2  A    between atoms: C_3  and  C_33
REMARK    3  A    between atoms: C_4  and  C_23
REMARK    4  A    between atoms: C_6  and  C_10
REMARK    5  A    between atoms: C_7  and  C_9
REMARK    6  A    between atoms: C_10  and  O_12
REMARK    7  A    between atoms: O_12  and  C_13
REMARK    8  A    between atoms: C_13  and  C_14
REMARK    9  A    between atoms: C_14  and  N_15
REMARK   10  A    between atoms: C_16  and  O_18
REMARK   11  A    between atoms: O_18  and  C_19
REMARK   12  A    between atoms: C_19  and  C_20
REMARK   13  A    between atoms: C_19  and  C_21
REMARK   14  A    between atoms: C_19  and  C_22
REMARK   15  A    between atoms: C_28  and  C_29
REMARK   16  A    between atoms: C_33  and  O_35
REMARK   17  A    between atoms: O_35  and  C_36
REMARK                            x       y       z     vdW  Elec       q    Type
REMARK                         _______ _______ _______ _____ _____    ______ ____
ROOT
ATOM      1  C   UNL     1       0.485   1.364  -0.121  0.00  0.00    +0.061 C 
ATOM      2  C   UNL     1       0.299  -0.131  -0.147  0.00  0.00    +0.016 C 
ATOM      3  C   UNL     1      -0.942  -0.646  -0.114  0.00  0.00    +0.065 C 
ATOM      4  C   UNL     1      -1.175  -2.131  -0.128  0.00  0.00    +0.096 C 
ATOM      5  C   UNL     1       0.063  -2.859  -0.571  0.00  0.00    +0.065 C 
ATOM      6  C   UNL     1       1.264  -2.255  -0.586  0.00  0.00    +0.016 C 
ATOM      7  N   UNL     1       1.395  -0.948  -0.209  0.00  0.00    -0.321 N 
ATOM      8  C   UNL     1       2.479  -3.027  -1.029  0.00  0.00    +0.061 C 
ATOM      9  H   UNL     1       2.271  -0.599   0.019  0.00  0.00    +0.152 HD
ENDROOT
BRANCH   4  10
ATOM     10  C   UNL     1      -1.549  -2.588   1.258  0.00  0.00    -0.023 A 
ATOM     11  C   UNL     1      -0.748  -2.257   2.335  0.00  0.00    +0.005 A 
ATOM     12  C   UNL     1      -1.092  -2.677   3.606  0.00  0.00    +0.000 A 
ATOM     13  C   UNL     1      -2.237  -3.427   3.801  0.00  0.00    +0.001 A 
ATOM     14  C   UNL     1      -3.038  -3.756   2.724  0.00  0.00    +0.012 A 
ATOM     15  C   UNL     1      -2.697  -3.333   1.453  0.00  0.00    +0.059 A 
BRANCH  15  16
ATOM     16  C   UNL     1      -3.574  -3.688   0.280  0.00  0.00    +0.418 C 
ATOM     17  F   UNL     1      -4.629  -4.497   0.714  0.00  0.00    -0.166 F 
ATOM     18  F   UNL     1      -4.087  -2.518  -0.289  0.00  0.00    -0.166 F 
ATOM     19  F   UNL     1      -2.819  -4.378  -0.674  0.00  0.00    -0.166 F 
ENDBRANCH  15  16
ENDBRANCH   4  10
BRANCH   5  20
ATOM     20  C   UNL     1      -0.038  -4.208  -0.981  0.00  0.00    +0.338 C 
ATOM     21  O   UNL     1      -0.367  -4.475  -2.121  0.00  0.00    -0.245 OA
BRANCH  20  22
ATOM     22  O   UNL     1       0.231  -5.201  -0.106  0.00  0.00    -0.460 OA
BRANCH  22  23
ATOM     23  C   UNL     1       0.108  -6.541  -0.588  0.00  0.00    +0.251 C 
BRANCH  23  24
ATOM     24  C   UNL     1       0.450  -7.520   0.536  0.00  0.00    +0.148 C 
BRANCH  24  25
ATOM     25  N   UNL     1      -0.543  -7.401   1.607  0.00  0.00    -0.278 N 
ATOM     26  C   UNL     1      -0.444  -8.172   2.707  0.00  0.00    +0.401 C 
ATOM     27  O   UNL     1       0.469  -8.966   2.812  0.00  0.00    -0.226 OA
ATOM     28  H   UNL     1      -1.273  -6.767   1.523  0.00  0.00    +0.152 HD
BRANCH  26  29
ATOM     29  O   UNL     1      -1.357  -8.063   3.691  0.00  0.00    -0.445 OA
BRANCH  29  30
ATOM     30  C   UNL     1      -1.190  -8.911   4.828  0.00  0.00    +0.107 C 
ATOM     31  C   UNL     1       0.160  -8.621   5.487  0.00  0.00    +0.055 C 
ATOM     32  C   UNL     1      -2.315  -8.646   5.832  0.00  0.00    +0.055 C 
ATOM     33  C   UNL     1      -1.238 -10.374   4.385  0.00  0.00    +0.055 C 
ENDBRANCH  29  30
ENDBRANCH  26  29
ENDBRANCH  24  25
ENDBRANCH  23  24
ENDBRANCH  22  23
ENDBRANCH  20  22
ENDBRANCH   5  20
BRANCH   3  34
ATOM     34  C   UNL     1      -2.053   0.228  -0.063  0.00  0.00    +0.337 C 
ATOM     35  O   UNL     1      -1.879   1.432  -0.050  0.00  0.00    -0.245 OA
BRANCH  34  36
ATOM     36  O   UNL     1      -3.305  -0.274  -0.029  0.00  0.00    -0.465 OA
ATOM     37  C   UNL     1      -4.379   0.667   0.021  0.00  0.00    +0.280 C 
ENDBRANCH  34  36
ENDBRANCH   3  34
TORSDOF 11
