REMARK  Name = ZINC10246001
REMARK  6 active torsions:
REMARK  status: ('A' for Active; 'I' for Inactive)
REMARK    1  A    between atoms: C_8  and  C_12
REMARK    2  A    between atoms: N_14  and  C_15
REMARK    3  A    between atoms: C_23  and  C_24
REMARK    4  A    between atoms: N_26  and  C_27
REMARK    5  A    between atoms: C_30  and  O_33
REMARK    6  A    between atoms: O_33  and  C_34
REMARK                            x       y       z     vdW  Elec       q    Type
REMARK                         _______ _______ _______ _____ _____    ______ ____
ROOT
ATOM      1  C   UNL     1       5.962   6.093  -0.383  0.00  0.00    +0.092 A 
ATOM      2  C   UNL     1       6.140   7.507  -0.031  0.00  0.00    +0.042 A 
ATOM      3  C   UNL     1       5.272   8.526   0.361  0.00  0.00    +0.013 A 
ATOM      4  C   UNL     1       5.766   9.771   0.633  0.00  0.00    +0.001 A 
ATOM      5  C   UNL     1       7.126  10.025   0.527  0.00  0.00    +0.004 A 
ATOM      6  C   UNL     1       8.001   9.030   0.147  0.00  0.00    +0.047 A 
ATOM      7  C   UNL     1       7.520   7.756  -0.135  0.00  0.00    +0.138 A 
ATOM      8  O   UNL     1       8.118   6.612  -0.520  0.00  0.00    -0.448 OA
ATOM      9  C   UNL     1       7.213   5.619  -0.672  0.00  0.00    +0.212 A 
ENDROOT
BRANCH   1  12
ATOM     10  C   UNL     1       3.741   5.751   0.368  0.00  0.00    +0.255 C 
ATOM     11  O   UNL     1       3.881   6.658   1.167  0.00  0.00    -0.270 OA
ATOM     12  N   UNL     1       4.769   5.384  -0.422  0.00  0.00    -0.278 N 
ATOM     13  H   UNL     1       4.675   4.624  -1.018  0.00  0.00    +0.155 HD
BRANCH  10  21
ATOM     14  C   UNL     1      -0.416   1.713  -1.667  0.00  0.00    +0.001 A 
ATOM     15  C   UNL     1      -1.448   2.116  -0.831  0.00  0.00    +0.004 A 
ATOM     16  C   UNL     1      -1.265   3.151   0.062  0.00  0.00    +0.047 A 
ATOM     17  C   UNL     1      -0.034   3.793   0.139  0.00  0.00    +0.139 A 
ATOM     18  C   UNL     1       1.012   3.379  -0.705  0.00  0.00    +0.018 A 
ATOM     19  C   UNL     1       0.802   2.327  -1.610  0.00  0.00    +0.011 A 
ATOM     20  C   UNL     1       2.274   4.021  -0.639  0.00  0.00    +0.031 A 
ATOM     21  C   UNL     1       2.448   5.055   0.265  0.00  0.00    +0.122 A 
ATOM     22  C   UNL     1       1.320   5.444   1.120  0.00  0.00    +0.350 A 
ATOM     23  O   UNL     1       1.450   6.349   1.922  0.00  0.00    -0.244 OA
ATOM     24  O   UNL     1       0.144   4.802   1.019  0.00  0.00    -0.422 OA
ENDBRANCH  10  21
ENDBRANCH   1  12
BRANCH   9  25
ATOM     25  C   UNL     1       7.523   4.251  -1.081  0.00  0.00    +0.285 C 
ATOM     26  O   UNL     1       6.621   3.468  -1.318  0.00  0.00    -0.266 OA
ATOM     27  N   UNL     1       8.806   3.856  -1.195  0.00  0.00    -0.279 N 
ATOM     28  H   UNL     1       9.523   4.499  -1.082  0.00  0.00    +0.155 HD
BRANCH  27  29
ATOM     29  C   UNL     1       9.104   2.517  -1.476  0.00  0.00    +0.034 A 
ATOM     30  C   UNL     1       8.289   1.506  -0.984  0.00  0.00    +0.027 A 
ATOM     31  C   UNL     1       8.581   0.186  -1.266  0.00  0.00    +0.048 A 
ATOM     32  C   UNL     1       9.693  -0.131  -2.032  0.00  0.00    +0.130 A 
ATOM     33  C   UNL     1      10.511   0.878  -2.519  0.00  0.00    +0.048 A 
ATOM     34  C   UNL     1      10.217   2.199  -2.243  0.00  0.00    +0.027 A 
BRANCH  32  35
ATOM     35  O   UNL     1       9.983  -1.431  -2.305  0.00  0.00    -0.406 OA
BRANCH  35  36
ATOM     36  C   UNL     1       9.098  -2.418  -1.771  0.00  0.00    +0.575 C 
ATOM     37  F   UNL     1       7.808  -2.208  -2.269  0.00  0.00    -0.133 F 
ATOM     38  F   UNL     1       9.541  -3.692  -2.145  0.00  0.00    -0.133 F 
ATOM     39  F   UNL     1       9.080  -2.322  -0.375  0.00  0.00    -0.133 F 
ENDBRANCH  35  36
ENDBRANCH  32  35
ENDBRANCH  27  29
ENDBRANCH   9  25
TORSDOF 6
