REMARK  Name = ZINC63258925
REMARK  5 active torsions:
REMARK  status: ('A' for Active; 'I' for Inactive)
REMARK    1  A    between atoms: C_1  and  C_2
REMARK    2  A    between atoms: C_2  and  C_22
REMARK    3  A    between atoms: C_4  and  N_5
REMARK    4  A    between atoms: N_5  and  N_6
REMARK    5  A    between atoms: C_7  and  C_9
REMARK                            x       y       z     vdW  Elec       q    Type
REMARK                         _______ _______ _______ _____ _____    ______ ____
ROOT
ATOM      1  N   UNL     1       4.113   0.736  -2.369  0.00  0.00    -0.233 N 
ATOM      2  C   UNL     1       4.724   1.058  -3.527  0.00  0.00    +0.258 C 
ATOM      3  O   UNL     1       4.152   0.883  -4.586  0.00  0.00    -0.269 OA
ATOM      4  H   UNL     1       4.570   0.875  -1.525  0.00  0.00    +0.173 HD
ENDROOT
BRANCH   2   5
ATOM      5  C   UNL     1       6.079   1.619  -3.509  0.00  0.00    +0.044 C 
ATOM      6  C   UNL     1       6.835   2.003  -4.595  0.00  0.00    +0.008 A 
ATOM      7  C   UNL     1       6.590   1.992  -5.992  0.00  0.00    +0.010 A 
ATOM      8  C   UNL     1       7.532   2.438  -6.851  0.00  0.00    +0.001 A 
ATOM      9  C   UNL     1       8.776   2.926  -6.419  0.00  0.00    +0.002 A 
ATOM     10  C   UNL     1       9.108   2.980  -5.111  0.00  0.00    +0.026 A 
ATOM     11  C   UNL     1       8.139   2.513  -4.107  0.00  0.00    +0.043 A 
ATOM     12  N   UNL     1       8.195   2.452  -2.806  0.00  0.00    -0.380 N 
ATOM     13  C   UNL     1       6.935   1.903  -2.295  0.00  0.00    +0.154 C 
ATOM     14  H   UNL     1       8.949   2.730  -2.262  0.00  0.00    +0.160 HD
ENDBRANCH   2   5
BRANCH   1  15
ATOM     15  N   UNL     1       2.819   0.200  -2.386  0.00  0.00    -0.268 N 
ATOM     16  H   UNL     1       2.391  -0.008  -3.231  0.00  0.00    +0.170 HD
BRANCH  15  20
ATOM     17  C   UNL     1      -0.012   1.534   0.014  0.00  0.00    +0.011 C 
ATOM     18  C   UNL     1       0.003   0.004   0.003  0.00  0.00    -0.023 C 
ATOM     19  C   UNL     1       0.730  -0.493  -1.249  0.00  0.00    +0.059 C 
ATOM     20  C   UNL     1       2.162  -0.030  -1.215  0.00  0.00    +0.026 C 
ATOM     21  C   UNL     1       2.806   0.162  -0.044  0.00  0.00    +0.066 C 
ATOM     22  C   UNL     1       2.176  -0.054   1.186  0.00  0.00    +0.158 C 
ATOM     23  O   UNL     1       2.791   0.129   2.218  0.00  0.00    -0.293 OA
ATOM     24  C   UNL     1       0.742  -0.511   1.242  0.00  0.00    +0.085 C 
ATOM     25  C   UNL     1      -1.434  -0.522   0.008  0.00  0.00    +0.011 C 
ENDBRANCH  15  20
ENDBRANCH   1  15
TORSDOF 3
