REMARK  Name = ZINC40285571
REMARK  11 active torsions:
REMARK  status: ('A' for Active; 'I' for Inactive)
REMARK    1  A    between atoms: CD1_1  and  CG1_2
REMARK    2  A    between atoms: CG1_2  and  CB_3
REMARK    3  A    between atoms: CB_3  and  CG2_5
REMARK    4  A    between atoms: CB_3  and  CA_6
REMARK    5  A    between atoms: CA_6  and  C_8
REMARK    6  A    between atoms: CA_6  and  N_10
REMARK    7  A    between atoms: C_8  and  O_9
REMARK    8  A    between atoms: C_11  and  C_13
REMARK    9  A    between atoms: N_21  and  C_24
REMARK   10  A    between atoms: C_24  and  C_25
REMARK   11  A    between atoms: C_25  and  C_26
REMARK                            x       y       z     vdW  Elec       q    Type
REMARK                         _______ _______ _______ _____ _____    ______ ____
ROOT
ATOM      1  C   UNK A   0       2.030  -4.230  -4.066  0.00  0.00    +0.037 A 
ATOM      2  C   UNK A   0       2.892  -3.377  -4.756  0.00  0.00    +0.014 A 
ATOM      3  C   UNK A   0       3.544  -3.815  -5.896  0.00  0.00    +0.014 A 
ATOM      4  C   UNK A   0       3.340  -5.107  -6.355  0.00  0.00    +0.049 A 
ATOM      5  C   UNK A   0       2.470  -5.974  -5.662  0.00  0.00    +0.050 A 
ATOM      6  C   UNK A   0       1.823  -5.536  -4.519  0.00  0.00    +0.027 A 
ATOM      7  C   UNK A   0       2.487  -7.248  -6.411  0.00  0.00    +0.254 C 
ATOM      8  O   UNK A   0       1.859  -8.247  -6.125  0.00  0.00    -0.270 OA
ATOM      9  N   UNK A   0       3.314  -7.116  -7.464  0.00  0.00    -0.234 N 
ATOM     10  C   UNK A   0       3.856  -5.886  -7.503  0.00  0.00    +0.254 C 
ATOM     11  O   UNK A   0       4.638  -5.482  -8.340  0.00  0.00    -0.270 OA
ENDROOT
BRANCH   1  13
ATOM     12  N   ILE A   1       1.535  -2.493  -2.410  0.00  0.00    -0.306 N 
ATOM     13  C   UNK A   0       1.337  -3.753  -2.848  0.00  0.00    +0.244 C 
ATOM     14  O   UNK A   0       0.590  -4.496  -2.244  0.00  0.00    -0.270 OA
ATOM     15  H   ILE A   1       2.131  -1.900  -2.893  0.00  0.00    +0.149 HD
BRANCH  12  16
ATOM     16  CA  ILE A   1       0.849  -2.021  -1.205  0.00  0.00    +0.101 C 
BRANCH  16  17
ATOM     17  CB  ILE A   1       0.718  -0.497  -1.257  0.00  0.00    +0.008 C 
ATOM     18  CG2 ILE A   1      -0.089  -0.097  -2.493  0.00  0.00    +0.009 C 
BRANCH  17  20
ATOM     19  CD1 ILE A   1      -0.019   1.526   0.010  0.00  0.00    +0.004 C 
ATOM     20  CG1 ILE A   1       0.002  -0.004   0.002  0.00  0.00    +0.002 C 
ENDBRANCH  17  20
ENDBRANCH  16  17
BRANCH  16  21
ATOM     21  C   ILE A   1       1.657  -2.422   0.031  0.00  0.00    +0.178 C 
BRANCH  21  22
ATOM     22  O   ILE A   1       2.913  -1.742   0.020  0.00  0.00    -0.393 OA
ATOM     23  H   ILE A   1       3.479  -1.948   0.777  0.00  0.00    +0.209 HD
ENDBRANCH  21  22
ENDBRANCH  16  21
ENDBRANCH  12  16
ENDBRANCH   1  13
BRANCH   9  24
ATOM     24  C   UNK A   0       3.587  -8.174  -8.441  0.00  0.00    +0.122 C 
BRANCH  24  25
ATOM     25  C   UNK A   0       2.579  -8.080  -9.589  0.00  0.00    +0.056 C 
BRANCH  25  26
ATOM     26  C   UNK A   0       2.860  -9.168 -10.593  0.00  0.00    -0.021 A 
ATOM     27  C   UNK A   0       3.606  -9.056 -11.704  0.00  0.00    +0.087 A 
ATOM     28  N   UNK A   0       3.635 -10.251 -12.369  0.00  0.00    -0.360 N 
ATOM     29  H   UNK A   0       4.109 -10.416 -13.199  0.00  0.00    +0.165 HD
ATOM     30  C   UNK A   0       2.890 -11.185 -11.685  0.00  0.00    +0.047 A 
ATOM     31  C   UNK A   0       2.377 -10.550 -10.540  0.00  0.00    +0.003 A 
ATOM     32  C   UNK A   0       1.579 -11.264  -9.645  0.00  0.00    +0.010 A 
ATOM     33  C   UNK A   0       1.302 -12.581  -9.885  0.00  0.00    +0.001 A 
ATOM     34  C   UNK A   0       1.809 -13.214 -11.011  0.00  0.00    +0.002 A 
ATOM     35  C   UNK A   0       2.591 -12.525 -11.912  0.00  0.00    +0.026 A 
ENDBRANCH  25  26
ENDBRANCH  24  25
ENDBRANCH   9  24
TORSDOF 9
