REMARK  Name = ZINC50866209
REMARK  4 active torsions:
REMARK  status: ('A' for Active; 'I' for Inactive)
REMARK    1  A    between atoms: C_1  and  C_2
REMARK    2  A    between atoms: C_4  and  C_18
REMARK    3  A    between atoms: C_6  and  C_8
REMARK    4  A    between atoms: C_12  and  N_14
REMARK                            x       y       z     vdW  Elec       q    Type
REMARK                         _______ _______ _______ _____ _____    ______ ____
ROOT
ATOM      1  C   UNL     1       0.053  -2.845   2.463  0.00  0.00    +0.162 A 
ATOM      2  N   UNL     1       0.044  -2.176   3.607  0.00  0.00    -0.232 NA
ATOM      3  C   UNL     1       0.058  -2.812   4.769  0.00  0.00    +0.050 A 
ATOM      4  C   UNL     1       0.082  -4.193   4.780  0.00  0.00    +0.013 A 
ATOM      5  C   UNL     1       0.090  -4.872   3.560  0.00  0.00    +0.123 A 
ATOM      6  N   UNL     1       0.070  -4.171   2.432  0.00  0.00    -0.213 NA
ATOM      7  C   UNL     1       0.095  -4.697   6.204  0.00  0.00    +0.041 C 
ATOM      8  C   UNL     1       0.512  -3.480   7.059  0.00  0.00    +0.011 C 
ATOM      9  C   UNL     1       0.052  -2.291   6.189  0.00  0.00    +0.056 C 
ENDROOT
BRANCH   1  15
ATOM     10  C   UNL     1      -0.018   1.503   0.010  0.00  0.00    +0.044 C 
ATOM     11  C   UNL     1       0.002  -0.004   0.002  0.00  0.00    -0.050 A 
ATOM     12  C   UNL     1       0.006  -0.688  -1.200  0.00  0.00    +0.006 A 
ATOM     13  C   UNL     1       0.025  -2.071  -1.216  0.00  0.00    -0.050 A 
ATOM     14  C   UNL     1       0.040  -2.776  -0.030  0.00  0.00    +0.015 A 
ATOM     15  C   UNL     1       0.036  -2.093   1.185  0.00  0.00    +0.020 A 
ATOM     16  C   UNL     1       0.023  -0.699   1.194  0.00  0.00    +0.015 A 
ATOM     17  C   UNL     1       0.028  -2.809  -2.530  0.00  0.00    +0.044 C 
ENDBRANCH   1  15
BRANCH   5  18
ATOM     18  N   UNL     1       0.115  -6.257   3.526  0.00  0.00    -0.343 N 
ATOM     19  H   UNL     1       0.126  -6.762   4.354  0.00  0.00    +0.144 HD
ATOM     20  H   UNL     1       0.121  -6.722   2.675  0.00  0.00    +0.144 HD
ENDBRANCH   5  18
TORSDOF 2
