REMARK  Name = ZINC45314494
REMARK  9 active torsions:
REMARK  status: ('A' for Active; 'I' for Inactive)
REMARK    1  A    between atoms: C_1  and  C_2
REMARK    2  A    between atoms: C_2  and  O_3
REMARK    3  A    between atoms: O_3  and  C_4
REMARK    4  A    between atoms: C_11  and  C_18
REMARK    5  A    between atoms: C_13  and  O_14
REMARK    6  A    between atoms: C_18  and  N_19
REMARK    7  A    between atoms: C_23  and  C_25
REMARK    8  A    between atoms: C_28  and  O_31
REMARK    9  A    between atoms: O_31  and  C_32
REMARK                            x       y       z     vdW  Elec       q    Type
REMARK                         _______ _______ _______ _____ _____    ______ ____
ROOT
ATOM      1  C   UNL     1      -2.085  -9.782   1.302  0.00  0.00    +0.405 C 
ATOM      2  O   UNL     1      -2.164  -8.568   1.215  0.00  0.00    -0.226 OA
ATOM      3  N   UNL     1      -1.401 -10.468   0.398  0.00  0.00    -0.251 N 
ATOM      4  C   UNL     1      -0.663  -9.813  -0.538  0.00  0.00    +0.040 A 
ATOM      5  C   UNL     1      -0.165 -10.513  -1.652  0.00  0.00    +0.024 A 
ATOM      6  C   UNL     1       0.573  -9.870  -2.593  0.00  0.00    +0.013 A 
ATOM      7  C   UNL     1       0.843  -8.496  -2.456  0.00  0.00    +0.019 A 
ATOM      8  C   UNL     1       1.607  -7.811  -3.423  0.00  0.00    -0.047 A 
ATOM      9  C   UNL     1       1.843  -6.462  -3.242  0.00  0.00    +0.090 A 
ATOM     10  C   UNL     1       1.331  -5.814  -2.127  0.00  0.00    +0.285 A 
ATOM     11  O   UNL     1       0.607  -6.467  -1.212  0.00  0.00    -0.425 OA
ATOM     12  C   UNL     1       0.347  -7.785  -1.340  0.00  0.00    +0.141 A 
ATOM     13  C   UNL     1      -0.408  -8.448  -0.390  0.00  0.00    +0.070 A 
ATOM     14  H   UNL     1      -1.426 -11.438   0.404  0.00  0.00    +0.158 HD
ENDROOT
BRANCH  10  15
ATOM     15  O   UNL     1       1.569  -4.498  -1.963  0.00  0.00    -0.480 OA
ATOM     16  H   UNL     1       1.177  -4.125  -1.162  0.00  0.00    +0.295 HD
ENDBRANCH  10  15
BRANCH   1  17
ATOM     17  O   UNL     1      -2.697 -10.427   2.320  0.00  0.00    -0.450 OA
BRANCH  17  19
ATOM     18  C   UNL     1      -4.036 -10.524   4.330  0.00  0.00    +0.048 C 
ATOM     19  C   UNL     1      -3.417  -9.625   3.258  0.00  0.00    +0.230 C 
ENDBRANCH  17  19
ENDBRANCH   1  17
BRANCH   8  20
ATOM     20  C   UNL     1       2.154  -8.533  -4.627  0.00  0.00    -0.041 C 
BRANCH  20  21
ATOM     21  N   UNL     1       3.539  -8.945  -4.363  0.00  0.00    +0.387 N 
ATOM     22  C   UNL     1       4.396  -7.751  -4.241  0.00  0.00    -0.078 C 
ATOM     23  C   UNL     1       5.487  -7.859  -5.327  0.00  0.00    -0.020 C 
ATOM     24  C   UNL     1       5.528  -9.380  -5.632  0.00  0.00    -0.013 C 
ATOM     25  C   UNL     1       4.035  -9.768  -5.486  0.00  0.00    -0.037 C 
ATOM     26  H   UNL     1       3.579  -9.478  -3.508  0.00  0.00    -0.080 HD
BRANCH  25  27
ATOM     27  C   UNL     1       3.904 -11.234  -5.160  0.00  0.00    -0.061 A 
ATOM     28  C   UNL     1       4.186 -11.685  -3.884  0.00  0.00    +0.005 A 
ATOM     29  C   UNL     1       4.066 -13.028  -3.583  0.00  0.00    +0.046 A 
ATOM     30  C   UNL     1       3.663 -13.924  -4.562  0.00  0.00    +0.120 A 
ATOM     31  C   UNL     1       3.381 -13.469  -5.842  0.00  0.00    +0.046 A 
ATOM     32  C   UNL     1       3.497 -12.124  -6.137  0.00  0.00    +0.005 A 
BRANCH  30  33
ATOM     33  O   UNL     1       3.546 -15.246  -4.269  0.00  0.00    -0.495 OA
ATOM     34  C   UNL     1       3.126 -16.110  -5.326  0.00  0.00    +0.277 C 
ENDBRANCH  30  33
ENDBRANCH  25  27
ENDBRANCH  20  21
ENDBRANCH   8  20
TORSDOF 7
