REMARK  Name = ZINC21762273
REMARK  4 active torsions:
REMARK  status: ('A' for Active; 'I' for Inactive)
REMARK    1  A    between atoms: C_12  and  N_17
REMARK    2  A    between atoms: C_18  and  C_20
REMARK    3  A    between atoms: C_20  and  S_21
REMARK    4  A    between atoms: S_21  and  C_22
REMARK                            x       y       z     vdW  Elec       q    Type
REMARK                         _______ _______ _______ _____ _____    ______ ____
ROOT
ATOM      1  N   UNL     1      -2.599   9.513   0.069  0.00  0.00    -0.285 N 
ATOM      2  C   UNL     1      -1.648  10.200   0.733  0.00  0.00    +0.227 C 
ATOM      3  O   UNL     1      -0.723   9.610   1.249  0.00  0.00    -0.275 OA
ATOM      4  H   UNL     1      -3.397  10.052  -0.462  0.00  0.00    +0.155 HD
ENDROOT
BRANCH   1  16
ATOM      5  C   UNL     1       0.017   1.086  -0.051  0.00  0.00    +0.001 A 
ATOM      6  C   UNL     1       1.205   1.793  -0.062  0.00  0.00    +0.001 A 
ATOM      7  C   UNL     1       1.197   3.177  -0.048  0.00  0.00    +0.012 A 
ATOM      8  C   UNL     1      -0.014   3.863  -0.022  0.00  0.00    +0.033 A 
ATOM      9  C   UNL     1      -1.222   3.144  -0.010  0.00  0.00    +0.033 A 
ATOM     10  C   UNL     1      -1.196   1.752  -0.030  0.00  0.00    +0.012 A 
ATOM     11  C   UNL     1      -2.513   3.864   0.017  0.00  0.00    +0.195 C 
ATOM     12  O   UNL     1      -3.556   3.241   0.029  0.00  0.00    -0.287 OA
ATOM     13  C   UNL     1      -2.533   5.339   0.032  0.00  0.00    +0.033 A 
ATOM     14  C   UNL     1      -3.748   6.023   0.056  0.00  0.00    +0.014 A 
ATOM     15  C   UNL     1      -3.763   7.403   0.069  0.00  0.00    +0.024 A 
ATOM     16  C   UNL     1      -2.572   8.119   0.057  0.00  0.00    +0.034 A 
ATOM     17  C   UNL     1      -1.351   7.450   0.032  0.00  0.00    +0.035 A 
ATOM     18  C   UNL     1      -1.324   6.061   0.020  0.00  0.00    +0.035 A 
ATOM     19  C   UNL     1      -0.033   5.341  -0.007  0.00  0.00    +0.195 C 
ATOM     20  O   UNL     1       1.010   5.963  -0.017  0.00  0.00    -0.287 OA
ENDBRANCH   1  16
BRANCH   2  21
ATOM     21  C   UNL     1      -1.735  11.701   0.834  0.00  0.00    +0.173 C 
BRANCH  21  22
ATOM     22  S   UNL     1      -0.322  12.324   1.779  0.00  0.00    -0.077 S 
BRANCH  22  23
ATOM     23  C   UNL     1      -0.668  14.052   1.742  0.00  0.00    +0.191 A 
ATOM     24  N   UNL     1       0.161  14.895   2.345  0.00  0.00    -0.207 NA
ATOM     25  C   UNL     1      -0.046  16.201   2.351  0.00  0.00    +0.129 A 
ATOM     26  C   UNL     1      -1.192  16.727   1.691  0.00  0.00    +0.047 A 
ATOM     27  C   UNL     1      -1.633  18.105   1.558  0.00  0.00    +0.021 A 
ATOM     28  C   UNL     1      -2.761  18.369   0.882  0.00  0.00    +0.048 A 
ATOM     29  S   UNL     1      -3.323  16.758   0.365  0.00  0.00    -0.077 S 
ATOM     30  C   UNL     1      -2.028  15.774   1.071  0.00  0.00    +0.114 A 
ATOM     31  N   UNL     1      -1.748  14.486   1.107  0.00  0.00    -0.215 NA
ATOM     32  N   UNL     1       0.842  17.047   2.991  0.00  0.00    -0.343 N 
ATOM     33  H   UNL     1       0.664  18.132   2.991  0.00  0.00    +0.144 HD
ATOM     34  H   UNL     1       1.726  16.634   3.499  0.00  0.00    +0.144 HD
ENDBRANCH  22  23
ENDBRANCH  21  22
ENDBRANCH   2  21
TORSDOF 4
