REMARK  Name = ZINC36555922
REMARK  16 active torsions:
REMARK  status: ('A' for Active; 'I' for Inactive)
REMARK    1  A    between atoms: C_1  and  C_2
REMARK    2  A    between atoms: C_5  and  C_7
REMARK    3  A    between atoms: C_7  and  N_8
REMARK    4  A    between atoms: N_8  and  C_9
REMARK    5  A    between atoms: C_9  and  C_11
REMARK    6  A    between atoms: C_9  and  C_20
REMARK    7  A    between atoms: C_14  and  N_17
REMARK    8  A    between atoms: N_22  and  C_23
REMARK    9  A    between atoms: C_23  and  C_24
REMARK   10  A    between atoms: C_23  and  C_25
REMARK   11  A    between atoms: C_23  and  C_26
REMARK   12  A    between atoms: C_26  and  C_27
REMARK   13  A    between atoms: C_27  and  C_28
REMARK   14  A    between atoms: C_27  and  C_29
REMARK   15  A    between atoms: C_27  and  C_30
REMARK   16  A    between atoms: C_31  and  C_33
REMARK                            x       y       z     vdW  Elec       q    Type
REMARK                         _______ _______ _______ _____ _____    ______ ____
ROOT
ATOM      1  C   UNL     1       6.068  -4.404  -3.307  0.00  0.00    +0.193 C 
ENDROOT
BRANCH   1   2
ATOM      2  C   UNL     1       6.036  -3.443  -4.468  0.00  0.00    -0.018 A 
ATOM      3  C   UNL     1       4.861  -2.792  -4.793  0.00  0.00    +0.008 A 
ATOM      4  C   UNL     1       4.832  -1.910  -5.858  0.00  0.00    +0.033 A 
ATOM      5  C   UNL     1       5.977  -1.681  -6.597  0.00  0.00    +0.126 A 
ATOM      6  C   UNL     1       7.152  -2.332  -6.271  0.00  0.00    +0.033 A 
ATOM      7  C   UNL     1       7.183  -3.210  -5.204  0.00  0.00    +0.008 A 
BRANCH   5   8
ATOM      8  N   UNL     1       5.945  -0.738  -7.738  0.00  0.00    +0.056 N 
ATOM      9  O   UNL     1       4.917  -0.169  -8.023  0.00  0.00    -0.126 OA
ATOM     10  O   UNL     1       6.947  -0.537  -8.384  0.00  0.00    -0.126 OA
ENDBRANCH   5   8
ENDBRANCH   1   2
BRANCH   1  11
ATOM     11  C   UNL     1       5.426  -3.762  -2.105  0.00  0.00    +0.239 C 
ATOM     12  O   UNL     1       4.451  -4.271  -1.594  0.00  0.00    -0.273 OA
ATOM     13  N   UNL     1       5.935  -2.621  -1.598  0.00  0.00    -0.308 N 
ATOM     14  H   UNL     1       6.714  -2.214  -2.007  0.00  0.00    +0.149 HD
BRANCH  13  15
ATOM     15  C   UNL     1       5.310  -1.996  -0.430  0.00  0.00    +0.030 C 
ATOM     16  C   UNL     1       3.994  -1.336  -0.847  0.00  0.00    +0.031 C 
ATOM     17  C   UNL     1       5.032  -3.063   0.631  0.00  0.00    +0.031 C 
BRANCH  15  18
ATOM     18  C   UNL     1       6.252  -0.937   0.147  0.00  0.00    +0.031 C 
BRANCH  18  19
ATOM     19  C   UNL     1       7.684  -1.477   0.153  0.00  0.00    -0.036 C 
ATOM     20  C   UNL     1       8.350  -1.170  -1.190  0.00  0.00    +0.010 C 
ATOM     21  C   UNL     1       8.475  -0.809   1.279  0.00  0.00    +0.010 C 
ATOM     22  C   UNL     1       7.657  -2.990   0.375  0.00  0.00    +0.010 C 
ENDBRANCH  18  19
ENDBRANCH  15  18
ENDBRANCH  13  15
ENDBRANCH   1  11
BRANCH   1  23
ATOM     23  N   UNL     1       5.335  -5.622  -3.661  0.00  0.00    -0.278 N 
ATOM     24  C   UNL     1       5.892  -6.830  -3.449  0.00  0.00    +0.220 C 
ATOM     25  O   UNL     1       6.976  -6.912  -2.910  0.00  0.00    -0.275 OA
BRANCH  24  26
ATOM     26  C   UNL     1       5.169  -8.080  -3.881  0.00  0.00    +0.075 C 
ATOM     27  C   UNL     1       4.859  -8.940  -2.653  0.00  0.00    +0.013 C 
ATOM     28  C   UNL     1       4.125 -10.208  -3.092  0.00  0.00    +0.001 C 
ATOM     29  C   UNL     1       5.008 -11.000  -4.059  0.00  0.00    +0.000 C 
ATOM     30  C   UNL     1       5.319 -10.141  -5.286  0.00  0.00    +0.001 C 
ATOM     31  C   UNL     1       6.052  -8.872  -4.847  0.00  0.00    +0.013 C 
ENDBRANCH  24  26
BRANCH  23  32
ATOM     32  C   UNL     1       3.994  -5.526  -4.245  0.00  0.00    +0.183 C 
BRANCH  32  37
ATOM     33  C   UNL     1       5.036  -4.395  -9.049  0.00  0.00    +0.086 C 
ATOM     34  C   UNL     1       4.545  -5.139  -7.834  0.00  0.00    +0.102 A 
ATOM     35  C   UNL     1       3.944  -6.343  -7.839  0.00  0.00    +0.045 A 
ATOM     36  C   UNL     1       3.653  -6.660  -6.492  0.00  0.00    +0.046 A 
ATOM     37  C   UNL     1       4.092  -5.631  -5.745  0.00  0.00    +0.122 A 
ATOM     38  O   UNL     1       4.636  -4.715  -6.563  0.00  0.00    -0.463 OA
ENDBRANCH  32  37
ENDBRANCH  23  32
ENDBRANCH   1  23
TORSDOF 10
