REMARK  Name = ZINC24537794
REMARK  7 active torsions:
REMARK  status: ('A' for Active; 'I' for Inactive)
REMARK    1  A    between atoms: C_1  and  C_2
REMARK    2  A    between atoms: C_2  and  C_4
REMARK    3  A    between atoms: C_2  and  N_13
REMARK    4  A    between atoms: C_8  and  N_10
REMARK    5  A    between atoms: N_13  and  C_14
REMARK    6  A    between atoms: C_15  and  C_17
REMARK    7  A    between atoms: C_19  and  C_23
REMARK                            x       y       z     vdW  Elec       q    Type
REMARK                         _______ _______ _______ _____ _____    ______ ____
ROOT
ATOM      1  N   UNL     1      -1.273   5.944   0.938  0.00  0.00    -0.293 N 
ATOM      2  C   UNL     1      -2.714   5.699   0.843  0.00  0.00    +0.133 C 
ATOM      3  C   UNL     1      -0.761   6.536   2.035  0.00  0.00    +0.265 C 
ATOM      4  O   UNL     1       0.419   6.828   2.074  0.00  0.00    -0.268 OA
ENDROOT
BRANCH   3   5
ATOM      5  C   UNL     1      -1.630   6.829   3.187  0.00  0.00    +0.121 A 
ATOM      6  C   UNL     1      -1.287   7.535   4.324  0.00  0.00    +0.062 A 
ATOM      7  C   UNL     1      -2.447   7.547   5.118  0.00  0.00    +0.093 A 
ATOM      8  N   UNL     1      -3.379   6.880   4.470  0.00  0.00    -0.173 NA
ATOM      9  N   UNL     1      -2.934   6.451   3.345  0.00  0.00    -0.272 N 
ATOM     10  H   UNL     1      -3.436   5.865   2.561  0.00  0.00    +0.189 HD
BRANCH   7  11
ATOM     11  C   UNL     1      -2.593   8.189   6.449  0.00  0.00    +0.002 A 
ATOM     12  C   UNL     1      -1.516   8.861   7.022  0.00  0.00    +0.011 A 
ATOM     13  C   UNL     1      -1.658   9.460   8.258  0.00  0.00    +0.016 A 
ATOM     14  C   UNL     1      -2.864   9.384   8.931  0.00  0.00    +0.018 A 
ATOM     15  C   UNL     1      -3.936   8.713   8.368  0.00  0.00    +0.016 A 
ATOM     16  C   UNL     1      -3.806   8.115   7.131  0.00  0.00    +0.011 A 
ATOM     17 BR   UNL     1      -3.050  10.201  10.627  0.00  0.00    -0.050 Br
ENDBRANCH   7  11
ENDBRANCH   3   5
BRANCH   1  19
ATOM     18  C   UNL     1      -0.901   6.143  -1.471  0.00  0.00    +0.033 C 
ATOM     19  C   UNL     1      -0.388   5.545  -0.159  0.00  0.00    +0.103 C 
BRANCH  19  20
ATOM     20  C   UNL     1      -0.367   4.042  -0.267  0.00  0.00    -0.025 A 
ATOM     21  C   UNL     1      -1.550   3.343  -0.420  0.00  0.00    +0.005 A 
ATOM     22  C   UNL     1      -1.530   1.965  -0.523  0.00  0.00    +0.003 A 
ATOM     23  C   UNL     1      -0.328   1.285  -0.463  0.00  0.00    +0.033 A 
ATOM     24  C   UNL     1       0.854   1.983  -0.311  0.00  0.00    +0.127 A 
ATOM     25  C   UNL     1       0.835   3.362  -0.212  0.00  0.00    +0.038 A 
BRANCH  24  26
ATOM     26  N   UNL     1       2.142   1.255  -0.253  0.00  0.00    +0.056 N 
ATOM     27  O   UNL     1       2.159   0.040  -0.339  0.00  0.00    -0.126 OA
ATOM     28  O   UNL     1       3.184   1.871  -0.118  0.00  0.00    -0.126 OA
ENDBRANCH  24  26
ENDBRANCH  19  20
ENDBRANCH   1  19
TORSDOF 5
