REMARK  Name = ZINC63529045
REMARK  8 active torsions:
REMARK  status: ('A' for Active; 'I' for Inactive)
REMARK    1  A    between atoms: C_4  and  N_7
REMARK    2  A    between atoms: C_8  and  N_35
REMARK    3  A    between atoms: C_10  and  C_14
REMARK    4  A    between atoms: C_14  and  N_15
REMARK    5  A    between atoms: C_18  and  C_21
REMARK    6  A    between atoms: N_23  and  C_24
REMARK    7  A    between atoms: C_24  and  C_25
REMARK    8  A    between atoms: C_25  and  C_26
REMARK                            x       y       z     vdW  Elec       q    Type
REMARK                         _______ _______ _______ _____ _____    ______ ____
ROOT
ATOM      1  N   UNL     1       7.048  -3.863   1.024  0.00  0.00    +0.380 N 
ATOM      2  C   UNL     1       7.794  -2.756   1.635  0.00  0.00    -0.078 C 
ATOM      3  C   UNL     1       9.290  -3.075   1.620  0.00  0.00    -0.006 C 
ATOM      4  C   UNL     1       9.541  -4.361   2.413  0.00  0.00    +0.071 C 
ATOM      5  C   UNL     1       8.701  -5.492   1.811  0.00  0.00    -0.006 C 
ATOM      6  C   UNL     1       7.226  -5.083   1.820  0.00  0.00    -0.078 C 
ATOM      7  H   UNL     1       7.391  -4.020   0.088  0.00  0.00    -0.082 HD
ENDROOT
BRANCH   4   8
ATOM      8  C   UNL     1      11.002  -4.724   2.336  0.00  0.00    +0.216 C 
ATOM      9  O   UNL     1      11.768  -4.023   1.710  0.00  0.00    -0.276 OA
ATOM     10  N   UNL     1      11.456  -5.827   2.964  0.00  0.00    -0.315 N 
ATOM     11  H   UNL     1      10.843  -6.387   3.465  0.00  0.00    +0.149 HD
BRANCH  10  12
ATOM     12  C   UNL     1      12.876  -6.179   2.890  0.00  0.00    +0.108 C 
BRANCH  12  13
ATOM     13  C   UNL     1      13.125  -7.464   3.682  0.00  0.00    +0.052 C 
BRANCH  13  14
ATOM     14  C   UNL     1      14.586  -7.827   3.605  0.00  0.00    -0.040 C 
ATOM     15  C   UNL     1      15.548  -7.520   4.505  0.00  0.00    -0.001 A 
ATOM     16  C   UNL     1      15.523  -6.785   5.775  0.00  0.00    +0.010 A 
ATOM     17  C   UNL     1      16.674  -6.637   6.470  0.00  0.00    +0.001 A 
ATOM     18  C   UNL     1      17.887  -7.167   6.008  0.00  0.00    +0.002 A 
ATOM     19  C   UNL     1      17.989  -7.854   4.851  0.00  0.00    +0.026 A 
ATOM     20  C   UNL     1      16.841  -8.070   4.040  0.00  0.00    +0.043 A 
ATOM     21  N   UNL     1      16.684  -8.692   2.896  0.00  0.00    -0.380 N 
ATOM     22  C   UNL     1      15.271  -8.612   2.510  0.00  0.00    +0.144 C 
ATOM     23  H   UNL     1      17.385  -9.135   2.392  0.00  0.00    +0.160 HD
ENDBRANCH  13  14
ENDBRANCH  12  13
ENDBRANCH  10  12
ENDBRANCH   4   8
BRANCH   1  24
ATOM     24  C   UNL     1       5.621  -3.519   0.971  0.00  0.00    -0.070 C 
BRANCH  24  27
ATOM     25  N   UNL     1       2.898  -4.604  -1.189  0.00  0.00    -0.244 N 
ATOM     26  C   UNL     1       3.344  -4.315   0.184  0.00  0.00    +0.192 C 
ATOM     27  C   UNL     1       4.865  -4.597   0.191  0.00  0.00    +0.030 C 
ATOM     28  C   UNL     1       5.191  -4.523  -1.326  0.00  0.00    +0.107 C 
ATOM     29  N   UNL     1       3.950  -5.080  -1.929  0.00  0.00    -0.238 NA
ATOM     30  H   UNL     1       3.966  -6.088  -1.928  0.00  0.00    +0.144 HD
BRANCH  25  34
ATOM     31  C   UNL     1      -0.980  -4.074  -2.609  0.00  0.00    +0.000 A 
ATOM     32  C   UNL     1       0.003  -4.562  -3.451  0.00  0.00    +0.002 A 
ATOM     33  C   UNL     1       1.290  -4.739  -2.983  0.00  0.00    +0.024 A 
ATOM     34  C   UNL     1       1.597  -4.426  -1.665  0.00  0.00    +0.047 A 
ATOM     35  C   UNL     1       0.608  -3.937  -0.822  0.00  0.00    +0.024 A 
ATOM     36  C   UNL     1      -0.677  -3.762  -1.296  0.00  0.00    +0.002 A 
ENDBRANCH  25  34
BRANCH  26  37
ATOM     37  N   UNL     1       2.659  -5.195   1.135  0.00  0.00    -0.333 N 
ATOM     38  C   UNL     1       2.370  -6.511   0.932  0.00  0.00    +0.087 A 
ATOM     39  C   UNL     1       1.738  -6.978   2.029  0.00  0.00    +0.019 A 
ATOM     40  C   UNL     1       1.634  -5.910   2.942  0.00  0.00    +0.019 A 
ATOM     41  C   UNL     1       2.210  -4.833   2.370  0.00  0.00    +0.087 A 
ENDBRANCH  26  37
ENDBRANCH  24  27
ENDBRANCH   1  24
TORSDOF 8
