REMARK  Name = ZINC49489765
REMARK  10 active torsions:
REMARK  status: ('A' for Active; 'I' for Inactive)
REMARK    1  A    between atoms: C_1  and  N_2
REMARK    2  A    between atoms: N_2  and  C_3
REMARK    3  A    between atoms: N_2  and  C_4
REMARK    4  A    between atoms: C_4  and  C_6
REMARK    5  A    between atoms: C_4  and  C_31
REMARK    6  A    between atoms: C_6  and  N_7
REMARK    7  A    between atoms: C_8  and  C_10
REMARK    8  A    between atoms: N_12  and  C_13
REMARK    9  A    between atoms: N_19  and  S_23
REMARK   10  A    between atoms: S_23  and  C_26
REMARK                            x       y       z     vdW  Elec       q    Type
REMARK                         _______ _______ _______ _____ _____    ______ ____
ROOT
ATOM      1  C   UNL     1      -1.641  -4.402  -0.629  0.00  0.00    +0.303 C 
ATOM      2  O   UNL     1      -2.748  -3.937  -0.453  0.00  0.00    -0.265 OA
ATOM      3  N   UNL     1      -1.504  -5.663  -1.084  0.00  0.00    -0.278 N 
ATOM      4  H   UNL     1      -0.622  -6.059  -1.157  0.00  0.00    +0.155 HD
ENDROOT
BRANCH   3   5
ATOM      5  C   UNL     1      -2.633  -6.399  -1.451  0.00  0.00    +0.036 A 
ATOM      6  C   UNL     1      -3.746  -5.755  -1.979  0.00  0.00    +0.024 A 
ATOM      7  C   UNL     1      -4.861  -6.482  -2.340  0.00  0.00    +0.007 A 
ATOM      8  C   UNL     1      -4.882  -7.859  -2.181  0.00  0.00    -0.025 A 
ATOM      9  C   UNL     1      -3.772  -8.507  -1.658  0.00  0.00    +0.056 A 
ATOM     10  C   UNL     1      -2.646  -7.778  -1.296  0.00  0.00    +0.048 A 
ATOM     11  N   UNL     1      -3.764  -9.897  -1.495  0.00  0.00    -0.202 N 
ATOM     12  C   UNL     1      -5.032 -10.632  -1.596  0.00  0.00    +0.132 C 
ATOM     13  C   UNL     1      -5.790 -10.092  -2.816  0.00  0.00    +0.025 C 
ATOM     14  C   UNL     1      -6.119  -8.618  -2.581  0.00  0.00    +0.038 C 
BRANCH  11  15
ATOM     15  S   UNL     1      -2.347 -10.700  -1.195  0.00  0.00    +0.081 S 
ATOM     16  O   UNL     1      -2.599 -12.076  -1.445  0.00  0.00    -0.149 OA
ATOM     17  O   UNL     1      -1.322  -9.979  -1.864  0.00  0.00    -0.149 OA
BRANCH  15  18
ATOM     18  C   UNL     1      -2.021 -10.553   0.531  0.00  0.00    +0.146 A 
ATOM     19  C   UNL     1      -2.398 -11.372   1.543  0.00  0.00    +0.036 A 
ATOM     20  C   UNL     1      -2.024 -11.056   2.836  0.00  0.00    +0.010 A 
ATOM     21  C   UNL     1      -1.290  -9.937   3.052  0.00  0.00    +0.047 A 
ATOM     22  S   UNL     1      -1.101  -9.293   1.398  0.00  0.00    -0.077 S 
ENDBRANCH  15  18
ENDBRANCH  11  15
ENDBRANCH   3   5
BRANCH   1  24
ATOM     23  N   UNL     1      -0.567  -2.316   0.116  0.00  0.00    -0.309 N 
ATOM     24  C   UNL     1      -0.430  -3.577  -0.340  0.00  0.00    +0.299 C 
ATOM     25  O   UNL     1       0.677  -4.042  -0.515  0.00  0.00    -0.265 OA
ATOM     26  H   UNL     1      -1.452  -1.944   0.256  0.00  0.00    +0.149 HD
BRANCH  23  27
ATOM     27  C   UNL     1       0.621  -1.506   0.399  0.00  0.00    +0.097 C 
BRANCH  27  28
ATOM     28  C   UNL     1       0.192  -0.087   0.777  0.00  0.00    +0.016 C 
BRANCH  28  29
ATOM     29  C   UNL     1      -0.610  -0.127   2.052  0.00  0.00    +0.093 A 
ATOM     30  C   UNL     1      -0.149   0.166   3.281  0.00  0.00    +0.043 A 
ATOM     31  C   UNL     1      -1.231  -0.001   4.175  0.00  0.00    +0.041 A 
ATOM     32  C   UNL     1      -2.289  -0.386   3.439  0.00  0.00    +0.195 A 
ATOM     33  O   UNL     1      -1.908  -0.455   2.153  0.00  0.00    -0.469 OA
ENDBRANCH  28  29
BRANCH  28  35
ATOM     34  C   UNL     1      -1.050   1.838   0.067  0.00  0.00    -0.096 C 
ATOM     35  N   UNL     1      -0.629   0.480  -0.301  0.00  0.00    +0.384 N 
ATOM     36  C   UNL     1       0.157   0.530  -1.541  0.00  0.00    -0.096 C 
ATOM     37  H   UNL     1      -1.444  -0.098  -0.443  0.00  0.00    -0.082 HD
ENDBRANCH  28  35
ENDBRANCH  27  28
ENDBRANCH  23  27
ENDBRANCH   1  24
TORSDOF 8
