REMARK  Name = ZINC15707276
REMARK  6 active torsions:
REMARK  status: ('A' for Active; 'I' for Inactive)
REMARK    1  A    between atoms: C_4  and  C_7
REMARK    2  A    between atoms: C_7  and  C_8
REMARK    3  A    between atoms: C_8  and  C_9
REMARK    4  A    between atoms: C_9  and  N_10
REMARK    5  A    between atoms: C_19  and  C_21
REMARK    6  A    between atoms: C_23  and  C_26
REMARK                            x       y       z     vdW  Elec       q    Type
REMARK                         _______ _______ _______ _____ _____    ______ ____
ROOT
ATOM      1  N   UNL     1       5.948  -1.956   2.760  0.00  0.00    -0.285 NA
ATOM      2  C   UNL     1       6.248  -0.691   3.452  0.00  0.00    +0.140 C 
ATOM      3  C   UNL     1       6.795  -1.017   4.820  0.00  0.00    +0.051 A 
ATOM      4  C   UNL     1       7.259  -2.241   5.161  0.00  0.00    +0.040 A 
ATOM      5  N   UNL     1       7.664  -2.169   6.456  0.00  0.00    -0.349 N 
ATOM      6  H   UNL     1       8.043  -2.890   6.982  0.00  0.00    +0.166 HD
ATOM      7  C   UNL     1       7.438  -0.900   6.871  0.00  0.00    +0.171 A 
ATOM      8  N   UNL     1       6.918  -0.220   5.882  0.00  0.00    -0.349 N 
ATOM      9  C   UNL     1       7.288  -3.413   4.214  0.00  0.00    +0.083 C 
ATOM     10  C   UNL     1       7.097  -2.872   2.790  0.00  0.00    +0.152 C 
ATOM     11  H   UNL     1       6.662   0.715   5.916  0.00  0.00    +0.166 HD
ENDROOT
BRANCH  10  12
ATOM     12  C   UNL     1       6.849  -4.020   1.846  0.00  0.00    +0.245 A 
ATOM     13  N   UNL     1       7.709  -4.510   1.001  0.00  0.00    -0.190 NA
ATOM     14  C   UNL     1       7.155  -5.528   0.318  0.00  0.00    +0.202 A 
ATOM     15  N   UNL     1       5.923  -5.690   0.733  0.00  0.00    -0.056 NA
ATOM     16  O   UNL     1       5.707  -4.712   1.739  0.00  0.00    -0.336 OA
BRANCH  14  17
ATOM     17  C   UNL     1       7.828  -6.334  -0.732  0.00  0.00    +0.024 A 
ATOM     18  C   UNL     1       9.150  -6.063  -1.081  0.00  0.00    +0.014 A 
ATOM     19  C   UNL     1       9.771  -6.814  -2.057  0.00  0.00    +0.040 A 
ATOM     20  C   UNL     1       9.084  -7.837  -2.690  0.00  0.00    +0.142 A 
ATOM     21  C   UNL     1       7.768  -8.109  -2.347  0.00  0.00    +0.077 A 
ATOM     22  C   UNL     1       7.141  -7.366  -1.367  0.00  0.00    +0.034 A 
ATOM     23 CL   UNL     1       6.912  -9.391  -3.146  0.00  0.00    -0.081 Cl
ATOM     24  F   UNL     1       9.697  -8.570  -3.645  0.00  0.00    -0.204 F 
ENDBRANCH  14  17
ENDBRANCH  10  12
BRANCH   1  25
ATOM     25  C   UNL     1       5.507  -1.710   1.381  0.00  0.00    +0.086 C 
BRANCH  25  26
ATOM     26  C   UNL     1       4.171  -0.963   1.399  0.00  0.00    +0.020 C 
BRANCH  26  27
ATOM     27  C   UNL     1       3.711  -0.707  -0.038  0.00  0.00    +0.036 C 
BRANCH  27  31
ATOM     28  C   UNL     1      -0.017   1.378   0.010  0.00  0.00    +0.000 A 
ATOM     29  C   UNL     1       1.171   2.086   0.002  0.00  0.00    +0.000 A 
ATOM     30  C   UNL     1       2.377   1.411  -0.013  0.00  0.00    +0.003 A 
ATOM     31  C   UNL     1       2.396   0.029  -0.020  0.00  0.00    -0.047 A 
ATOM     32  C   UNL     1       1.208  -0.679  -0.012  0.00  0.00    +0.003 A 
ATOM     33  C   UNL     1       0.002  -0.004   0.002  0.00  0.00    +0.000 A 
ENDBRANCH  27  31
ENDBRANCH  26  27
ENDBRANCH  25  26
ENDBRANCH   1  25
TORSDOF 6
