REMARK  Name = ZINC01132138
REMARK  9 active torsions:
REMARK  status: ('A' for Active; 'I' for Inactive)
REMARK    1  A    between atoms: C_1  and  C_2
REMARK    2  A    between atoms: C_3  and  C_29
REMARK    3  A    between atoms: C_4  and  C_20
REMARK    4  A    between atoms: C_10  and  C_15
REMARK    5  A    between atoms: C_29  and  O_31
REMARK    6  A    between atoms: O_31  and  C_32
REMARK    7  A    between atoms: C_32  and  C_33
REMARK    8  A    between atoms: C_36  and  O_39
REMARK    9  A    between atoms: O_39  and  C_40
REMARK                            x       y       z     vdW  Elec       q    Type
REMARK                         _______ _______ _______ _____ _____    ______ ____
ROOT
ATOM      1  C   UNL     1       4.391   8.042   3.771  0.00  0.00    +0.061 C 
ATOM      2  C   UNL     1       4.354   7.304   2.458  0.00  0.00    +0.016 C 
ATOM      3  C   UNL     1       4.825   7.895   1.346  0.00  0.00    +0.065 C 
ATOM      4  C   UNL     1       4.811   7.188   0.023  0.00  0.00    +0.092 C 
ATOM      5  C   UNL     1       3.858   6.019   0.044  0.00  0.00    +0.024 C 
ATOM      6  C   UNL     1       3.429   5.502   1.215  0.00  0.00    +0.016 C 
ATOM      7  N   UNL     1       3.841   6.038   2.405  0.00  0.00    -0.321 N 
ATOM      8  C   UNL     1       2.484   4.325   1.244  0.00  0.00    +0.062 C 
ATOM      9  C   UNL     1       1.581   4.361   0.009  0.00  0.00    +0.068 C 
ATOM     10  C   UNL     1       2.462   4.337  -1.244  0.00  0.00    +0.091 C 
ATOM     11  C   UNL     1       3.429   5.488  -1.185  0.00  0.00    +0.162 C 
ATOM     12  O   UNL     1       3.844   5.970  -2.220  0.00  0.00    -0.292 OA
ATOM     13  H   UNL     1       3.756   5.440   3.324  0.00  0.00    +0.152 HD
ENDROOT
BRANCH   4  14
ATOM     14  C   UNL     1       6.198   6.689  -0.286  0.00  0.00    -0.032 A 
ATOM     15  C   UNL     1       6.819   5.800   0.572  0.00  0.00    +0.008 A 
ATOM     16  C   UNL     1       8.090   5.336   0.290  0.00  0.00    +0.050 A 
ATOM     17  C   UNL     1       8.750   5.768  -0.849  0.00  0.00    +0.166 A 
ATOM     18  C   UNL     1       8.127   6.668  -1.711  0.00  0.00    +0.167 A 
ATOM     19  C   UNL     1       6.850   7.125  -1.425  0.00  0.00    +0.054 A 
ATOM     20  O   UNL     1       8.973   6.936  -2.748  0.00  0.00    -0.453 OA
ATOM     21  C   UNL     1       9.954   5.882  -2.726  0.00  0.00    +0.466 C 
ATOM     22  O   UNL     1       9.986   5.473  -1.346  0.00  0.00    -0.453 OA
ENDBRANCH   4  14
BRANCH   9  23
ATOM     23  C   UNL     1       0.671   3.160   0.012  0.00  0.00    +0.109 A 
ATOM     24  C   UNL     1      -0.673   3.191   0.025  0.00  0.00    +0.045 A 
ATOM     25  C   UNL     1      -1.114   1.848   0.017  0.00  0.00    +0.041 A 
ATOM     26  C   UNL     1      -0.013   1.076   0.008  0.00  0.00    +0.195 A 
ATOM     27  O   UNL     1       1.066   1.876   0.002  0.00  0.00    -0.468 OA
ENDBRANCH   9  23
BRANCH   3  28
ATOM     28  C   UNL     1       5.344   9.209   1.426  0.00  0.00    +0.338 C 
ATOM     29  O   UNL     1       5.360   9.793   2.493  0.00  0.00    -0.245 OA
BRANCH  28  30
ATOM     30  O   UNL     1       5.820   9.814   0.318  0.00  0.00    -0.457 OA
BRANCH  30  31
ATOM     31  C   UNL     1       6.328  11.141   0.471  0.00  0.00    +0.268 C 
BRANCH  31  32
ATOM     32  C   UNL     1       6.812  11.650  -0.862  0.00  0.00    -0.010 A 
ATOM     33  C   UNL     1       8.125  11.445  -1.245  0.00  0.00    +0.010 A 
ATOM     34  C   UNL     1       8.569  11.906  -2.469  0.00  0.00    +0.046 A 
ATOM     35  C   UNL     1       7.700  12.586  -3.310  0.00  0.00    +0.120 A 
ATOM     36  C   UNL     1       6.385  12.796  -2.921  0.00  0.00    +0.046 A 
ATOM     37  C   UNL     1       5.944  12.328  -1.699  0.00  0.00    +0.010 A 
BRANCH  35  38
ATOM     38  O   UNL     1       8.137  13.045  -4.512  0.00  0.00    -0.495 OA
ATOM     39  C   UNL     1       9.503  12.793  -4.846  0.00  0.00    +0.277 C 
ENDBRANCH  35  38
ENDBRANCH  31  32
ENDBRANCH  30  31
ENDBRANCH  28  30
ENDBRANCH   3  28
TORSDOF 7
