REMARK  Name = ZINC16020933
REMARK  6 active torsions:
REMARK  status: ('A' for Active; 'I' for Inactive)
REMARK    1  A    between atoms: C_4  and  C_7
REMARK    2  A    between atoms: C_7  and  N_8
REMARK    3  A    between atoms: C_13  and  C_31
REMARK    4  A    between atoms: C_31  and  C_32
REMARK    5  A    between atoms: C_35  and  O_39
REMARK    6  A    between atoms: C_36  and  O_38
REMARK                            x       y       z     vdW  Elec       q    Type
REMARK                         _______ _______ _______ _____ _____    ______ ____
ROOT
ATOM      1  N   UNL     1       4.152  -0.952   1.338  0.00  0.00    -0.237 N 
ATOM      2  C   UNL     1       4.914  -0.089   2.018  0.00  0.00    +0.227 C 
ATOM      3  O   UNL     1       5.324   0.970   1.593  0.00  0.00    -0.275 OA
ATOM      4  C   UNL     1       5.185  -0.638   3.400  0.00  0.00    +0.107 C 
ATOM      5  C   UNL     1       6.683  -0.987   3.526  0.00  0.00    +0.072 C 
ATOM      6  N   UNL     1       6.796  -2.376   3.007  0.00  0.00    -0.295 NA
ATOM      7  C   UNL     1       5.580  -3.046   3.503  0.00  0.00    +0.136 C 
ATOM      8  C   UNL     1       4.440  -2.002   3.397  0.00  0.00    +0.122 C 
ATOM      9  C   UNL     1       3.820  -2.056   2.018  0.00  0.00    +0.229 C 
ATOM     10  O   UNL     1       3.132  -2.959   1.594  0.00  0.00    -0.275 OA
ATOM     11  C   UNL     1       5.271  -4.286   2.713  0.00  0.00    +0.005 A 
ATOM     12  C   UNL     1       5.009  -4.522   1.382  0.00  0.00    +0.027 A 
ATOM     13  C   UNL     1       4.754  -5.811   0.944  0.00  0.00    +0.041 A 
ATOM     14  C   UNL     1       4.762  -6.859   1.848  0.00  0.00    +0.022 A 
ATOM     15  C   UNL     1       5.023  -6.626   3.182  0.00  0.00    +0.025 A 
ATOM     16  C   UNL     1       5.280  -5.333   3.631  0.00  0.00    +0.039 A 
ATOM     17  N   UNL     1       5.565  -4.851   4.911  0.00  0.00    -0.283 N 
ATOM     18  C   UNL     1       5.752  -3.517   4.921  0.00  0.00    +0.243 C 
ATOM     19  O   UNL     1       6.010  -2.830   5.887  0.00  0.00    -0.273 OA
ATOM     20 CL   UNL     1       4.424  -6.110  -0.734  0.00  0.00    -0.084 Cl
ATOM     21  H   UNL     1       6.828  -2.384   1.999  0.00  0.00    +0.124 HD
ATOM     22  H   UNL     1       5.621  -5.412   5.700  0.00  0.00    +0.155 HD
ENDROOT
BRANCH   1  23
ATOM     23  C   UNL     1       3.711  -0.707  -0.038  0.00  0.00    +0.151 C 
BRANCH  23  27
ATOM     24  C   UNL     1      -0.017   1.378   0.010  0.00  0.00    +0.000 A 
ATOM     25  C   UNL     1       1.171   2.086   0.002  0.00  0.00    +0.000 A 
ATOM     26  C   UNL     1       2.377   1.411  -0.013  0.00  0.00    +0.005 A 
ATOM     27  C   UNL     1       2.396   0.029  -0.020  0.00  0.00    -0.030 A 
ATOM     28  C   UNL     1       1.208  -0.679  -0.012  0.00  0.00    +0.005 A 
ATOM     29  C   UNL     1       0.002  -0.004   0.002  0.00  0.00    +0.000 A 
ENDBRANCH  23  27
ENDBRANCH   1  23
BRANCH   5  30
ATOM     30  C   UNL     1       7.525  -0.030   2.681  0.00  0.00    +0.054 C 
BRANCH  30  31
ATOM     31  C   UNL     1       8.988  -0.309   2.914  0.00  0.00    -0.042 A 
ATOM     32  C   UNL     1       9.663   0.349   3.925  0.00  0.00    +0.007 A 
ATOM     33  C   UNL     1      11.005   0.096   4.143  0.00  0.00    +0.049 A 
ATOM     34  C   UNL     1      11.676  -0.818   3.347  0.00  0.00    +0.158 A 
ATOM     35  C   UNL     1      10.996  -1.480   2.329  0.00  0.00    +0.158 A 
ATOM     36  C   UNL     1       9.650  -1.226   2.119  0.00  0.00    +0.052 A 
BRANCH  35  37
ATOM     37  O   UNL     1      11.650  -2.379   1.545  0.00  0.00    -0.503 OA
ATOM     38  H   UNL     1      11.627  -3.285   1.881  0.00  0.00    +0.292 HD
ENDBRANCH  35  37
BRANCH  34  39
ATOM     39  O   UNL     1      12.996  -1.067   3.559  0.00  0.00    -0.503 OA
ATOM     40  H   UNL     1      13.165  -1.786   4.184  0.00  0.00    +0.292 HD
ENDBRANCH  34  39
ENDBRANCH  30  31
ENDBRANCH   5  30
TORSDOF 6
