REMARK  Name = ZINC59159845
REMARK  10 active torsions:
REMARK  status: ('A' for Active; 'I' for Inactive)
REMARK    1  A    between atoms: C_1  and  C_2
REMARK    2  A    between atoms: C_5  and  S_8
REMARK    3  A    between atoms: S_8  and  O_11
REMARK    4  A    between atoms: O_11  and  C_12
REMARK    5  A    between atoms: C_17  and  C_18
REMARK    6  A    between atoms: N_19  and  N_20
REMARK    7  A    between atoms: C_21  and  C_23
REMARK    8  A    between atoms: C_23  and  C_24
REMARK    9  A    between atoms: C_24  and  C_25
REMARK   10  A    between atoms: C_30  and  O_31
REMARK                            x       y       z     vdW  Elec       q    Type
REMARK                         _______ _______ _______ _____ _____    ______ ____
ROOT
ATOM      1  C   UNL     1       2.150  -4.816   1.162  0.00  0.00    +0.165 A 
ATOM      2  C   UNL     1       2.792  -3.629   1.471  0.00  0.00    +0.049 A 
ATOM      3  C   UNL     1       3.430  -3.482   2.688  0.00  0.00    +0.004 A 
ATOM      4  C   UNL     1       3.434  -4.518   3.607  0.00  0.00    +0.001 A 
ATOM      5  C   UNL     1       2.799  -5.707   3.315  0.00  0.00    +0.013 A 
ATOM      6  C   UNL     1       2.145  -5.866   2.091  0.00  0.00    +0.039 A 
ENDROOT
BRANCH   6   7
ATOM      7  C   UNL     1       1.459  -7.132   1.776  0.00  0.00    +0.142 C 
ATOM      8  N   UNL     1       0.858  -7.277   0.635  0.00  0.00    -0.188 NA
BRANCH   8   9
ATOM      9  N   UNL     1       0.206  -8.480   0.335  0.00  0.00    -0.207 N 
ATOM     10  C   UNL     1      -0.419  -8.631  -0.849  0.00  0.00    +0.233 C 
ATOM     11  O   UNL     1      -0.417  -7.725  -1.656  0.00  0.00    -0.274 OA
ATOM     12  H   UNL     1       0.204  -9.205   0.980  0.00  0.00    +0.177 HD
BRANCH  10  13
ATOM     13  C   UNL     1      -1.120  -9.926  -1.172  0.00  0.00    +0.102 C 
BRANCH  13  14
ATOM     14  C   UNL     1      -1.742  -9.835  -2.567  0.00  0.00    +0.048 C 
BRANCH  14  15
ATOM     15  C   UNL     1      -2.443 -11.130  -2.889  0.00  0.00    -0.005 A 
ATOM     16  C   UNL     1      -1.785 -12.114  -3.602  0.00  0.00    +0.007 A 
ATOM     17  C   UNL     1      -2.428 -13.301  -3.898  0.00  0.00    +0.000 A 
ATOM     18  C   UNL     1      -3.730 -13.507  -3.483  0.00  0.00    +0.004 A 
ATOM     19  C   UNL     1      -4.393 -12.527  -2.770  0.00  0.00    +0.045 A 
ATOM     20  C   UNL     1      -3.748 -11.336  -2.467  0.00  0.00    +0.120 A 
BRANCH  20  21
ATOM     21  O   UNL     1      -4.396 -10.372  -1.761  0.00  0.00    -0.506 OA
ATOM     22  H   UNL     1      -4.883  -9.743  -2.310  0.00  0.00    +0.292 HD
ENDBRANCH  20  21
ENDBRANCH  14  15
ENDBRANCH  13  14
ENDBRANCH  10  13
ENDBRANCH   8   9
ENDBRANCH   6   7
BRANCH   1  23
ATOM     23  O   UNL     1       1.522  -4.962  -0.033  0.00  0.00    -0.342 OA
BRANCH  23  24
ATOM     24  S   UNL     1       0.063  -4.530  -0.023  0.00  0.00    +0.151 S 
ATOM     25  O   UNL     1      -0.476  -4.950   1.223  0.00  0.00    -0.131 OA
ATOM     26  O   UNL     1      -0.490  -4.937  -1.267  0.00  0.00    -0.131 OA
BRANCH  24  31
ATOM     27  C   UNL     1      -0.018   1.503   0.010  0.00  0.00    +0.044 C 
ATOM     28  C   UNL     1       0.002  -0.004   0.002  0.00  0.00    -0.050 A 
ATOM     29  C   UNL     1       0.006  -0.689  -1.199  0.00  0.00    +0.005 A 
ATOM     30  C   UNL     1       0.025  -2.071  -1.206  0.00  0.00    +0.031 A 
ATOM     31  C   UNL     1       0.040  -2.768  -0.013  0.00  0.00    +0.128 A 
ATOM     32  C   UNL     1       0.037  -2.084   1.188  0.00  0.00    +0.031 A 
ATOM     33  C   UNL     1       0.023  -0.702   1.195  0.00  0.00    +0.005 A 
ENDBRANCH  24  31
ENDBRANCH  23  24
ENDBRANCH   1  23
TORSDOF 9
