REMARK  Name = ZINC21316236
REMARK  7 active torsions:
REMARK  status: ('A' for Active; 'I' for Inactive)
REMARK    1  A    between atoms: C_3  and  C_9
REMARK    2  A    between atoms: N_10  and  N_11
REMARK    3  A    between atoms: C_15  and  S_18
REMARK    4  A    between atoms: N_16  and  N_17
REMARK    5  A    between atoms: S_18  and  C_19
REMARK    6  A    between atoms: C_19  and  C_20
REMARK    7  A    between atoms: C_20  and  C_22
REMARK                            x       y       z     vdW  Elec       q    Type
REMARK                         _______ _______ _______ _____ _____    ______ ____
ROOT
ATOM      1  N   UNL     1      -3.754   5.854   0.067  0.00  0.00    -0.204 N 
ATOM      2  C   UNL     1      -3.768   7.241   0.075  0.00  0.00    +0.254 A 
ATOM      3  N   UNL     1      -2.716   8.023   0.075  0.00  0.00    -0.109 NA
ATOM      4  N   UNL     1      -3.163   9.351   0.081  0.00  0.00    -0.119 NA
ATOM      5  C   UNL     1      -4.474   9.337   0.092  0.00  0.00    +0.210 A 
ATOM      6  N   UNL     1      -4.883   8.034   0.089  0.00  0.00    -0.211 N 
ATOM      7  H   UNL     1      -4.701   5.294   0.073  0.00  0.00    +0.177 HD
ENDROOT
BRANCH   6   8
ATOM      8  N   UNL     1      -6.177   7.598   0.099  0.00  0.00    -0.294 N 
ATOM      9  H   UNL     1      -7.003   8.325   0.110  0.00  0.00    +0.163 HD
ATOM     10  H   UNL     1      -6.395   6.519   0.095  0.00  0.00    +0.163 HD
ENDBRANCH   6   8
BRANCH   1  12
ATOM     11  C   UNL     1      -2.520   3.868   0.045  0.00  0.00    +0.139 C 
ATOM     12  N   UNL     1      -2.534   5.166   0.052  0.00  0.00    -0.187 NA
BRANCH  11  15
ATOM     13  C   UNL     1      -0.013   1.076   0.008  0.00  0.00    +0.002 A 
ATOM     14  C   UNL     1      -1.218   1.747   0.017  0.00  0.00    +0.011 A 
ATOM     15  C   UNL     1      -1.236   3.144   0.029  0.00  0.00    +0.014 A 
ATOM     16  C   UNL     1      -0.030   3.852   0.022  0.00  0.00    +0.068 A 
ATOM     17  C   UNL     1       1.169   3.167   0.008  0.00  0.00    +0.060 A 
ATOM     18  C   UNL     1       1.177   1.782   0.000  0.00  0.00    +0.021 A 
ATOM     19 CL   UNL     1       2.667   4.042  -0.001  0.00  0.00    -0.082 Cl
ATOM     20 CL   UNL     1      -0.041   5.588   0.032  0.00  0.00    -0.081 Cl
ENDBRANCH  11  15
ENDBRANCH   1  12
BRANCH   5  21
ATOM     21  S   UNL     1      -5.525  10.751   0.109  0.00  0.00    -0.076 S 
BRANCH  21  22
ATOM     22  C   UNL     1      -4.373  12.153   0.106  0.00  0.00    +0.157 C 
BRANCH  22  23
ATOM     23  C   UNL     1      -5.153  13.443   0.120  0.00  0.00    +0.173 C 
ATOM     24  O   UNL     1      -6.365  13.419   0.130  0.00  0.00    -0.291 OA
BRANCH  23  25
ATOM     25  C   UNL     1      -4.442  14.731   0.120  0.00  0.00    +0.018 A 
ATOM     26  C   UNL     1      -3.044  14.763   0.114  0.00  0.00    +0.012 A 
ATOM     27  C   UNL     1      -2.385  15.974   0.108  0.00  0.00    +0.016 A 
ATOM     28  C   UNL     1      -3.105  17.157   0.121  0.00  0.00    +0.018 A 
ATOM     29  C   UNL     1      -4.490  17.134   0.133  0.00  0.00    +0.016 A 
ATOM     30  C   UNL     1      -5.162  15.931   0.133  0.00  0.00    +0.012 A 
ATOM     31 BR   UNL     1      -2.192  18.813   0.121  0.00  0.00    -0.050 Br
ENDBRANCH  23  25
ENDBRANCH  22  23
ENDBRANCH  21  22
ENDBRANCH   5  21
TORSDOF 7
