REMARK  Name = ZINC67396155
REMARK  7 active torsions:
REMARK  status: ('A' for Active; 'I' for Inactive)
REMARK    1  A    between atoms: C_1  and  C_2
REMARK    2  A    between atoms: C_13  and  C_15
REMARK    3  A    between atoms: N_17  and  C_18
REMARK    4  A    between atoms: C_18  and  C_20
REMARK    5  A    between atoms: C_18  and  C_21
REMARK    6  A    between atoms: C_21  and  C_22
REMARK    7  A    between atoms: C_25  and  O_28
REMARK                            x       y       z     vdW  Elec       q    Type
REMARK                         _______ _______ _______ _____ _____    ______ ____
ROOT
ATOM      1  C   UNL     1       0.766  -4.092   2.351  0.00  0.00    +0.300 C 
ATOM      2  O   UNL     1       0.745  -2.878   2.355  0.00  0.00    -0.265 OA
ATOM      3  N   UNL     1       1.154  -4.764   3.453  0.00  0.00    -0.305 N 
ATOM      4  H   UNL     1       1.170  -5.733   3.449  0.00  0.00    +0.149 HD
ENDROOT
BRANCH   1  17
ATOM      5  C   UNL     1      -0.068  -6.602  -5.069  0.00  0.00    +0.044 C 
ATOM      6  C   UNL     1      -0.085  -5.954  -3.708  0.00  0.00    -0.047 A 
ATOM      7  C   UNL     1      -0.849  -4.823  -3.494  0.00  0.00    +0.009 A 
ATOM      8  C   UNL     1      -0.872  -4.220  -2.247  0.00  0.00    -0.023 A 
ATOM      9  C   UNL     1      -0.124  -4.759  -1.212  0.00  0.00    +0.075 A 
ATOM     10  C   UNL     1       0.647  -5.898  -1.430  0.00  0.00    +0.145 A 
ATOM     11  C   UNL     1       0.660  -6.496  -2.677  0.00  0.00    +0.043 A 
ATOM     12  F   UNL     1       1.378  -6.422  -0.422  0.00  0.00    -0.204 F 
ATOM     13  N   UNL     1      -0.135  -4.176   0.061  0.00  0.00    -0.261 N 
ATOM     14  C   UNL     1      -0.697  -2.828   0.220  0.00  0.00    +0.114 C 
ATOM     15  C   UNL     1      -2.013  -2.773  -0.567  0.00  0.00    +0.024 C 
ATOM     16  C   UNL     1      -1.711  -2.985  -2.050  0.00  0.00    +0.038 C 
ATOM     17  C   UNL     1       0.362  -4.841   1.123  0.00  0.00    +0.306 C 
ATOM     18  O   UNL     1       0.481  -6.048   1.082  0.00  0.00    -0.265 OA
ENDBRANCH   1  17
BRANCH   3  19
ATOM     19  C   UNL     1       1.550  -4.029   4.657  0.00  0.00    +0.075 C 
ATOM     20  C   UNL     1       3.026  -3.639   4.554  0.00  0.00    +0.028 C 
BRANCH  19  21
ATOM     21  C   UNL     1       1.341  -4.915   5.887  0.00  0.00    +0.057 C 
BRANCH  21  22
ATOM     22  C   UNL     1      -0.129  -5.197   6.058  0.00  0.00    -0.045 A 
ATOM     23  C   UNL     1      -0.911  -4.347   6.817  0.00  0.00    +0.007 A 
ATOM     24  C   UNL     1      -2.259  -4.604   6.976  0.00  0.00    +0.045 A 
ATOM     25  C   UNL     1      -2.828  -5.716   6.373  0.00  0.00    +0.117 A 
ATOM     26  C   UNL     1      -2.041  -6.568   5.612  0.00  0.00    +0.045 A 
ATOM     27  C   UNL     1      -0.694  -6.304   5.452  0.00  0.00    +0.007 A 
BRANCH  25  28
ATOM     28  O   UNL     1      -4.154  -5.972   6.529  0.00  0.00    -0.507 OA
ATOM     29  H   UNL     1      -4.714  -5.565   5.854  0.00  0.00    +0.292 HD
ENDBRANCH  25  28
ENDBRANCH  21  22
ENDBRANCH  19  21
ENDBRANCH   3  19
TORSDOF 5
