REMARK  Name = ZINC27569791
REMARK  9 active torsions:
REMARK  status: ('A' for Active; 'I' for Inactive)
REMARK    1  A    between atoms: C_1  and  C_2
REMARK    2  A    between atoms: C_2  and  C_23
REMARK    3  A    between atoms: N_3  and  N_4
REMARK    4  A    between atoms: C_10  and  C_13
REMARK    5  A    between atoms: N_15  and  C_16
REMARK    6  A    between atoms: C_24  and  C_25
REMARK    7  A    between atoms: C_28  and  N_31
REMARK    8  A    between atoms: N_31  and  C_32
REMARK    9  A    between atoms: N_31  and  C_33
REMARK                            x       y       z     vdW  Elec       q    Type
REMARK                         _______ _______ _______ _____ _____    ______ ____
ROOT
ATOM      1  N   UNL     1      -1.646   4.654   1.524  0.00  0.00    -0.127 NA
ATOM      2  C   UNL     1      -0.657   3.823   1.262  0.00  0.00    +0.183 C 
ATOM      3  N   UNL     1       0.546   4.287   0.771  0.00  0.00    -0.264 N 
ATOM      4  C   UNL     1       1.452   3.522   0.176  0.00  0.00    +0.220 C 
ATOM      5  O   UNL     1       2.425   4.090  -0.275  0.00  0.00    -0.275 OA
ATOM      6  C   UNL     1       1.408   2.041   0.001  0.00  0.00    +0.120 C 
ATOM      7  C   UNL     1      -0.022   1.503   0.016  0.00  0.00    +0.149 C 
ATOM      8  S   UNL     1      -0.840   2.084   1.530  0.00  0.00    -0.075 S 
ATOM      9  H   UNL     1       0.803   5.353   0.863  0.00  0.00    +0.157 HD
ENDROOT
BRANCH   7  10
ATOM     10  C   UNL     1       0.003  -0.004   0.001  0.00  0.00    +0.231 C 
ATOM     11  O   UNL     1       0.882  -0.602   0.585  0.00  0.00    -0.274 OA
ATOM     12  N   UNL     1      -0.951  -0.687  -0.662  0.00  0.00    -0.285 N 
ATOM     13  H   UNL     1      -1.790  -0.149  -1.127  0.00  0.00    +0.155 HD
BRANCH  12  14
ATOM     14  C   UNL     1      -0.874  -2.082  -0.758  0.00  0.00    +0.033 A 
ATOM     15  C   UNL     1      -1.314  -2.725  -1.908  0.00  0.00    +0.024 A 
ATOM     16  C   UNL     1      -1.232  -4.100  -2.002  0.00  0.00    +0.017 A 
ATOM     17  C   UNL     1      -0.723  -4.838  -0.948  0.00  0.00    +0.018 A 
ATOM     18  C   UNL     1      -0.289  -4.200   0.201  0.00  0.00    +0.017 A 
ATOM     19  C   UNL     1      -0.364  -2.825   0.298  0.00  0.00    +0.024 A 
ATOM     20 BR   UNL     1      -0.620  -6.722  -1.078  0.00  0.00    -0.050 Br
ENDBRANCH  12  14
ENDBRANCH   7  10
BRANCH   1  23
ATOM     21  C   UNL     1      -3.784   6.219   2.119  0.00  0.00    +0.067 C 
ATOM     22  C   UNL     1      -2.478   6.746   1.583  0.00  0.00    +0.061 C 
ATOM     23  N   UNL     1      -1.495   5.919   1.323  0.00  0.00    -0.152 NA
BRANCH  22  24
ATOM     24  C   UNL     1      -2.313   8.131   1.363  0.00  0.00    +0.025 C 
ATOM     25  C   UNL     1      -1.141   8.604   0.883  0.00  0.00    +0.010 C 
BRANCH  25  26
ATOM     26  C   UNL     1      -0.969  10.046   0.653  0.00  0.00    -0.025 A 
ATOM     27  C   UNL     1      -2.019  10.931   0.926  0.00  0.00    +0.010 A 
ATOM     28  C   UNL     1      -1.852  12.281   0.715  0.00  0.00    +0.023 A 
ATOM     29  C   UNL     1      -0.645  12.765   0.221  0.00  0.00    +0.029 A 
ATOM     30  C   UNL     1       0.400  11.890  -0.057  0.00  0.00    +0.023 A 
ATOM     31  C   UNL     1       0.244  10.539   0.157  0.00  0.00    +0.010 A 
BRANCH  29  32
ATOM     32  N   UNL     1      -0.482  14.134   0.003  0.00  0.00    -0.336 N 
ATOM     33  C   UNL     1       0.788  14.646  -0.518  0.00  0.00    +0.129 C 
ATOM     34  C   UNL     1      -1.581  15.058   0.294  0.00  0.00    +0.129 C 
ENDBRANCH  29  32
ENDBRANCH  25  26
ENDBRANCH  22  24
ENDBRANCH   1  23
TORSDOF 6
