REMARK  Name = ZINC01824614
REMARK  11 active torsions:
REMARK  status: ('A' for Active; 'I' for Inactive)
REMARK    1  A    between atoms: C_1  and  C_2
REMARK    2  A    between atoms: C_3  and  C_34
REMARK    3  A    between atoms: C_4  and  C_26
REMARK    4  A    between atoms: N_17  and  C_20
REMARK    5  A    between atoms: C_20  and  C_21
REMARK    6  A    between atoms: C_29  and  O_32
REMARK    7  A    between atoms: O_32  and  C_33
REMARK    8  A    between atoms: C_34  and  O_36
REMARK    9  A    between atoms: O_36  and  C_37
REMARK   10  A    between atoms: C_37  and  C_38
REMARK   11  A    between atoms: C_37  and  C_39
REMARK                            x       y       z     vdW  Elec       q    Type
REMARK                         _______ _______ _______ _____ _____    ______ ____
ROOT
ATOM      1  C   UNL     1      -0.034   1.497  -0.123  0.00  0.00    +0.066 C 
ATOM      2  C   UNL     1       0.001  -0.004  -0.000  0.00  0.00    +0.053 C 
ATOM      3  C   UNL     1      -1.140  -0.685   0.314  0.00  0.00    +0.085 C 
ATOM      4  C   UNL     1      -1.062  -2.190   0.427  0.00  0.00    +0.162 C 
ATOM      5  N   UNL     1       0.266  -2.822   0.186  0.00  0.00    -0.275 N 
ATOM      6  C   UNL     1       0.532  -4.134   0.240  0.00  0.00    +0.269 A 
ATOM      7  O   UNL     1      -0.337  -4.941   0.504  0.00  0.00    -0.266 OA
ATOM      8  C   UNL     1       1.922  -4.566  -0.033  0.00  0.00    +0.093 A 
ATOM      9  C   UNL     1       2.461  -5.838  -0.043  0.00  0.00    +0.065 C 
ATOM     10  C   UNL     1       1.736  -7.122   0.048  0.00  0.00    +0.010 A 
ATOM     11  C   UNL     1       0.387  -7.449   0.164  0.00  0.00    +0.010 A 
ATOM     12  C   UNL     1       0.008  -8.775   0.229  0.00  0.00    +0.001 A 
ATOM     13  C   UNL     1       0.966  -9.774   0.177  0.00  0.00    +0.002 A 
ATOM     14  C   UNL     1       2.306  -9.460   0.062  0.00  0.00    +0.024 A 
ATOM     15  C   UNL     1       2.708  -8.131  -0.005  0.00  0.00    +0.045 A 
ATOM     16  N   UNL     1       3.966  -7.551  -0.120  0.00  0.00    -0.263 N 
ATOM     17  C   UNL     1       3.886  -6.210  -0.155  0.00  0.00    +0.253 C 
ATOM     18  O   UNL     1       4.822  -5.439  -0.256  0.00  0.00    -0.270 OA
ATOM     19  S   UNL     1       2.713  -2.995  -0.345  0.00  0.00    -0.045 S 
ATOM     20  C   UNL     1       1.287  -1.951  -0.118  0.00  0.00    +0.178 A 
ATOM     21  N   UNL     1       1.141  -0.655  -0.203  0.00  0.00    -0.228 NA
ENDROOT
BRANCH   4  22
ATOM     22  C   UNL     1      -1.513  -2.574   1.813  0.00  0.00    -0.020 A 
ATOM     23  C   UNL     1      -0.640  -2.458   2.879  0.00  0.00    +0.009 A 
ATOM     24  C   UNL     1      -1.051  -2.810   4.150  0.00  0.00    +0.046 A 
ATOM     25  C   UNL     1      -2.340  -3.280   4.356  0.00  0.00    +0.120 A 
ATOM     26  C   UNL     1      -3.213  -3.396   3.285  0.00  0.00    +0.046 A 
ATOM     27  C   UNL     1      -2.799  -3.038   2.016  0.00  0.00    +0.009 A 
BRANCH  25  28
ATOM     28  O   UNL     1      -2.746  -3.628   5.606  0.00  0.00    -0.495 OA
ATOM     29  C   UNL     1      -4.086  -4.104   5.743  0.00  0.00    +0.277 C 
ENDBRANCH  25  28
ENDBRANCH   4  22
BRANCH   3  30
ATOM     30  C   UNL     1      -2.353  -0.005   0.525  0.00  0.00    +0.339 C 
ATOM     31  O   UNL     1      -2.396   1.209   0.430  0.00  0.00    -0.245 OA
BRANCH  30  32
ATOM     32  O   UNL     1      -3.471  -0.697   0.835  0.00  0.00    -0.459 OA
BRANCH  32  33
ATOM     33  C   UNL     1      -4.667   0.058   1.036  0.00  0.00    +0.171 C 
ATOM     34  C   UNL     1      -5.878  -0.789   0.638  0.00  0.00    +0.052 C 
ATOM     35  C   UNL     1      -4.781   0.449   2.511  0.00  0.00    +0.052 C 
ENDBRANCH  32  33
ENDBRANCH  30  32
ENDBRANCH   3  30
BRANCH  16  36
ATOM     36  C   UNL     1       5.219  -8.306  -0.202  0.00  0.00    +0.140 C 
BRANCH  36  37
ATOM     37  C   UNL     1       5.535  -8.601  -1.645  0.00  0.00    -0.015 C 
ATOM     38  C   UNL     1       6.690  -8.244  -2.149  0.00  0.00    +0.005 C 
ENDBRANCH  36  37
ENDBRANCH  16  36
TORSDOF 7
