REMARK  Name = ZINC13064677
REMARK  12 active torsions:
REMARK  status: ('A' for Active; 'I' for Inactive)
REMARK    1  A    between atoms: C_1  and  C_2
REMARK    2  A    between atoms: C_2  and  C_3
REMARK    3  A    between atoms: C_3  and  C_5
REMARK    4  A    between atoms: C_3  and  N_72
REMARK    5  A    between atoms: N_9  and  C_10
REMARK    6  A    between atoms: C_15  and  C_16
REMARK    7  A    between atoms: C_15  and  N_72
REMARK    8  A    between atoms: C_19  and  C_22
REMARK    9  A    between atoms: C_23  and  C_24
REMARK   10  A    between atoms: C_23  and  N_72
REMARK   11  A    between atoms: C_28  and  C_37
REMARK   12  A    between atoms: C_29  and  C_36
REMARK                            x       y       z     vdW  Elec       q    Type
REMARK                         _______ _______ _______ _____ _____    ______ ____
ROOT
ATOM      1  N   UNL     1      -1.933   2.370   1.750  0.00  0.00    +0.392 N 
ATOM      2  H   UNL     1      -1.196   3.003   2.081  0.00  0.00    -0.080 HD
ENDROOT
BRANCH   1   3
ATOM      3  C   UNL     1      -1.940   1.157   2.594  0.00  0.00    +0.003 C 
BRANCH   3   4
ATOM      4  C   UNL     1      -3.131   0.293   2.268  0.00  0.00    +0.138 A 
ATOM      5  N   UNL     1      -4.365   0.698   2.084  0.00  0.00    -0.115 NA
ATOM      6  N   UNL     1      -5.088  -0.337   1.825  0.00  0.00    -0.023 NA
ATOM      7  N   UNL     1      -4.348  -1.390   1.838  0.00  0.00    -0.044 NA
ATOM      8  N   UNL     1      -3.134  -1.042   2.103  0.00  0.00    -0.228 N 
BRANCH   8   9
ATOM      9  C   UNL     1      -1.977  -1.935   2.207  0.00  0.00    +0.111 C 
ATOM     10  C   UNL     1      -1.823  -2.755   0.909  0.00  0.00    +0.027 C 
ATOM     11  C   UNL     1      -1.353  -4.149   1.396  0.00  0.00    +0.002 C 
ATOM     12  C   UNL     1      -2.163  -4.348   2.701  0.00  0.00    +0.002 C 
ATOM     13  C   UNL     1      -2.192  -2.947   3.345  0.00  0.00    +0.027 C 
ENDBRANCH   8   9
ENDBRANCH   3   4
BRANCH   3  15
ATOM     14  C   UNL     1      -0.728   2.339   4.431  0.00  0.00    +0.002 C 
ATOM     15  C   UNL     1      -2.004   1.579   4.063  0.00  0.00    -0.011 C 
ENDBRANCH   3  15
ENDBRANCH   1   3
BRANCH   1  16
ATOM     16  C   UNL     1      -1.658   2.006   0.344  0.00  0.00    -0.042 C 
BRANCH  16  17
ATOM     17  C   UNL     1      -0.195   1.671   0.208  0.00  0.00    -0.064 A 
ATOM     18  C   UNL     1       0.732   2.682   0.036  0.00  0.00    +0.002 A 
ATOM     19  C   UNL     1       2.073   2.375  -0.095  0.00  0.00    +0.003 A 
ATOM     20  C   UNL     1       2.488   1.057  -0.052  0.00  0.00    -0.050 A 
ATOM     21  C   UNL     1       1.561   0.046   0.120  0.00  0.00    +0.003 A 
ATOM     22  C   UNL     1       0.219   0.353   0.251  0.00  0.00    +0.002 A 
ATOM     23  C   UNL     1       3.950   0.722  -0.194  0.00  0.00    +0.044 C 
ENDBRANCH  16  17
ENDBRANCH   1  16
BRANCH   1  24
ATOM     24  C   UNL     1      -3.237   3.061   1.847  0.00  0.00    -0.036 C 
BRANCH  24  25
ATOM     25  C   UNL     1      -3.063   4.486   1.389  0.00  0.00    +0.001 A 
ATOM     26  C   UNL     1      -3.345   4.824   0.107  0.00  0.00    +0.017 A 
ATOM     27  C   UNL     1      -3.170   6.218  -0.304  0.00  0.00    -0.001 A 
ATOM     28  C   UNL     1      -3.451   6.627  -1.612  0.00  0.00    +0.013 A 
ATOM     29  C   UNL     1      -3.272   7.934  -1.966  0.00  0.00    -0.047 A 
ATOM     30  C   UNL     1      -2.815   8.861  -1.038  0.00  0.00    -0.046 A 
ATOM     31  C   UNL     1      -2.533   8.480   0.256  0.00  0.00    +0.030 A 
ATOM     32  C   UNL     1      -2.707   7.154   0.639  0.00  0.00    +0.049 A 
ATOM     33  N   UNL     1      -2.432   6.746   1.927  0.00  0.00    -0.322 N 
ATOM     34  H   UNL     1      -2.113   7.393   2.575  0.00  0.00    +0.169 HD
ATOM     35  C   UNL     1      -2.601   5.464   2.296  0.00  0.00    +0.251 A 
ATOM     36  O   UNL     1      -2.349   5.139   3.443  0.00  0.00    -0.268 OA
ATOM     37  C   UNL     1      -2.625  10.298  -1.451  0.00  0.00    +0.044 C 
ATOM     38  C   UNL     1      -3.574   8.375  -3.375  0.00  0.00    +0.044 C 
ENDBRANCH  24  25
ENDBRANCH   1  24
TORSDOF 8
