REMARK  Name = ZINC12300887
REMARK  6 active torsions:
REMARK  status: ('A' for Active; 'I' for Inactive)
REMARK    1  A    between atoms: C_3  and  C_6
REMARK    2  A    between atoms: C_6  and  N_55
REMARK    3  A    between atoms: C_12  and  C_14
REMARK    4  A    between atoms: C_14  and  C_15
REMARK    5  A    between atoms: N_17  and  C_18
REMARK    6  A    between atoms: C_18  and  C_19
REMARK                            x       y       z     vdW  Elec       q    Type
REMARK                         _______ _______ _______ _____ _____    ______ ____
ROOT
ATOM      1  C   UNL     1       2.348   1.457   1.069  0.00  0.00    +0.089 C 
ENDROOT
BRANCH   1   7
ATOM      2  C   UNL     1       0.928   2.538  -2.235  0.00  0.00    -0.058 C 
ATOM      3  C   UNL     1       1.188   4.036  -2.062  0.00  0.00    +0.085 C 
ATOM      4  N   UNL     1       1.086   4.401  -0.652  0.00  0.00    -0.318 N 
ATOM      5  C   UNL     1       1.167   3.506   0.338  0.00  0.00    +0.200 C 
ATOM      6  O   UNL     1       1.109   3.899   1.484  0.00  0.00    -0.278 OA
ATOM      7  C   UNL     1       1.322   2.032   0.090  0.00  0.00    +0.028 C 
ATOM      8  H   UNL     1       0.958   5.335  -0.423  0.00  0.00    +0.149 HD
ATOM      9  N   UNL     1       1.798   1.811  -1.288  0.00  0.00    +0.392 N 
ATOM     10  H   UNL     1       2.757   2.168  -1.373  0.00  0.00    -0.080 HD
BRANCH   9  11
ATOM     11  C   UNL     1       1.793   0.364  -1.601  0.00  0.00    -0.034 C 
BRANCH  11  14
ATOM     12  C   UNL     1       3.510  -0.153  -4.962  0.00  0.00    +0.008 A 
ATOM     13  C   UNL     1       3.401   0.012  -3.594  0.00  0.00    +0.009 A 
ATOM     14  C   UNL     1       2.171   0.171  -3.047  0.00  0.00    -0.027 A 
ATOM     15  S   UNL     1       1.114   0.083  -4.483  0.00  0.00    -0.103 S 
ATOM     16  C   UNL     1       2.384  -0.150  -5.716  0.00  0.00    +0.045 A 
ENDBRANCH  11  14
ENDBRANCH   9  11
ENDBRANCH   1   7
BRANCH   1  17
ATOM     17  C   UNL     1       3.693   2.085   0.812  0.00  0.00    +0.212 C 
ATOM     18  O   UNL     1       3.804   2.965  -0.015  0.00  0.00    -0.276 OA
ATOM     19  N   UNL     1       4.774   1.669   1.502  0.00  0.00    -0.310 N 
ATOM     20  H   UNL     1       4.685   0.965   2.164  0.00  0.00    +0.149 HD
BRANCH  19  21
ATOM     21  C   UNL     1       6.082   2.279   1.253  0.00  0.00    +0.161 C 
BRANCH  21  22
ATOM     22  C   UNL     1       7.113   1.640   2.147  0.00  0.00    +0.083 A 
ATOM     23  C   UNL     1       7.468   2.071   3.428  0.00  0.00    -0.002 A 
ATOM     24  C   UNL     1       8.428   1.239   3.896  0.00  0.00    +0.040 A 
ATOM     25  N   UNL     1       8.671   0.313   2.947  0.00  0.00    -0.281 N 
ATOM     26  H   UNL     1       9.329  -0.437   3.010  0.00  0.00    +0.189 HD
ATOM     27  N   UNL     1       7.836   0.588   1.855  0.00  0.00    -0.177 NA
ATOM     28  C   UNL     1       9.109   1.351   5.236  0.00  0.00    +0.055 C 
ATOM     29  C   UNL     1       8.051   1.553   6.325  0.00  0.00    +0.006 C 
ATOM     30  C   UNL     1       7.774   3.043   6.502  0.00  0.00    +0.001 C 
ATOM     31  C   UNL     1       7.903   3.776   5.169  0.00  0.00    +0.005 C 
ATOM     32  C   UNL     1       6.870   3.234   4.178  0.00  0.00    +0.039 C 
ENDBRANCH  21  22
ENDBRANCH  19  21
ENDBRANCH   1  17
TORSDOF 6
