REMARK  Name = ZINC56195803
REMARK  10 active torsions:
REMARK  status: ('A' for Active; 'I' for Inactive)
REMARK    1  A    between atoms: C_1  and  C_2
REMARK    2  A    between atoms: C_5  and  N_9
REMARK    3  A    between atoms: C_6  and  C_8
REMARK    4  A    between atoms: C_13  and  C_15
REMARK    5  A    between atoms: C_15  and  C_17
REMARK    6  A    between atoms: C_15  and  N_18
REMARK    7  A    between atoms: N_18  and  C_19
REMARK    8  A    between atoms: C_19  and  C_21
REMARK    9  A    between atoms: C_19  and  C_22
REMARK   10  A    between atoms: C_26  and  N_28
REMARK                            x       y       z     vdW  Elec       q    Type
REMARK                         _______ _______ _______ _____ _____    ______ ____
ROOT
ATOM      1  N   UNL     1       0.043  -4.147  -0.049  0.00  0.00    -0.269 N 
ATOM      2  C   UNL     1      -0.056  -4.823  -1.211  0.00  0.00    +0.310 C 
ATOM      3  O   UNL     1      -0.077  -4.219  -2.266  0.00  0.00    -0.252 OA
ATOM      4  N   UNL     1      -0.132  -6.168  -1.204  0.00  0.00    -0.239 N 
ATOM      5  C   UNL     1      -0.231  -6.844  -2.366  0.00  0.00    +0.237 C 
ATOM      6  O   UNL     1      -0.252  -6.242  -3.417  0.00  0.00    -0.274 OA
ATOM      7  H   UNL     1       0.122  -4.630   0.788  0.00  0.00    +0.156 HD
ATOM      8  H   UNL     1      -0.115  -6.650  -0.362  0.00  0.00    +0.159 HD
ENDROOT
BRANCH   1  13
ATOM      9  C   UNL     1      -0.003   1.526  -0.056  0.00  0.00    +0.044 C 
ATOM     10  C   UNL     1       0.009   0.019  -0.054  0.00  0.00    -0.050 A 
ATOM     11  C   UNL     1       0.605  -0.667  -1.097  0.00  0.00    +0.005 A 
ATOM     12  C   UNL     1       0.618  -2.048  -1.098  0.00  0.00    +0.024 A 
ATOM     13  C   UNL     1       0.032  -2.748  -0.051  0.00  0.00    +0.038 A 
ATOM     14  C   UNL     1      -0.565  -2.056   0.995  0.00  0.00    -0.029 A 
ATOM     15  C   UNL     1      -0.570  -0.674   0.993  0.00  0.00    +0.008 A 
ATOM     16  C   UNL     1      -1.201  -2.811   2.133  0.00  0.00    +0.045 C 
ENDBRANCH   1  13
BRANCH   5  17
ATOM     17  C   UNL     1      -0.316  -8.349  -2.357  0.00  0.00    +0.138 C 
ATOM     18  C   UNL     1       0.939  -8.927  -1.699  0.00  0.00    +0.034 C 
BRANCH  17  19
ATOM     19  N   UNL     1      -0.415  -8.841  -3.738  0.00  0.00    -0.299 NA
ATOM     20  H   UNL     1       0.119  -8.262  -4.368  0.00  0.00    +0.123 HD
BRANCH  19  21
ATOM     21  C   UNL     1      -1.818  -8.929  -4.165  0.00  0.00    +0.081 C 
ATOM     22  C   UNL     1      -2.439 -10.216  -3.616  0.00  0.00    +0.029 C 
BRANCH  21  23
ATOM     23  C   UNL     1      -1.885  -8.942  -5.670  0.00  0.00    -0.029 A 
ATOM     24  C   UNL     1      -0.958  -9.665  -6.397  0.00  0.00    +0.005 A 
ATOM     25  C   UNL     1      -1.019  -9.676  -7.778  0.00  0.00    +0.003 A 
ATOM     26  C   UNL     1      -2.008  -8.965  -8.432  0.00  0.00    +0.033 A 
ATOM     27  C   UNL     1      -2.936  -8.243  -7.705  0.00  0.00    +0.127 A 
ATOM     28  C   UNL     1      -2.877  -8.235  -6.324  0.00  0.00    +0.038 A 
BRANCH  27  29
ATOM     29  N   UNL     1      -3.994  -7.482  -8.405  0.00  0.00    +0.056 N 
ATOM     30  O   UNL     1      -4.047  -7.491  -9.613  0.00  0.00    -0.126 OA
ATOM     31  O   UNL     1      -4.806  -6.850  -7.769  0.00  0.00    -0.126 OA
ENDBRANCH  27  29
ENDBRANCH  21  23
ENDBRANCH  19  21
ENDBRANCH  17  19
ENDBRANCH   5  17
TORSDOF 6
