REMARK  Name = ZINC02410983
REMARK  9 active torsions:
REMARK  status: ('A' for Active; 'I' for Inactive)
REMARK    1  A    between atoms: C_1  and  C_2
REMARK    2  A    between atoms: C_7  and  C_8
REMARK    3  A    between atoms: C_11  and  C_27
REMARK    4  A    between atoms: N_13  and  C_21
REMARK    5  A    between atoms: C_16  and  N_20
REMARK    6  A    between atoms: C_17  and  C_18
REMARK    7  A    between atoms: C_31  and  C_35
REMARK    8  A    between atoms: C_31  and  C_36
REMARK    9  A    between atoms: C_33  and  C_34
REMARK                            x       y       z     vdW  Elec       q    Type
REMARK                         _______ _______ _______ _____ _____    ______ ____
ROOT
ATOM      1  C   UNL     1      -1.028   7.224   0.094  0.00  0.00    +0.044 C 
ATOM      2  C   UNL     1      -0.434   5.839   0.067  0.00  0.00    -0.047 A 
ATOM      3  C   UNL     1       0.945   5.707   0.049  0.00  0.00    +0.013 A 
ATOM      4  C   UNL     1       1.527   4.451   0.025  0.00  0.00    -0.000 A 
ATOM      5  C   UNL     1       0.654   3.347   0.023  0.00  0.00    +0.050 A 
ATOM      6  C   UNL     1      -0.725   3.486   0.039  0.00  0.00    +0.002 A 
ATOM      7  C   UNL     1      -1.295   4.742   0.062  0.00  0.00    -0.041 A 
ATOM      8  C   UNL     1      -2.792   4.921   0.083  0.00  0.00    +0.044 C 
ATOM      9  C   UNL     1      -1.251   2.090   0.019  0.00  0.00    +0.145 C 
ATOM     10  C   UNL     1      -2.076   1.830  -1.210  0.00  0.00    +0.062 A 
ATOM     11  C   UNL     1      -1.685   1.743  -2.539  0.00  0.00    +0.069 A 
ATOM     12  N   UNL     1      -2.750   1.502  -3.267  0.00  0.00    -0.168 NA
ATOM     13  N   UNL     1      -3.863   1.426  -2.414  0.00  0.00    -0.200 N 
ATOM     14  C   UNL     1      -3.429   1.629  -1.152  0.00  0.00    +0.230 A 
ATOM     15  O   UNL     1      -4.121   1.649   0.014  0.00  0.00    -0.423 OA
ATOM     16  C   UNL     1      -3.420   1.604   1.165  0.00  0.00    +0.201 C 
ATOM     17  C   UNL     1      -2.082   1.798   1.237  0.00  0.00    +0.110 C 
ATOM     18  C   UNL     1      -0.278   1.900  -3.057  0.00  0.00    +0.068 C 
ATOM     19  C   UNL     1      -0.014   1.209   0.009  0.00  0.00    +0.241 C 
ATOM     20  O   UNL     1       0.002  -0.004   0.002  0.00  0.00    -0.273 OA
ATOM     21  N   UNL     1       1.061   2.020   0.003  0.00  0.00    -0.260 N 
ATOM     22  C   UNL     1       2.483   1.657  -0.021  0.00  0.00    +0.055 C 
ATOM     23  C   UNL     1       3.361   2.872  -0.020  0.00  0.00    +0.002 C 
ATOM     24  C   UNL     1       2.961   4.133   0.001  0.00  0.00    -0.043 C 
ATOM     25  C   UNL     1       3.979   5.245  -0.001  0.00  0.00    +0.044 C 
ATOM     26  C   UNL     1       2.803   0.807   1.210  0.00  0.00    +0.036 C 
ATOM     27  C   UNL     1       2.769   0.837  -1.281  0.00  0.00    +0.036 C 
ENDROOT
BRANCH  13  28
ATOM     28  C   UNL     1      -5.187   1.184  -2.804  0.00  0.00    +0.069 A 
ATOM     29  C   UNL     1      -6.028   0.440  -1.987  0.00  0.00    +0.028 A 
ATOM     30  C   UNL     1      -7.334   0.207  -2.372  0.00  0.00    +0.002 A 
ATOM     31  C   UNL     1      -7.801   0.705  -3.575  0.00  0.00    +0.000 A 
ATOM     32  C   UNL     1      -6.965   1.441  -4.393  0.00  0.00    +0.002 A 
ATOM     33  C   UNL     1      -5.659   1.682  -4.011  0.00  0.00    +0.028 A 
ENDBRANCH  13  28
BRANCH  16  34
ATOM     34  N   UNL     1      -4.101   1.347   2.329  0.00  0.00    -0.328 N 
ATOM     35  H   UNL     1      -3.623   1.308   3.172  0.00  0.00    +0.145 HD
ATOM     36  H   UNL     1      -5.060   1.203   2.308  0.00  0.00    +0.145 HD
ENDBRANCH  16  34
BRANCH  17  37
ATOM     37  C   UNL     1      -1.438   1.724   2.514  0.00  0.00    +0.102 C 
ATOM     38  N   UNL     1      -0.927   1.666   3.527  0.00  0.00    -0.191 NA
ENDBRANCH  17  37
TORSDOF 3
