REMARK  Name = ZINC06300821
REMARK  8 active torsions:
REMARK  status: ('A' for Active; 'I' for Inactive)
REMARK    1  A    between atoms: C_1  and  C_2
REMARK    2  A    between atoms: C_4  and  C_35
REMARK    3  A    between atoms: C_9  and  C_14
REMARK    4  A    between atoms: C_14  and  C_16
REMARK    5  A    between atoms: C_14  and  N_61
REMARK    6  A    between atoms: N_20  and  C_21
REMARK    7  A    between atoms: C_21  and  C_22
REMARK    8  A    between atoms: C_31  and  O_34
REMARK                            x       y       z     vdW  Elec       q    Type
REMARK                         _______ _______ _______ _____ _____    ______ ____
ROOT
ATOM      1  C   UNL     1       0.159   0.088   0.277  0.00  0.00    +0.039 C 
ENDROOT
BRANCH   1  10
ATOM      2  C   UNL     1      -0.544  -3.166   6.950  0.00  0.00    +0.044 C 
ATOM      3  C   UNL     1       0.239  -2.328   5.973  0.00  0.00    -0.050 A 
ATOM      4  C   UNL     1       1.482  -1.827   6.337  0.00  0.00    +0.008 A 
ATOM      5  C   UNL     1       2.215  -1.059   5.459  0.00  0.00    -0.026 A 
ATOM      6  C   UNL     1       1.707  -0.782   4.194  0.00  0.00    +0.052 A 
ATOM      7  C   UNL     1       0.447  -1.292   3.828  0.00  0.00    -0.001 A 
ATOM      8  C   UNL     1      -0.280  -2.069   4.736  0.00  0.00    +0.013 A 
ATOM      9  C   UNL     1      -0.079  -0.995   2.494  0.00  0.00    +0.017 A 
ATOM     10  C   UNL     1       0.671  -0.236   1.657  0.00  0.00    +0.011 A 
ATOM     11  C   UNL     1       1.931   0.247   2.071  0.00  0.00    +0.251 A 
ATOM     12  O   UNL     1       2.590   0.923   1.300  0.00  0.00    -0.268 OA
ATOM     13  N   UNL     1       2.419  -0.016   3.295  0.00  0.00    -0.322 N 
ATOM     14  H   UNL     1       3.288   0.335   3.549  0.00  0.00    +0.169 HD
ATOM     15  C   UNL     1       3.563  -0.521   5.867  0.00  0.00    +0.046 C 
ENDBRANCH   1  10
BRANCH   1  21
ATOM     16  C   UNL     1       1.517  -1.762  -0.495  0.00  0.00    -0.075 C 
ATOM     17  C   UNL     1       2.636  -2.151  -1.463  0.00  0.00    +0.013 C 
ATOM     18  C   UNL     1       2.147  -1.967  -2.902  0.00  0.00    +0.111 C 
ATOM     19  C   UNL     1       1.709  -0.513  -3.102  0.00  0.00    +0.013 C 
ATOM     20  C   UNL     1       0.616  -0.171  -2.086  0.00  0.00    -0.075 C 
ATOM     21  N   UNL     1       1.158  -0.345  -0.722  0.00  0.00    +0.389 N 
ATOM     22  H   UNL     1       2.001   0.232  -0.622  0.00  0.00    -0.080 HD
BRANCH  18  23
ATOM     23  O   UNL     1       3.207  -2.275  -3.810  0.00  0.00    -0.392 OA
ATOM     24  H   UNL     1       3.535  -3.182  -3.738  0.00  0.00    +0.210 HD
ENDBRANCH  18  23
ENDBRANCH   1  21
BRANCH   1  25
ATOM     25  C   UNL     1      -0.039   1.577   0.151  0.00  0.00    +0.143 A 
ATOM     26  N   UNL     1       0.882   2.501   0.269  0.00  0.00    -0.115 NA
ATOM     27  N   UNL     1       0.320   3.647   0.095  0.00  0.00    -0.023 NA
ATOM     28  N   UNL     1      -0.936   3.478  -0.131  0.00  0.00    -0.044 NA
ATOM     29  N   UNL     1      -1.196   2.214  -0.110  0.00  0.00    -0.226 N 
BRANCH  29  30
ATOM     30  C   UNL     1      -2.503   1.591  -0.326  0.00  0.00    +0.182 C 
BRANCH  30  31
ATOM     31  C   UNL     1      -3.208   1.429   0.997  0.00  0.00    -0.026 A 
ATOM     32  C   UNL     1      -3.145   0.224   1.670  0.00  0.00    +0.008 A 
ATOM     33  C   UNL     1      -3.786   0.076   2.885  0.00  0.00    +0.038 A 
ATOM     34  C   UNL     1      -4.500   1.133   3.423  0.00  0.00    +0.123 A 
ATOM     35  C   UNL     1      -4.567   2.339   2.746  0.00  0.00    +0.038 A 
ATOM     36  C   UNL     1      -3.920   2.486   1.533  0.00  0.00    +0.008 A 
ATOM     37  F   UNL     1      -5.131   0.988   4.609  0.00  0.00    -0.205 F 
ENDBRANCH  30  31
ENDBRANCH  29  30
ENDBRANCH   1  25
TORSDOF 6
