REMARK  Name = ZINC06198160
REMARK  15 active torsions:
REMARK  status: ('A' for Active; 'I' for Inactive)
REMARK    1  A    between atoms: C_1  and  C_2
REMARK    2  A    between atoms: C_2  and  C_3
REMARK    3  A    between atoms: C_10  and  C_15
REMARK    4  A    between atoms: C_15  and  C_17
REMARK    5  A    between atoms: C_15  and  N_78
REMARK    6  A    between atoms: N_21  and  C_22
REMARK    7  A    between atoms: C_22  and  C_23
REMARK    8  A    between atoms: C_22  and  C_24
REMARK    9  A    between atoms: C_22  and  C_25
REMARK   10  A    between atoms: C_25  and  C_26
REMARK   11  A    between atoms: C_27  and  C_28
REMARK   12  A    between atoms: C_27  and  N_78
REMARK   13  A    between atoms: C_28  and  C_29
REMARK   14  A    between atoms: C_35  and  C_36
REMARK   15  A    between atoms: C_35  and  N_78
REMARK                            x       y       z     vdW  Elec       q    Type
REMARK                         _______ _______ _______ _____ _____    ______ ____
ROOT
ATOM      1  C   UNL     1       6.095   0.023  -0.110  0.00  0.00    +0.039 C 
ENDROOT
BRANCH   1   9
ATOM      2  C   UNL     1       0.552   2.643  -0.943  0.00  0.00    -0.047 A 
ATOM      3  C   UNL     1       1.026   3.894  -1.317  0.00  0.00    +0.005 A 
ATOM      4  C   UNL     1       2.380   4.143  -1.381  0.00  0.00    +0.026 A 
ATOM      5  C   UNL     1       3.283   3.131  -1.070  0.00  0.00    +0.049 A 
ATOM      6  C   UNL     1       2.799   1.865  -0.692  0.00  0.00    -0.001 A 
ATOM      7  C   UNL     1       1.420   1.635  -0.633  0.00  0.00    +0.013 A 
ATOM      8  C   UNL     1       3.758   0.808  -0.365  0.00  0.00    +0.017 A 
ATOM      9  C   UNL     1       5.082   1.089  -0.440  0.00  0.00    +0.011 A 
ATOM     10  C   UNL     1       5.515   2.376  -0.824  0.00  0.00    +0.251 A 
ATOM     11  O   UNL     1       6.710   2.607  -0.884  0.00  0.00    -0.268 OA
ATOM     12  N   UNL     1       4.643   3.353  -1.125  0.00  0.00    -0.322 N 
ATOM     13  H   UNL     1       4.984   4.254  -1.394  0.00  0.00    +0.169 HD
BRANCH   2  15
ATOM     14  C   UNL     1      -1.426   1.896  -2.239  0.00  0.00    +0.009 C 
ATOM     15  C   UNL     1      -0.933   2.396  -0.879  0.00  0.00    +0.032 C 
ENDBRANCH   2  15
ENDBRANCH   1   9
BRANCH   1  16
ATOM     16  C   UNL     1       6.859   0.420   1.127  0.00  0.00    +0.143 A 
ATOM     17  N   UNL     1       7.698   1.421   1.240  0.00  0.00    -0.115 NA
ATOM     18  N   UNL     1       8.143   1.432   2.450  0.00  0.00    -0.023 NA
ATOM     19  N   UNL     1       7.608   0.465   3.110  0.00  0.00    -0.043 NA
ATOM     20  N   UNL     1       6.807  -0.179   2.331  0.00  0.00    -0.225 N 
BRANCH  20  21
ATOM     21  C   UNL     1       5.995  -1.345   2.688  0.00  0.00    +0.061 C 
ATOM     22  C   UNL     1       4.519  -1.040   2.422  0.00  0.00    +0.036 C 
ATOM     23  C   UNL     1       6.428  -2.545   1.844  0.00  0.00    +0.036 C 
BRANCH  21  24
ATOM     24  C   UNL     1       6.189  -1.667   4.171  0.00  0.00    +0.026 C 
ATOM     25  C   UNL     1       5.341  -2.884   4.544  0.00  0.00    +0.006 C 
ENDBRANCH  21  24
ENDBRANCH  20  21
ENDBRANCH   1  16
BRANCH   1  26
ATOM     26  N   UNL     1       7.040  -0.104  -1.240  0.00  0.00    +0.392 N 
ATOM     27  H   UNL     1       7.440   0.819  -1.445  0.00  0.00    -0.080 HD
BRANCH  26  28
ATOM     28  C   UNL     1       8.133  -1.032  -0.883  0.00  0.00    -0.072 C 
BRANCH  28  29
ATOM     29  C   UNL     1       9.228  -0.938  -1.948  0.00  0.00    +0.016 C 
BRANCH  29  30
ATOM     30  C   UNL     1      10.368  -1.851  -1.579  0.00  0.00    -0.049 A 
ATOM     31  C   UNL     1      11.410  -1.378  -0.804  0.00  0.00    +0.003 A 
ATOM     32  C   UNL     1      12.454  -2.217  -0.462  0.00  0.00    +0.000 A 
ATOM     33  C   UNL     1      12.460  -3.528  -0.902  0.00  0.00    +0.000 A 
ATOM     34  C   UNL     1      11.420  -4.000  -1.681  0.00  0.00    +0.000 A 
ATOM     35  C   UNL     1      10.374  -3.162  -2.019  0.00  0.00    +0.003 A 
ENDBRANCH  29  30
ENDBRANCH  28  29
ENDBRANCH  26  28
BRANCH  26  36
ATOM     36  C   UNL     1       6.330  -0.597  -2.439  0.00  0.00    -0.042 C 
BRANCH  36  37
ATOM     37  C   UNL     1       5.823  -1.998  -2.214  0.00  0.00    -0.064 A 
ATOM     38  C   UNL     1       6.607  -3.082  -2.564  0.00  0.00    +0.002 A 
ATOM     39  C   UNL     1       6.143  -4.367  -2.353  0.00  0.00    +0.000 A 
ATOM     40  C   UNL     1       4.892  -4.568  -1.801  0.00  0.00    +0.000 A 
ATOM     41  C   UNL     1       4.106  -3.484  -1.457  0.00  0.00    +0.000 A 
ATOM     42  C   UNL     1       4.571  -2.199  -1.663  0.00  0.00    +0.002 A 
ENDBRANCH  36  37
ENDBRANCH  26  36
ENDBRANCH   1  26
TORSDOF 11
