REMARK  Name = ZINC12769837
REMARK  10 active torsions:
REMARK  status: ('A' for Active; 'I' for Inactive)
REMARK    1  A    between atoms: C_1  and  C_2
REMARK    2  A    between atoms: C_2  and  O_3
REMARK    3  A    between atoms: O_3  and  C_4
REMARK    4  A    between atoms: C_9  and  C_10
REMARK    5  A    between atoms: C_10  and  N_56
REMARK    6  A    between atoms: C_11  and  C_13
REMARK    7  A    between atoms: C_11  and  C_14
REMARK    8  A    between atoms: C_11  and  N_56
REMARK    9  A    between atoms: C_20  and  C_25
REMARK   10  A    between atoms: C_31  and  C_34
REMARK                            x       y       z     vdW  Elec       q    Type
REMARK                         _______ _______ _______ _____ _____    ______ ____
ROOT
ATOM      1  C   UNL     1      -4.363   4.622   1.460  0.00  0.00    -0.007 C 
ATOM      2  C   UNL     1      -4.104   6.123   1.605  0.00  0.00    -0.006 C 
ENDROOT
BRANCH   1   3
ATOM      3  C   UNL     1      -5.165   4.134   2.639  0.00  0.00    +0.097 A 
ATOM      4  N   UNL     1      -6.346   4.734   2.937  0.00  0.00    -0.312 N 
ATOM      5  H   UNL     1      -6.657   5.470   2.387  0.00  0.00    +0.170 HD
ATOM      6  C   UNL     1      -7.092   4.329   3.981  0.00  0.00    +0.260 A 
ATOM      7  O   UNL     1      -8.150   4.879   4.236  0.00  0.00    -0.267 OA
ATOM      8  C   UNL     1      -6.625   3.243   4.787  0.00  0.00    +0.080 A 
ATOM      9  C   UNL     1      -7.245   2.629   5.957  0.00  0.00    +0.010 A 
ATOM     10  C   UNL     1      -6.606   1.598   6.565  0.00  0.00    +0.057 A 
ATOM     11  S   UNL     1      -5.127   1.395   5.592  0.00  0.00    -0.076 S 
ATOM     12  C   UNL     1      -5.395   2.685   4.403  0.00  0.00    +0.116 A 
ATOM     13  N   UNL     1      -4.715   3.138   3.353  0.00  0.00    -0.228 NA
BRANCH   9  14
ATOM     14  C   UNL     1      -8.542   3.119   6.468  0.00  0.00    +0.021 A 
ATOM     15  C   UNL     1      -9.672   2.410   6.774  0.00  0.00    +0.016 A 
ATOM     16  C   UNL     1     -10.775   3.093   7.244  0.00  0.00    +0.008 A 
ATOM     17  C   UNL     1     -10.710   4.441   7.379  0.00  0.00    +0.046 A 
ATOM     18  S   UNL     1      -9.045   4.792   6.838  0.00  0.00    -0.097 S 
ENDBRANCH   9  14
ENDBRANCH   1   3
BRANCH   1  19
ATOM     19  N   UNL     1      -3.077   3.901   1.417  0.00  0.00    +0.388 N 
ATOM     20  H   UNL     1      -2.404   4.373   2.034  0.00  0.00    -0.084 HD
ATOM     21  H   UNL     1      -3.218   2.937   1.740  0.00  0.00    -0.084 HD
BRANCH  19  22
ATOM     22  C   UNL     1      -2.545   3.882   0.042  0.00  0.00    -0.042 C 
BRANCH  22  28
ATOM     23  C   UNL     1      -1.224   1.754   0.017  0.00  0.00    +0.122 A 
ATOM     24  C   UNL     1      -0.013   1.076   0.008  0.00  0.00    +0.053 A 
ATOM     25  C   UNL     1       1.170   1.781   0.001  0.00  0.00    +0.001 A 
ATOM     26  C   UNL     1       1.171   3.170   0.014  0.00  0.00    +0.125 A 
ATOM     27  C   UNL     1      -0.047   3.845   0.026  0.00  0.00    +0.051 A 
ATOM     28  C   UNL     1      -1.233   3.141   0.029  0.00  0.00    -0.019 A 
ATOM     29  O   UNL     1       2.441   3.662   0.019  0.00  0.00    -0.488 OA
ATOM     30  C   UNL     1       3.346   2.641  -0.436  0.00  0.00    +0.175 C 
ATOM     31  C   UNL     1       2.619   1.336  -0.033  0.00  0.00    +0.083 C 
ATOM     32  C   UNL     1       3.528   2.715  -1.953  0.00  0.00    +0.052 C 
BRANCH  23  33
ATOM     33  O   UNL     1      -2.394   1.063   0.019  0.00  0.00    -0.492 OA
BRANCH  33  35
ATOM     34  C   UNL     1      -3.713  -0.963   0.014  0.00  0.00    +0.048 C 
ATOM     35  C   UNL     1      -2.305  -0.364   0.011  0.00  0.00    +0.225 C 
ENDBRANCH  33  35
ENDBRANCH  23  33
ENDBRANCH  22  28
ENDBRANCH  19  22
ENDBRANCH   1  19
TORSDOF 7
