REMARK  Name = ZINC63530462
REMARK  12 active torsions:
REMARK  status: ('A' for Active; 'I' for Inactive)
REMARK    1  A    between atoms: C_1  and  C_2
REMARK    2  A    between atoms: C_2  and  C_3
REMARK    3  A    between atoms: C_2  and  N_4
REMARK    4  A    between atoms: N_4  and  C_5
REMARK    5  A    between atoms: N_4  and  C_29
REMARK    6  A    between atoms: C_5  and  C_6
REMARK    7  A    between atoms: C_6  and  C_7
REMARK    8  A    between atoms: C_7  and  N_8
REMARK    9  A    between atoms: C_9  and  C_11
REMARK   10  A    between atoms: C_13  and  S_21
REMARK   11  A    between atoms: S_21  and  C_22
REMARK   12  A    between atoms: C_29  and  C_30
REMARK                            x       y       z     vdW  Elec       q    Type
REMARK                         _______ _______ _______ _____ _____    ______ ____
ROOT
ATOM      1  N   UNL     1      -1.676  -5.161   3.433  0.00  0.00    -0.313 N 
ATOM      2  C   UNL     1      -1.688  -6.462   3.080  0.00  0.00    +0.240 C 
ATOM      3  O   UNL     1      -2.309  -6.819   2.101  0.00  0.00    -0.273 OA
ATOM      4  H   UNL     1      -1.180  -4.876   4.216  0.00  0.00    +0.149 HD
ENDROOT
BRANCH   2   5
ATOM      5  C   UNL     1      -0.931  -7.473   3.902  0.00  0.00    +0.204 C 
ATOM      6  C   UNL     1      -1.740  -7.865   5.119  0.00  0.00    +0.030 C 
ATOM      7  C   UNL     1      -1.960  -9.233   4.999  0.00  0.00    +0.010 A 
ATOM      8  C   UNL     1      -2.643 -10.163   5.814  0.00  0.00    +0.011 A 
ATOM      9  C   UNL     1      -2.700 -11.468   5.444  0.00  0.00    +0.001 A 
ATOM     10  C   UNL     1      -2.097 -11.922   4.269  0.00  0.00    +0.002 A 
ATOM     11  C   UNL     1      -1.425 -11.084   3.441  0.00  0.00    +0.026 A 
ATOM     12  C   UNL     1      -1.324  -9.707   3.761  0.00  0.00    +0.044 A 
ATOM     13  N   UNL     1      -0.734  -8.704   3.131  0.00  0.00    -0.369 N 
ATOM     14  H   UNL     1      -0.249  -8.772   2.294  0.00  0.00    +0.161 HD
BRANCH   6  15
ATOM     15  S   UNL     1      -2.255  -6.870   6.343  0.00  0.00    -0.091 S 
BRANCH  15  16
ATOM     16  C   UNL     1      -0.764  -6.332   7.112  0.00  0.00    +0.013 A 
ATOM     17  C   UNL     1       0.456  -6.866   6.716  0.00  0.00    +0.016 A 
ATOM     18  C   UNL     1       1.623  -6.443   7.320  0.00  0.00    +0.021 A 
ATOM     19  C   UNL     1       1.579  -5.487   8.320  0.00  0.00    +0.041 A 
ATOM     20  C   UNL     1       0.365  -4.953   8.717  0.00  0.00    +0.021 A 
ATOM     21  C   UNL     1      -0.804  -5.368   8.112  0.00  0.00    +0.016 A 
ATOM     22 CL   UNL     1       3.048  -4.958   9.078  0.00  0.00    -0.084 Cl
ENDBRANCH  15  16
ENDBRANCH   6  15
ENDBRANCH   2   5
BRANCH   1  23
ATOM     23  C   UNL     1      -2.412  -4.178   2.634  0.00  0.00    +0.102 C 
BRANCH  23  24
ATOM     24  C   UNL     1      -2.234  -2.787   3.246  0.00  0.00    +0.000 C 
BRANCH  24  25
ATOM     25  C   UNL     1      -3.003  -1.761   2.411  0.00  0.00    -0.076 C 
BRANCH  25  26
ATOM     26  N   UNL     1      -2.844  -0.428   3.007  0.00  0.00    +0.384 N 
ATOM     27  H   UNL     1      -3.117  -0.458   3.977  0.00  0.00    -0.081 HD
BRANCH  26  29
ATOM     28  C   UNL     1      -1.089   0.254   1.440  0.00  0.00    -0.014 C 
ATOM     29  C   UNL     1      -1.439  -0.011   2.906  0.00  0.00    -0.074 C 
ATOM     30  C   UNL     1      -1.226   1.267   3.720  0.00  0.00    -0.014 C 
ENDBRANCH  26  29
BRANCH  26  31
ATOM     31  C   UNL     1      -3.692   0.533   2.289  0.00  0.00    -0.043 C 
BRANCH  31  32
ATOM     32  C   UNL     1      -3.698   1.847   3.028  0.00  0.00    -0.064 A 
ATOM     33  C   UNL     1      -4.036   1.885   4.368  0.00  0.00    +0.002 A 
ATOM     34  C   UNL     1      -4.042   3.090   5.045  0.00  0.00    +0.000 A 
ATOM     35  C   UNL     1      -3.709   4.257   4.383  0.00  0.00    +0.000 A 
ATOM     36  C   UNL     1      -3.370   4.219   3.043  0.00  0.00    +0.000 A 
ATOM     37  C   UNL     1      -3.360   3.013   2.367  0.00  0.00    +0.002 A 
ENDBRANCH  31  32
ENDBRANCH  26  31
ENDBRANCH  25  26
ENDBRANCH  24  25
ENDBRANCH  23  24
ENDBRANCH   1  23
TORSDOF 10
