REMARK  Name = ZINC59398521
REMARK  9 active torsions:
REMARK  status: ('A' for Active; 'I' for Inactive)
REMARK    1  A    between atoms: C_1  and  C_2
REMARK    2  A    between atoms: C_2  and  C_3
REMARK    3  A    between atoms: C_3  and  C_4
REMARK    4  A    between atoms: C_5  and  C_34
REMARK    5  A    between atoms: C_6  and  C_25
REMARK    6  A    between atoms: C_12  and  C_13
REMARK    7  A    between atoms: C_34  and  O_36
REMARK    8  A    between atoms: O_36  and  C_37
REMARK    9  A    between atoms: C_37  and  C_38
REMARK                            x       y       z     vdW  Elec       q    Type
REMARK                         _______ _______ _______ _____ _____    ______ ____
ROOT
ATOM      1  C   UNL     1      -0.231  -2.041  -0.077  0.00  0.00    +0.056 C 
ATOM      2  C   UNL     1      -0.005  -2.749   1.070  0.00  0.00    +0.085 C 
ATOM      3  C   UNL     1      -0.142  -4.253   1.017  0.00  0.00    +0.162 C 
ATOM      4  N   UNL     1      -0.516  -4.856  -0.293  0.00  0.00    -0.275 N 
ATOM      5  C   UNL     1      -0.685  -6.162  -0.539  0.00  0.00    +0.268 A 
ATOM      6  O   UNL     1      -0.535  -6.989   0.341  0.00  0.00    -0.266 OA
ATOM      7  C   UNL     1      -1.056  -6.565  -1.902  0.00  0.00    +0.081 A 
ATOM      8  C   UNL     1      -1.283  -7.807  -2.404  0.00  0.00    +0.028 C 
ATOM      9  S   UNL     1      -1.128  -4.979  -2.721  0.00  0.00    -0.046 S 
ATOM     10  C   UNL     1      -0.698  -3.962  -1.323  0.00  0.00    +0.178 A 
ATOM     11  N   UNL     1      -0.566  -2.665  -1.200  0.00  0.00    -0.227 NA
ENDROOT
BRANCH   8  12
ATOM     12  C   UNL     1      -1.337  -8.964  -1.502  0.00  0.00    -0.020 A 
ATOM     13  C   UNL     1      -0.794 -10.191  -1.900  0.00  0.00    +0.012 A 
ATOM     14  C   UNL     1      -0.846 -11.275  -1.052  0.00  0.00    +0.050 A 
ATOM     15  C   UNL     1      -1.437 -11.156   0.200  0.00  0.00    +0.166 A 
ATOM     16  C   UNL     1      -1.981  -9.935   0.604  0.00  0.00    +0.167 A 
ATOM     17  C   UNL     1      -1.927  -8.842  -0.238  0.00  0.00    +0.057 A 
ATOM     18  O   UNL     1      -2.495 -10.083   1.861  0.00  0.00    -0.453 OA
ATOM     19  C   UNL     1      -2.627 -11.503   2.057  0.00  0.00    +0.466 C 
ATOM     20  O   UNL     1      -1.611 -12.063   1.203  0.00  0.00    -0.453 OA
ENDBRANCH   8  12
BRANCH   3  21
ATOM     21  C   UNL     1      -1.183  -4.660   2.027  0.00  0.00    -0.016 A 
ATOM     22  C   UNL     1      -2.526  -4.546   1.718  0.00  0.00    +0.010 A 
ATOM     23  C   UNL     1      -3.485  -4.918   2.641  0.00  0.00    +0.050 A 
ATOM     24  C   UNL     1      -3.102  -5.406   3.880  0.00  0.00    +0.166 A 
ATOM     25  C   UNL     1      -1.750  -5.520   4.192  0.00  0.00    +0.167 A 
ATOM     26  C   UNL     1      -0.794  -5.151   3.259  0.00  0.00    +0.055 A 
ATOM     27  O   UNL     1      -1.634  -6.020   5.457  0.00  0.00    -0.453 OA
ATOM     28  C   UNL     1      -2.925  -5.826   6.066  0.00  0.00    +0.466 C 
ATOM     29  O   UNL     1      -3.834  -5.834   4.950  0.00  0.00    -0.453 OA
ENDBRANCH   3  21
BRANCH   2  30
ATOM     30  C   UNL     1       0.344  -2.097   2.264  0.00  0.00    +0.339 C 
ATOM     31  O   UNL     1       0.385  -0.880   2.304  0.00  0.00    -0.245 OA
BRANCH  30  32
ATOM     32  O   UNL     1       0.636  -2.819   3.367  0.00  0.00    -0.462 OA
BRANCH  32  33
ATOM     33  C   UNL     1       0.984  -2.091   4.546  0.00  0.00    +0.229 C 
ATOM     34  C   UNL     1       1.279  -3.071   5.684  0.00  0.00    +0.048 C 
ENDBRANCH  32  33
ENDBRANCH  30  32
ENDBRANCH   2  30
BRANCH   1  35
ATOM     35  C   UNL     1      -0.105  -0.540  -0.066  0.00  0.00    +0.056 C 
BRANCH  35  37
ATOM     36  C   UNL     1       1.492   1.375  -0.233  0.00  0.00    +0.004 C 
ATOM     37  C   UNL     1       1.364  -0.150  -0.244  0.00  0.00    +0.003 C 
ENDBRANCH  35  37
ENDBRANCH   1  35
TORSDOF 7
