REMARK  Name = ZINC05017447
REMARK  6 active torsions:
REMARK  status: ('A' for Active; 'I' for Inactive)
REMARK    1  A    between atoms: C_1  and  C_2
REMARK    2  A    between atoms: C_2  and  N_3
REMARK    3  A    between atoms: N_3  and  C_4
REMARK    4  A    between atoms: N_3  and  C_6
REMARK    5  A    between atoms: C_4  and  C_5
REMARK    6  A    between atoms: C_9  and  C_12
REMARK                            x       y       z     vdW  Elec       q    Type
REMARK                         _______ _______ _______ _____ _____    ______ ____
ROOT
ATOM      1  C   UNL     1      -1.302  -6.165   0.447  0.00  0.00    +0.166 C 
ATOM      2  N   UNL     1      -1.422  -6.598   1.860  0.00  0.00    -0.225 NA
ATOM      3  N   UNL     1      -2.524  -7.324   2.113  0.00  0.00    -0.273 N 
ATOM      4  C   UNL     1      -3.425  -7.621   1.149  0.00  0.00    +0.088 C 
ATOM      5  C   UNL     1      -4.617  -8.373   1.291  0.00  0.00    +0.050 C 
ATOM      6  C   UNL     1      -4.979  -8.902   2.539  0.00  0.00    +0.014 C 
ATOM      7  C   UNL     1      -6.128  -9.624   2.666  0.00  0.00    +0.001 C 
ATOM      8  C   UNL     1      -6.953  -9.847   1.569  0.00  0.00    +0.004 C 
ATOM      9  C   UNL     1      -6.632  -9.349   0.341  0.00  0.00    +0.051 C 
ATOM     10  C   UNL     1      -5.461  -8.595   0.174  0.00  0.00    +0.188 C 
ATOM     11  O   UNL     1      -5.168  -8.139  -0.925  0.00  0.00    -0.287 OA
ATOM     12  S   UNL     1      -2.831  -6.906  -0.254  0.00  0.00    -0.083 S 
ATOM     13  H   UNL     1      -1.357  -5.809   2.486  0.00  0.00    +0.146 HD
ATOM     14  H   UNL     1      -2.677  -7.647   3.015  0.00  0.00    +0.167 HD
ENDROOT
BRANCH   1  18
ATOM     15  C   UNL     1      -1.358  -1.906   0.120  0.00  0.00    +0.013 A 
ATOM     16  C   UNL     1      -0.724  -2.666  -0.846  0.00  0.00    +0.022 A 
ATOM     17  C   UNL     1      -0.706  -4.044  -0.740  0.00  0.00    +0.008 A 
ATOM     18  C   UNL     1      -1.321  -4.663   0.332  0.00  0.00    -0.019 A 
ATOM     19  C   UNL     1      -1.954  -3.903   1.298  0.00  0.00    +0.008 A 
ATOM     20  C   UNL     1      -1.968  -2.525   1.194  0.00  0.00    +0.022 A 
BRANCH  15  21
ATOM     21  N   UNL     1      -1.376  -0.512   0.012  0.00  0.00    -0.394 NA
ATOM     22  H   UNL     1      -1.873  -0.121   0.799  0.00  0.00    +0.126 HD
BRANCH  21  24
ATOM     23  C   UNL     1      -0.019   1.526   0.010  0.00  0.00    +0.022 C 
ATOM     24  C   UNL     1       0.002  -0.004   0.002  0.00  0.00    +0.081 C 
ENDBRANCH  21  24
BRANCH  21  25
ATOM     25  C   UNL     1      -2.050  -0.126  -1.234  0.00  0.00    +0.081 C 
ATOM     26  C   UNL     1      -3.520  -0.547  -1.171  0.00  0.00    +0.022 C 
ENDBRANCH  21  25
ENDBRANCH  15  21
ENDBRANCH   1  18
TORSDOF 4
