REMARK  Name = ZINC13126181
REMARK  9 active torsions:
REMARK  status: ('A' for Active; 'I' for Inactive)
REMARK    1  A    between atoms: C_1  and  C_2
REMARK    2  A    between atoms: C_2  and  C_4
REMARK    3  A    between atoms: C_2  and  S_19
REMARK    4  A    between atoms: C_16  and  C_17
REMARK    5  A    between atoms: C_16  and  C_18
REMARK    6  A    between atoms: S_19  and  C_20
REMARK    7  A    between atoms: C_23  and  C_32
REMARK    8  A    between atoms: N_24  and  C_25
REMARK    9  A    between atoms: C_25  and  C_26
REMARK                            x       y       z     vdW  Elec       q    Type
REMARK                         _______ _______ _______ _____ _____    ______ ____
ROOT
ATOM      1  S   UNL     1      -4.633  -0.392  -0.867  0.00  0.00    -0.073 S 
ENDROOT
BRANCH   1   2
ATOM      2  C   UNL     1      -3.610  -1.724  -1.399  0.00  0.00    +0.193 A 
ATOM      3  N   UNL     1      -2.410  -1.623  -1.928  0.00  0.00    -0.122 NA
ATOM      4  N   UNL     1      -1.948  -2.791  -2.200  0.00  0.00    -0.128 NA
ATOM      5  C   UNL     1      -2.824  -3.709  -1.862  0.00  0.00    +0.165 A 
ATOM      6  N   UNL     1      -3.913  -3.053  -1.334  0.00  0.00    -0.298 N 
BRANCH   5   7
ATOM      7  C   UNL     1      -2.668  -5.170  -2.014  0.00  0.00    +0.022 A 
ATOM      8  C   UNL     1      -3.749  -5.974  -2.398  0.00  0.00    +0.031 A 
ATOM      9  C   UNL     1      -3.557  -7.333  -2.532  0.00  0.00    +0.111 A 
ATOM     10  N   UNL     1      -2.378  -7.878  -2.295  0.00  0.00    -0.263 NA
ATOM     11  C   UNL     1      -1.335  -7.158  -1.927  0.00  0.00    +0.111 A 
ATOM     12  C   UNL     1      -1.436  -5.792  -1.773  0.00  0.00    +0.031 A 
ENDBRANCH   5   7
BRANCH   6  13
ATOM     13  C   UNL     1      -5.142  -3.657  -0.814  0.00  0.00    +0.161 C 
BRANCH  13  14
ATOM     14  C   UNL     1      -4.954  -4.005   0.640  0.00  0.00    -0.028 A 
ATOM     15  C   UNL     1      -4.376  -5.210   0.993  0.00  0.00    +0.005 A 
ATOM     16  C   UNL     1      -4.199  -5.527   2.327  0.00  0.00    +0.000 A 
ATOM     17  C   UNL     1      -4.610  -4.644   3.308  0.00  0.00    +0.000 A 
ATOM     18  C   UNL     1      -5.193  -3.442   2.955  0.00  0.00    +0.000 A 
ATOM     19  C   UNL     1      -5.365  -3.122   1.621  0.00  0.00    +0.005 A 
ENDBRANCH  13  14
ENDBRANCH   6  13
ENDBRANCH   1   2
BRANCH   1  21
ATOM     20  C   UNL     1      -3.364   1.087  -2.781  0.00  0.00    +0.029 C 
ATOM     21  C   UNL     1      -3.559   1.008  -1.266  0.00  0.00    +0.137 C 
BRANCH  21  22
ATOM     22  C   UNL     1      -4.193   2.284  -0.774  0.00  0.00    +0.234 C 
ATOM     23  O   UNL     1      -5.319   2.267  -0.324  0.00  0.00    -0.274 OA
ATOM     24  N   UNL     1      -3.508   3.444  -0.835  0.00  0.00    -0.255 N 
ATOM     25  C   UNL     1      -4.140   4.671  -0.581  0.00  0.00    +0.059 A 
ATOM     26  C   UNL     1      -5.486   4.850  -0.844  0.00  0.00    +0.025 A 
ATOM     27  C   UNL     1      -6.077   6.076  -0.594  0.00  0.00    +0.002 A 
ATOM     28  C   UNL     1      -5.329   7.116  -0.073  0.00  0.00    +0.002 A 
ATOM     29  C   UNL     1      -3.984   6.941   0.200  0.00  0.00    +0.025 A 
ATOM     30  C   UNL     1      -3.383   5.718  -0.052  0.00  0.00    +0.055 A 
ATOM     31  N   UNL     1      -2.025   5.519   0.222  0.00  0.00    -0.282 N 
ATOM     32  C   UNL     1      -1.375   4.447  -0.269  0.00  0.00    +0.241 C 
ATOM     33  O   UNL     1      -0.209   4.270   0.018  0.00  0.00    -0.273 OA
ATOM     34  C   UNL     1      -2.077   3.463  -1.170  0.00  0.00    +0.113 C 
ATOM     35  C   UNL     1      -1.898   3.888  -2.629  0.00  0.00    +0.042 C 
ATOM     36  C   UNL     1      -1.484   2.068  -0.965  0.00  0.00    +0.042 C 
ATOM     37  H   UNL     1      -1.547   6.160   0.771  0.00  0.00    +0.155 HD
ENDBRANCH  21  22
ENDBRANCH   1  21
TORSDOF 6
