REMARK  Name = ZINC09041630
REMARK  3 active torsions:
REMARK  status: ('A' for Active; 'I' for Inactive)
REMARK    1  A    between atoms: C_4  and  C_7
REMARK    2  A    between atoms: N_17  and  N_18
REMARK    3  A    between atoms: C_19  and  C_20
REMARK                            x       y       z     vdW  Elec       q    Type
REMARK                         _______ _______ _______ _____ _____    ______ ____
ROOT
ATOM      1  C   UNL     1      -6.656  -2.058   0.018  0.00  0.00    +0.084 A 
ATOM      2  C   UNL     1      -5.765  -3.142  -0.189  0.00  0.00    +0.028 A 
ATOM      3  C   UNL     1      -6.222  -4.448  -0.396  0.00  0.00    +0.027 A 
ATOM      4  C   UNL     1      -5.319  -5.453  -0.591  0.00  0.00    +0.019 A 
ATOM      5  C   UNL     1      -3.950  -5.196  -0.585  0.00  0.00    +0.017 A 
ATOM      6  C   UNL     1      -3.473  -3.935  -0.386  0.00  0.00    +0.029 A 
ATOM      7  C   UNL     1      -4.373  -2.878  -0.183  0.00  0.00    +0.077 A 
ATOM      8  N   UNL     1      -3.955  -1.621   0.017  0.00  0.00    -0.213 NA
ATOM      9  C   UNL     1      -4.828  -0.648   0.205  0.00  0.00    +0.236 A 
ATOM     10  N   UNL     1      -6.142  -0.852   0.212  0.00  0.00    -0.213 NA
ATOM     11  N   UNL     1      -4.355   0.635   0.408  0.00  0.00    -0.205 N 
ATOM     12 BR   UNL     1      -5.936  -7.219  -0.870  0.00  0.00    -0.050 Br
ATOM     13  H   UNL     1      -4.979   1.365   0.548  0.00  0.00    +0.177 HD
ENDROOT
BRANCH   1  17
ATOM     14  C   UNL     1     -10.862  -2.665   0.034  0.00  0.00    +0.000 A 
ATOM     15  C   UNL     1     -10.037  -3.543   0.714  0.00  0.00    +0.001 A 
ATOM     16  C   UNL     1      -8.670  -3.351   0.713  0.00  0.00    +0.010 A 
ATOM     17  C   UNL     1      -8.121  -2.270   0.024  0.00  0.00    +0.001 A 
ATOM     18  C   UNL     1      -8.959  -1.385  -0.655  0.00  0.00    +0.010 A 
ATOM     19  C   UNL     1     -10.323  -1.591  -0.652  0.00  0.00    +0.001 A 
ENDBRANCH   1  17
BRANCH  11  20
ATOM     20  N   UNL     1      -2.976   0.882   0.411  0.00  0.00    -0.187 NA
ATOM     21  C   UNL     1      -2.532   2.087   0.602  0.00  0.00    +0.140 C 
BRANCH  21  22
ATOM     22  C   UNL     1      -1.083   2.346   0.606  0.00  0.00    +0.020 A 
ATOM     23  C   UNL     1      -0.472   3.546   0.794  0.00  0.00    +0.093 A 
ATOM     24  N   UNL     1       0.882   3.389   0.723  0.00  0.00    -0.360 N 
ATOM     25  H   UNL     1       1.529   4.105   0.822  0.00  0.00    +0.165 HD
ATOM     26  C   UNL     1       1.197   2.068   0.489  0.00  0.00    +0.047 A 
ATOM     27  C   UNL     1      -0.010   1.354   0.409  0.00  0.00    +0.008 A 
ATOM     28  C   UNL     1       0.005  -0.019   0.178  0.00  0.00    +0.010 A 
ATOM     29  C   UNL     1       1.208  -0.672   0.028  0.00  0.00    +0.001 A 
ATOM     30  C   UNL     1       2.402   0.031   0.107  0.00  0.00    +0.002 A 
ATOM     31  C   UNL     1       2.402   1.390   0.335  0.00  0.00    +0.026 A 
ENDBRANCH  21  22
ENDBRANCH  11  20
TORSDOF 3
