REMARK  Name = ZINC16167887
REMARK  7 active torsions:
REMARK  status: ('A' for Active; 'I' for Inactive)
REMARK    1  A    between atoms: C_6  and  C_7
REMARK    2  A    between atoms: C_7  and  C_12
REMARK    3  A    between atoms: C_12  and  O_14
REMARK    4  A    between atoms: O_14  and  C_15
REMARK    5  A    between atoms: C_15  and  C_16
REMARK    6  A    between atoms: C_25  and  S_27
REMARK    7  A    between atoms: S_27  and  N_30
REMARK                            x       y       z     vdW  Elec       q    Type
REMARK                         _______ _______ _______ _____ _____    ______ ____
ROOT
ATOM      1  O   UNL     1       4.934   1.032   1.191  0.00  0.00    -0.455 OA
ENDROOT
BRANCH   1   2
ATOM      2  C   UNL     1       4.580  -0.259   1.093  0.00  0.00    +0.318 C 
ATOM      3  O   UNL     1       4.958  -1.054   1.921  0.00  0.00    -0.250 OA
BRANCH   2   4
ATOM      4  C   UNL     1       3.709  -0.718  -0.048  0.00  0.00    +0.093 C 
ATOM      5  C   UNL     1       4.430  -0.478  -1.391  0.00  0.00    +0.023 C 
ATOM      6  C   UNL     1       5.097  -1.839  -1.712  0.00  0.00    +0.001 C 
ATOM      7  C   UNL     1       4.038  -2.862  -1.231  0.00  0.00    +0.001 C 
ATOM      8  C   UNL     1       3.461  -2.233   0.054  0.00  0.00    +0.023 C 
BRANCH   4  14
ATOM      9  C   UNL     1       2.100   0.869   1.025  0.00  0.00    +0.008 A 
ATOM     10  C   UNL     1       0.897   1.549   1.049  0.00  0.00    +0.050 A 
ATOM     11  C   UNL     1      -0.015   1.385   0.018  0.00  0.00    +0.162 A 
ATOM     12  C   UNL     1       0.285   0.536  -1.041  0.00  0.00    +0.162 A 
ATOM     13  C   UNL     1       1.493  -0.145  -1.059  0.00  0.00    +0.054 A 
ATOM     14  C   UNL     1       2.397   0.023  -0.027  0.00  0.00    -0.027 A 
ATOM     15  O   UNL     1      -0.593   0.366  -2.068  0.00  0.00    -0.485 OA
ATOM     16  C   UNL     1      -1.945   0.772  -1.832  0.00  0.00    +0.270 C 
ATOM     17  C   UNL     1      -1.924   2.157  -1.172  0.00  0.00    +0.270 C 
ATOM     18  O   UNL     1      -1.200   2.054   0.060  0.00  0.00    -0.485 OA
ENDBRANCH   4  14
ENDBRANCH   2   4
ENDBRANCH   1   2
BRANCH   1  19
ATOM     19  C   UNL     1       5.773   1.402   2.317  0.00  0.00    +0.328 C 
BRANCH  19  20
ATOM     20  C   UNL     1       6.066   2.879   2.261  0.00  0.00    +0.258 C 
ATOM     21  O   UNL     1       5.611   3.554   1.361  0.00  0.00    -0.272 OA
ATOM     22  N   UNL     1       6.832   3.450   3.211  0.00  0.00    -0.268 N 
ATOM     23  C   UNL     1       7.430   2.743   4.346  0.00  0.00    +0.118 C 
ATOM     24  C   UNL     1       8.204   3.816   5.128  0.00  0.00    +0.056 C 
ATOM     25  C   UNL     1       7.969   5.094   4.355  0.00  0.00    -0.023 A 
ATOM     26  C   UNL     1       7.169   4.807   3.260  0.00  0.00    +0.040 A 
ATOM     27  C   UNL     1       6.814   5.839   2.391  0.00  0.00    +0.026 A 
ATOM     28  C   UNL     1       7.255   7.125   2.621  0.00  0.00    +0.030 A 
ATOM     29  C   UNL     1       8.053   7.402   3.715  0.00  0.00    +0.105 A 
ATOM     30  C   UNL     1       8.409   6.384   4.582  0.00  0.00    +0.034 A 
BRANCH  29  31
ATOM     31  S   UNL     1       8.615   9.046   4.006  0.00  0.00    +0.056 S 
ATOM     32  O   UNL     1       9.794   8.939   4.791  0.00  0.00    -0.153 OA
ATOM     33  O   UNL     1       8.594   9.710   2.750  0.00  0.00    -0.153 OA
BRANCH  31  34
ATOM     34  N   UNL     1       7.481   9.791   4.955  0.00  0.00    -0.204 NA
ATOM     35  H   UNL     1       6.690   9.306   5.237  0.00  0.00    +0.144 HD
ATOM     36  H   UNL     1       7.607  10.713   5.228  0.00  0.00    +0.144 HD
ENDBRANCH  31  34
ENDBRANCH  29  31
ENDBRANCH  19  20
ENDBRANCH   1  19
TORSDOF 7
