REMARK  Name = ZINC11416211
REMARK  8 active torsions:
REMARK  status: ('A' for Active; 'I' for Inactive)
REMARK    1  A    between atoms: C_1  and  C_2
REMARK    2  A    between atoms: C_2  and  C_4
REMARK    3  A    between atoms: C_2  and  N_58
REMARK    4  A    between atoms: C_7  and  S_16
REMARK    5  A    between atoms: N_8  and  C_9
REMARK    6  A    between atoms: S_16  and  C_17
REMARK    7  A    between atoms: C_17  and  C_18
REMARK    8  A    between atoms: C_20  and  C_23
REMARK                            x       y       z     vdW  Elec       q    Type
REMARK                         _______ _______ _______ _____ _____    ______ ____
ROOT
ATOM      1  C   UNL     1       6.534  10.892   1.669  0.00  0.00    +0.125 A 
ATOM      2  N   UNL     1       6.391  10.635   0.399  0.00  0.00    -0.135 NA
ATOM      3  N   UNL     1       5.827   9.491   0.240  0.00  0.00    -0.122 NA
ATOM      4  C   UNL     1       5.569   8.953   1.409  0.00  0.00    +0.197 A 
ATOM      5  N   UNL     1       6.015   9.830   2.360  0.00  0.00    -0.275 N 
ENDROOT
BRANCH   5   6
ATOM      6  C   UNL     1       5.954   9.673   3.753  0.00  0.00    +0.050 A 
ATOM      7  C   UNL     1       5.178  10.534   4.516  0.00  0.00    +0.029 A 
ATOM      8  C   UNL     1       5.115  10.375   5.887  0.00  0.00    +0.040 A 
ATOM      9  C   UNL     1       5.835   9.364   6.501  0.00  0.00    +0.124 A 
ATOM     10  C   UNL     1       6.614   8.507   5.742  0.00  0.00    +0.040 A 
ATOM     11  C   UNL     1       6.675   8.660   4.370  0.00  0.00    +0.029 A 
ATOM     12  F   UNL     1       5.777   9.213   7.842  0.00  0.00    -0.205 F 
ENDBRANCH   5   6
BRANCH   1  14
ATOM     13  C   UNL     1       6.178  13.301   2.139  0.00  0.00    -0.005 C 
ATOM     14  C   UNL     1       7.154  12.129   2.265  0.00  0.00    -0.002 C 
BRANCH  14  20
ATOM     15  C   UNL     1       9.320  11.306   1.564  0.00  0.00    -0.078 C 
ATOM     16  C   UNL     1      10.536  11.620   0.690  0.00  0.00    -0.019 C 
ATOM     17  C   UNL     1      11.235  12.872   1.227  0.00  0.00    -0.004 C 
ATOM     18  C   UNL     1      10.238  14.034   1.247  0.00  0.00    -0.019 C 
ATOM     19  C   UNL     1       9.031  13.650   2.105  0.00  0.00    -0.078 C 
ATOM     20  N   UNL     1       8.389  12.453   1.521  0.00  0.00    +0.386 N 
ATOM     21  H   UNL     1       8.147  12.649   0.543  0.00  0.00    -0.081 HD
ENDBRANCH  14  20
ENDBRANCH   1  14
BRANCH   4  22
ATOM     22  S   UNL     1       4.800   7.394   1.699  0.00  0.00    -0.076 S 
BRANCH  22  23
ATOM     23  C   UNL     1       4.516   6.862  -0.007  0.00  0.00    +0.176 C 
BRANCH  23  24
ATOM     24  C   UNL     1       3.847   5.512  -0.007  0.00  0.00    +0.238 A 
ATOM     25  N   UNL     1       2.557   5.283   0.000  0.00  0.00    -0.191 NA
ATOM     26  C   UNL     1       2.428   3.937  -0.001  0.00  0.00    +0.202 A 
ATOM     27  N   UNL     1       3.634   3.433  -0.016  0.00  0.00    -0.056 NA
ATOM     28  O   UNL     1       4.458   4.323  -0.020  0.00  0.00    -0.337 OA
BRANCH  26  29
ATOM     29  C   UNL     1       1.154   3.174   0.008  0.00  0.00    +0.024 A 
ATOM     30  C   UNL     1       1.174   1.781   0.000  0.00  0.00    +0.012 A 
ATOM     31  C   UNL     1      -0.013   1.076   0.008  0.00  0.00    +0.002 A 
ATOM     32  C   UNL     1      -1.220   1.750   0.017  0.00  0.00    +0.020 A 
ATOM     33  C   UNL     1      -1.246   3.134   0.031  0.00  0.00    +0.042 A 
ATOM     34  C   UNL     1      -0.064   3.849   0.023  0.00  0.00    +0.031 A 
ATOM     35 CL   UNL     1      -2.766   3.972   0.049  0.00  0.00    -0.084 Cl
ENDBRANCH  26  29
ENDBRANCH  23  24
ENDBRANCH  22  23
ENDBRANCH   4  22
TORSDOF 7
