REMARK  Name = ZINC14537663
REMARK  7 active torsions:
REMARK  status: ('A' for Active; 'I' for Inactive)
REMARK    1  A    between atoms: C_2  and  C_3
REMARK    2  A    between atoms: C_3  and  N_4
REMARK    3  A    between atoms: C_7  and  C_9
REMARK    4  A    between atoms: C_19  and  N_67
REMARK    5  A    between atoms: C_23  and  C_24
REMARK    6  A    between atoms: C_23  and  N_67
REMARK    7  A    between atoms: C_24  and  C_25
REMARK                            x       y       z     vdW  Elec       q    Type
REMARK                         _______ _______ _______ _____ _____    ______ ____
ROOT
ATOM      1  N   UNL     1       3.373   7.763   6.220  0.00  0.00    -0.264 N 
ATOM      2  C   UNL     1       3.481   7.053   5.084  0.00  0.00    +0.043 A 
ATOM      3  C   UNL     1       2.946   7.803   4.090  0.00  0.00    +0.004 A 
ATOM      4  C   UNL     1       2.518   8.997   4.694  0.00  0.00    +0.151 A 
ATOM      5  N   UNL     1       2.810   8.896   5.980  0.00  0.00    -0.166 NA
ATOM      6  C   UNL     1       2.861   7.378   2.650  0.00  0.00    +0.023 C 
ATOM      7  C   UNL     1       3.085   5.861   2.582  0.00  0.00    -0.067 C 
ATOM      8  C   UNL     1       4.339   5.493   3.379  0.00  0.00    -0.009 C 
ATOM      9  C   UNL     1       4.072   5.683   4.877  0.00  0.00    +0.054 C 
ENDROOT
BRANCH   4  10
ATOM     10  C   UNL     1       1.868  10.142   4.024  0.00  0.00    +0.267 C 
ATOM     11  O   UNL     1       1.561  10.065   2.850  0.00  0.00    -0.268 OA
ATOM     12  N   UNL     1       1.615  11.272   4.714  0.00  0.00    -0.296 N 
ATOM     13  C   UNL     1       2.096  11.376   6.073  0.00  0.00    +0.108 C 
ATOM     14  C   UNL     1       1.038  10.821   7.050  0.00  0.00    +0.019 C 
ATOM     15  C   UNL     1      -0.113  11.734   7.128  0.00  0.00    +0.002 C 
ATOM     16  C   UNL     1      -0.865  11.911   5.813  0.00  0.00    +0.002 C 
ATOM     17  C   UNL     1      -0.191  12.981   4.991  0.00  0.00    +0.019 C 
ATOM     18  C   UNL     1       0.853  12.349   4.053  0.00  0.00    +0.108 C 
ENDBRANCH   4  10
BRANCH   7  19
ATOM     19  N   UNL     1       3.262   5.461   1.173  0.00  0.00    +0.381 N 
ATOM     20  H   UNL     1       4.245   5.589   0.905  0.00  0.00    -0.086 HD
ATOM     21  H   UNL     1       2.665   6.047   0.577  0.00  0.00    -0.086 HD
BRANCH  19  22
ATOM     22  C   UNL     1       2.889   4.045   0.993  0.00  0.00    -0.077 C 
BRANCH  22  23
ATOM     23  C   UNL     1       3.082   3.659  -0.475  0.00  0.00    +0.018 C 
BRANCH  23  24
ATOM     24  C   UNL     1       2.703   2.213  -0.669  0.00  0.00    -0.024 A 
ATOM     25  C   UNL     1       3.536   1.161  -0.652  0.00  0.00    +0.087 A 
ATOM     26  N   UNL     1       2.833   0.006  -0.864  0.00  0.00    -0.360 N 
ATOM     27  H   UNL     1       3.219  -0.883  -0.896  0.00  0.00    +0.165 HD
ATOM     28  C   UNL     1       1.496   0.295  -1.026  0.00  0.00    +0.047 A 
ATOM     29  C   UNL     1       1.357   1.690  -0.910  0.00  0.00    +0.003 A 
ATOM     30  C   UNL     1       0.095   2.276  -1.027  0.00  0.00    +0.010 A 
ATOM     31  C   UNL     1      -0.999   1.490  -1.262  0.00  0.00    +0.001 A 
ATOM     32  C   UNL     1      -0.866   0.114  -1.377  0.00  0.00    +0.002 A 
ATOM     33  C   UNL     1       0.370  -0.486  -1.260  0.00  0.00    +0.026 A 
ENDBRANCH  23  24
ENDBRANCH  22  23
ENDBRANCH  19  22
ENDBRANCH   7  19
BRANCH   1  34
ATOM     34  C   UNL     1       3.829   7.314   7.537  0.00  0.00    +0.170 C 
BRANCH  34  36
ATOM     35  C   UNL     1       5.583   8.449   8.800  0.00  0.00    +0.006 C 
ATOM     36  C   UNL     1       5.259   7.742   7.746  0.00  0.00    -0.012 C 
ENDBRANCH  34  36
ENDBRANCH   1  34
TORSDOF 7
