REMARK  Name = ZINC09601739
REMARK  7 active torsions:
REMARK  status: ('A' for Active; 'I' for Inactive)
REMARK    1  A    between atoms: C_4  and  C_7
REMARK    2  A    between atoms: C_8  and  C_9
REMARK    3  A    between atoms: N_14  and  C_17
REMARK    4  A    between atoms: C_20  and  N_30
REMARK    5  A    between atoms: C_21  and  N_23
REMARK    6  A    between atoms: N_23  and  C_24
REMARK    7  A    between atoms: C_24  and  C_25
REMARK                            x       y       z     vdW  Elec       q    Type
REMARK                         _______ _______ _______ _____ _____    ______ ____
ROOT
ATOM      1  C   UNL     1      -4.410   4.586   0.802  0.00  0.00    +0.032 A 
ATOM      2  C   UNL     1      -4.628   4.923   2.133  0.00  0.00    +0.025 A 
ATOM      3  C   UNL     1      -3.915   4.291   3.133  0.00  0.00    +0.036 A 
ATOM      4  C   UNL     1      -2.988   3.318   2.815  0.00  0.00    +0.147 A 
ATOM      5  C   UNL     1      -2.761   2.980   1.486  0.00  0.00    +0.060 A 
ATOM      6  C   UNL     1      -3.475   3.613   0.479  0.00  0.00    +0.048 A 
ENDROOT
BRANCH   1  12
ATOM      7  C   UNL     1      -6.270   8.499  -2.350  0.00  0.00    +0.240 C 
ATOM      8  O   UNL     1      -7.067   9.260  -1.835  0.00  0.00    -0.271 OA
ATOM      9  N   UNL     1      -6.099   7.260  -1.849  0.00  0.00    -0.295 N 
ATOM     10  C   UNL     1      -6.957   6.760  -0.763  0.00  0.00    +0.127 C 
ATOM     11  C   UNL     1      -6.062   6.214   0.353  0.00  0.00    +0.124 C 
ATOM     12  N   UNL     1      -5.132   5.225  -0.208  0.00  0.00    -0.327 N 
ATOM     13  C   UNL     1      -4.230   5.840  -1.191  0.00  0.00    +0.124 C 
ATOM     14  C   UNL     1      -5.050   6.371  -2.371  0.00  0.00    +0.127 C 
BRANCH   7  16
ATOM     15  C   UNL     1      -5.574  10.205  -3.944  0.00  0.00    +0.013 C 
ATOM     16  C   UNL     1      -5.496   8.929  -3.517  0.00  0.00    +0.068 C 
BRANCH  15  20
ATOM     17  C   UNL     1      -3.331  11.452  -7.322  0.00  0.00    +0.000 A 
ATOM     18  C   UNL     1      -4.143  12.358  -6.662  0.00  0.00    +0.001 A 
ATOM     19  C   UNL     1      -4.875  11.960  -5.564  0.00  0.00    +0.008 A 
ATOM     20  C   UNL     1      -4.796  10.638  -5.117  0.00  0.00    -0.025 A 
ATOM     21  C   UNL     1      -3.970   9.730  -5.786  0.00  0.00    +0.008 A 
ATOM     22  C   UNL     1      -3.248  10.141  -6.886  0.00  0.00    +0.001 A 
ENDBRANCH  15  20
ENDBRANCH   7  16
ENDBRANCH   1  12
BRANCH   4  23
ATOM     23  N   UNL     1      -2.231   2.639   3.890  0.00  0.00    +0.058 N 
ATOM     24  O   UNL     1      -2.784   2.352   4.937  0.00  0.00    -0.126 OA
ATOM     25  O   UNL     1      -1.055   2.366   3.728  0.00  0.00    -0.126 OA
ENDBRANCH   4  23
BRANCH   5  26
ATOM     26  N   UNL     1      -1.819   2.000   1.165  0.00  0.00    -0.335 N 
ATOM     27  H   UNL     1      -1.285   1.593   1.865  0.00  0.00    +0.147 HD
BRANCH  26  28
ATOM     28  C   UNL     1      -1.638   1.586  -0.228  0.00  0.00    +0.176 C 
BRANCH  28  29
ATOM     29  C   UNL     1      -0.571   0.525  -0.303  0.00  0.00    +0.122 A 
ATOM     30  C   UNL     1      -0.773  -0.802  -0.211  0.00  0.00    +0.046 A 
ATOM     31  C   UNL     1       0.493  -1.419  -0.339  0.00  0.00    +0.041 A 
ATOM     32  C   UNL     1       1.393  -0.432  -0.500  0.00  0.00    +0.195 A 
ATOM     33  O   UNL     1       0.743   0.743  -0.478  0.00  0.00    -0.466 OA
ENDBRANCH  28  29
ENDBRANCH  26  28
ENDBRANCH   5  26
TORSDOF 7
