REMARK  Name = ZINC16247965
REMARK  6 active torsions:
REMARK  status: ('A' for Active; 'I' for Inactive)
REMARK    1  A    between atoms: C_3  and  O_30
REMARK    2  A    between atoms: C_6  and  N_7
REMARK    3  A    between atoms: C_11  and  N_15
REMARK    4  A    between atoms: C_18  and  C_21
REMARK    5  A    between atoms: C_18  and  N_24
REMARK    6  A    between atoms: O_30  and  C_31
REMARK                            x       y       z     vdW  Elec       q    Type
REMARK                         _______ _______ _______ _____ _____    ______ ____
ROOT
ATOM      1  N   UNL     1      -2.734  -0.391   0.550  0.00  0.00    -0.209 N 
ATOM      2  C   UNL     1      -4.000   0.008   0.374  0.00  0.00    +0.228 C 
ATOM      3  O   UNL     1      -4.387   1.156   0.418  0.00  0.00    -0.275 OA
ATOM      4  C   UNL     1      -4.870  -1.201   0.110  0.00  0.00    +0.125 C 
ATOM      5  C   UNL     1      -3.878  -2.380   0.166  0.00  0.00    +0.153 C 
ATOM      6  C   UNL     1      -2.550  -1.713   0.449  0.00  0.00    +0.244 C 
ATOM      7  O   UNL     1      -1.488  -2.285   0.568  0.00  0.00    -0.273 OA
ENDROOT
BRANCH   1  13
ATOM      8  C   UNL     1      -0.629   0.618  -0.080  0.00  0.00    +0.027 A 
ATOM      9  C   UNL     1       0.402   1.499   0.180  0.00  0.00    +0.048 A 
ATOM     10  C   UNL     1       0.383   2.269   1.334  0.00  0.00    +0.129 A 
ATOM     11  C   UNL     1      -0.672   2.155   2.227  0.00  0.00    +0.048 A 
ATOM     12  C   UNL     1      -1.704   1.275   1.968  0.00  0.00    +0.027 A 
ATOM     13  C   UNL     1      -1.685   0.504   0.814  0.00  0.00    +0.044 A 
BRANCH  10  14
ATOM     14  O   UNL     1       1.399   3.136   1.589  0.00  0.00    -0.420 OA
BRANCH  14  15
ATOM     15  C   UNL     1       1.314   3.897   2.796  0.00  0.00    +0.489 C 
ATOM     16  F   UNL     1       0.152   4.676   2.776  0.00  0.00    -0.149 F 
ATOM     17  F   UNL     1       1.275   3.030   3.893  0.00  0.00    -0.149 F 
ATOM     18 CL   UNL     1       2.756   4.972   2.931  0.00  0.00    +0.000 Cl
ENDBRANCH  14  15
ENDBRANCH  10  14
ENDBRANCH   1  13
BRANCH   5  19
ATOM     19  N   UNL     1      -3.838  -3.083  -1.124  0.00  0.00    -0.291 NA
ATOM     20  C   UNL     1      -5.179  -3.529  -1.523  0.00  0.00    +0.084 C 
ATOM     21  C   UNL     1      -5.122  -4.124  -2.931  0.00  0.00    +0.013 C 
ATOM     22  C   UNL     1      -4.147  -5.305  -2.942  0.00  0.00    +0.015 C 
ATOM     23  C   UNL     1      -2.770  -4.824  -2.477  0.00  0.00    +0.013 C 
ATOM     24  C   UNL     1      -2.895  -4.208  -1.081  0.00  0.00    +0.084 C 
BRANCH  22  25
ATOM     25  N   UNL     1      -4.044  -5.844  -4.305  0.00  0.00    +0.389 N 
ATOM     26  C   UNL     1      -5.373  -6.262  -4.766  0.00  0.00    -0.077 C 
ATOM     27  C   UNL     1      -5.285  -6.749  -6.214  0.00  0.00    -0.019 C 
ATOM     28  C   UNL     1      -4.321  -7.936  -6.289  0.00  0.00    -0.004 C 
ATOM     29  C   UNL     1      -2.958  -7.510  -5.737  0.00  0.00    -0.019 C 
ATOM     30  C   UNL     1      -3.132  -6.994  -4.306  0.00  0.00    -0.077 C 
ATOM     31  H   UNL     1      -3.685  -5.131  -4.921  0.00  0.00    -0.080 HD
ENDBRANCH  22  25
BRANCH  22  32
ATOM     32  C   UNL     1      -4.646  -6.379  -2.010  0.00  0.00    +0.200 C 
ATOM     33  O   UNL     1      -5.795  -6.359  -1.622  0.00  0.00    -0.278 OA
ATOM     34  N   UNL     1      -3.817  -7.362  -1.609  0.00  0.00    -0.330 N 
ATOM     35  H   UNL     1      -2.919  -7.418  -1.973  0.00  0.00    +0.145 HD
ATOM     36  H   UNL     1      -4.116  -8.013  -0.955  0.00  0.00    +0.145 HD
ENDBRANCH  22  32
ENDBRANCH   5  19
TORSDOF 6
