REMARK  Name = ZINC38621805
REMARK  11 active torsions:
REMARK  status: ('A' for Active; 'I' for Inactive)
REMARK    1  A    between atoms: C_1  and  C_2
REMARK    2  A    between atoms: C_3  and  C_33
REMARK    3  A    between atoms: C_4  and  C_32
REMARK    4  A    between atoms: C_5  and  S_10
REMARK    5  A    between atoms: C_6  and  C_9
REMARK    6  A    between atoms: C_7  and  C_8
REMARK    7  A    between atoms: S_10  and  N_13
REMARK    8  A    between atoms: N_13  and  C_14
REMARK    9  A    between atoms: C_14  and  C_15
REMARK   10  A    between atoms: C_15  and  C_17
REMARK   11  A    between atoms: C_15  and  N_27
REMARK                            x       y       z     vdW  Elec       q    Type
REMARK                         _______ _______ _______ _____ _____    ______ ____
ROOT
ATOM      1  C   UNL     1       1.303  -5.274   1.386  0.00  0.00    +0.095 C 
ENDROOT
BRANCH   1   2
ATOM      2  N   UNL     1       0.337  -5.434   0.296  0.00  0.00    -0.191 NA
ATOM      3  H   UNL     1       0.471  -6.123  -0.374  0.00  0.00    +0.148 HD
BRANCH   2   4
ATOM      4  S   UNL     1      -0.983  -4.438   0.206  0.00  0.00    +0.059 S 
ATOM      5  O   UNL     1      -1.574  -4.430   1.498  0.00  0.00    -0.153 OA
ATOM      6  O   UNL     1      -1.702  -4.820  -0.958  0.00  0.00    -0.153 OA
BRANCH   4  11
ATOM      7  C   UNL     1       1.067   1.149  -0.788  0.00  0.00    +0.044 C 
ATOM      8  C   UNL     1       0.555  -0.246  -0.540  0.00  0.00    -0.044 A 
ATOM      9  C   UNL     1       0.355  -0.689   0.754  0.00  0.00    -0.043 A 
ATOM     10  C   UNL     1      -0.115  -1.969   0.982  0.00  0.00    -0.021 A 
ATOM     11  C   UNL     1      -0.385  -2.806  -0.084  0.00  0.00    +0.112 A 
ATOM     12  C   UNL     1      -0.186  -2.363  -1.379  0.00  0.00    -0.021 A 
ATOM     13  C   UNL     1       0.279  -1.081  -1.606  0.00  0.00    -0.043 A 
ATOM     14  C   UNL     1       0.491  -0.597  -3.018  0.00  0.00    +0.044 C 
ATOM     15  C   UNL     1      -0.481  -3.276  -2.541  0.00  0.00    +0.046 C 
ATOM     16  C   UNL     1      -0.331  -2.452   2.393  0.00  0.00    +0.046 C 
ATOM     17  C   UNL     1       0.650   0.224   1.917  0.00  0.00    +0.044 C 
ENDBRANCH   4  11
ENDBRANCH   2   4
ENDBRANCH   1   2
BRANCH   1  18
ATOM     18  C   UNL     1       2.207  -6.507   1.451  0.00  0.00    -0.021 C 
BRANCH  18  19
ATOM     19  C   UNL     1       3.028  -6.595   0.191  0.00  0.00    -0.052 A 
ATOM     20  C   UNL     1       2.602  -7.360  -0.852  0.00  0.00    +0.002 A 
ATOM     21  C   UNL     1       3.348  -7.453  -2.025  0.00  0.00    +0.001 A 
ATOM     22  C   UNL     1       4.525  -6.784  -2.162  0.00  0.00    +0.008 A 
ATOM     23  C   UNL     1       4.997  -5.984  -1.108  0.00  0.00    -0.018 A 
ATOM     24  C   UNL     1       4.235  -5.884   0.084  0.00  0.00    -0.016 A 
ATOM     25  C   UNL     1       4.705  -5.080   1.136  0.00  0.00    +0.009 A 
ATOM     26  C   UNL     1       5.879  -4.406   0.996  0.00  0.00    +0.001 A 
ATOM     27  C   UNL     1       6.625  -4.499  -0.177  0.00  0.00    +0.001 A 
ATOM     28  C   UNL     1       6.208  -5.279  -1.212  0.00  0.00    +0.008 A 
ENDBRANCH  18  19
BRANCH  18  29
ATOM     29  N   UNL     1       1.380  -7.714   1.582  0.00  0.00    +0.385 N 
ATOM     30  C   UNL     1       2.243  -8.908   1.774  0.00  0.00    -0.078 C 
ATOM     31  C   UNL     1       1.289  -9.932   2.439  0.00  0.00    -0.020 C 
ATOM     32  C   UNL     1       0.433  -9.049   3.376  0.00  0.00    -0.020 C 
ATOM     33  C   UNL     1       0.538  -7.626   2.795  0.00  0.00    -0.078 C 
ATOM     34  H   UNL     1       0.800  -7.830   0.764  0.00  0.00    -0.081 HD
ENDBRANCH  18  29
ENDBRANCH   1  18
TORSDOF 6
