REMARK  Name = ZINC30760609
REMARK  9 active torsions:
REMARK  status: ('A' for Active; 'I' for Inactive)
REMARK    1  A    between atoms: C_1  and  C_2
REMARK    2  A    between atoms: C_5  and  O_9
REMARK    3  A    between atoms: C_6  and  C_8
REMARK    4  A    between atoms: O_9  and  C_10
REMARK    5  A    between atoms: C_10  and  C_11
REMARK    6  A    between atoms: N_13  and  N_14
REMARK    7  A    between atoms: C_15  and  C_16
REMARK    8  A    between atoms: C_20  and  C_23
REMARK    9  A    between atoms: C_21  and  O_22
REMARK                            x       y       z     vdW  Elec       q    Type
REMARK                         _______ _______ _______ _____ _____    ______ ____
ROOT
ATOM      1  C   UNL     1       4.855   3.312  -0.962  0.00  0.00    +0.270 C 
ATOM      2  O   UNL     1       5.791   2.613  -1.290  0.00  0.00    -0.270 OA
ATOM      3  N   UNL     1       3.687   2.747  -0.598  0.00  0.00    -0.204 N 
ATOM      4  H   UNL     1       2.838   3.380  -0.300  0.00  0.00    +0.177 HD
ENDROOT
BRANCH   3   5
ATOM      5  N   UNL     1       3.554   1.352  -0.599  0.00  0.00    -0.188 NA
ATOM      6  C   UNL     1       2.397   0.810  -0.369  0.00  0.00    +0.142 C 
BRANCH   6   7
ATOM      7  C   UNL     1       1.163   1.590  -0.579  0.00  0.00    +0.036 A 
ATOM      8  C   UNL     1       1.158   2.672  -1.462  0.00  0.00    +0.013 A 
ATOM      9  C   UNL     1       0.003   3.401  -1.649  0.00  0.00    +0.001 A 
ATOM     10  C   UNL     1      -1.156   3.058  -0.974  0.00  0.00    +0.007 A 
ATOM     11  C   UNL     1      -1.164   1.989  -0.098  0.00  0.00    -0.008 A 
ATOM     12  C   UNL     1      -0.011   1.249   0.106  0.00  0.00    +0.128 A 
ATOM     13  C   UNL     1      -2.430   1.627   0.636  0.00  0.00    +0.047 C 
BRANCH  12  14
ATOM     14  O   UNL     1      -0.017   0.199   0.967  0.00  0.00    -0.506 OA
ATOM     15  H   UNL     1      -0.940  -0.066   1.504  0.00  0.00    +0.292 HD
ENDBRANCH  12  14
ENDBRANCH   6   7
ENDBRANCH   3   5
BRANCH   1  16
ATOM     16  C   UNL     1       4.998   4.812  -0.961  0.00  0.00    +0.326 C 
BRANCH  16  17
ATOM     17  O   UNL     1       6.318   5.165  -1.381  0.00  0.00    -0.482 OA
BRANCH  17  22
ATOM     18  C   UNL     1       7.548  10.657  -1.606  0.00  0.00    +0.044 C 
ATOM     19  C   UNL     1       7.219   9.187  -1.546  0.00  0.00    -0.050 A 
ATOM     20  C   UNL     1       5.959   8.778  -1.148  0.00  0.00    +0.007 A 
ATOM     21  C   UNL     1       5.655   7.432  -1.092  0.00  0.00    +0.046 A 
ATOM     22  C   UNL     1       6.615   6.490  -1.435  0.00  0.00    +0.124 A 
ATOM     23  C   UNL     1       7.879   6.903  -1.829  0.00  0.00    -0.009 A 
ATOM     24  C   UNL     1       8.177   8.251  -1.889  0.00  0.00    +0.010 A 
ATOM     25  C   UNL     1       8.925   5.883  -2.197  0.00  0.00    +0.047 C 
ENDBRANCH  17  22
ENDBRANCH  16  17
ENDBRANCH   1  16
TORSDOF 6
