REMARK  Name = ZINC01481058
REMARK  11 active torsions:
REMARK  status: ('A' for Active; 'I' for Inactive)
REMARK    1  A    between atoms: C_1  and  C_2
REMARK    2  A    between atoms: C_2  and  O_3
REMARK    3  A    between atoms: O_3  and  C_4
REMARK    4  A    between atoms: C_6  and  C_16
REMARK    5  A    between atoms: C_9  and  O_10
REMARK    6  A    between atoms: O_10  and  C_11
REMARK    7  A    between atoms: C_11  and  C_13
REMARK    8  A    between atoms: C_21  and  C_25
REMARK    9  A    between atoms: C_21  and  C_26
REMARK   10  A    between atoms: C_30  and  C_36
REMARK   11  A    between atoms: C_31  and  C_35
REMARK                            x       y       z     vdW  Elec       q    Type
REMARK                         _______ _______ _______ _____ _____    ______ ____
ROOT
ATOM      1  C   UNL     1      -5.163  -2.257  -0.119  0.00  0.00    +0.136 C 
ATOM      2  C   UNL     1      -5.579  -2.424  -1.561  0.00  0.00    +0.036 C 
ATOM      3  C   UNL     1      -6.521  -1.716  -2.199  0.00  0.00    +0.017 C 
ATOM      4  C   UNL     1      -6.810  -1.969  -3.670  0.00  0.00    +0.058 C 
ATOM      5  C   UNL     1      -6.601  -3.447  -3.994  0.00  0.00    -0.023 C 
ATOM      6  C   UNL     1      -5.142  -3.793  -3.674  0.00  0.00    +0.086 C 
ATOM      7  C   UNL     1      -4.872  -3.447  -2.240  0.00  0.00    +0.163 C 
ATOM      8  O   UNL     1      -4.014  -4.066  -1.641  0.00  0.00    -0.292 OA
ATOM      9  C   UNL     1      -7.536  -4.303  -3.138  0.00  0.00    +0.011 C 
ATOM     10  C   UNL     1      -6.879  -3.697  -5.478  0.00  0.00    +0.011 C 
ATOM     11  N   UNL     1      -7.270  -0.735  -1.635  0.00  0.00    -0.316 N 
ATOM     12  C   UNL     1      -6.766   0.291  -0.844  0.00  0.00    +0.053 A 
ATOM     13  C   UNL     1      -6.875   1.623  -1.205  0.00  0.00    +0.028 A 
ATOM     14  C   UNL     1      -6.449   2.602  -0.323  0.00  0.00    -0.046 A 
ATOM     15  C   UNL     1      -5.918   2.251   0.906  0.00  0.00    -0.046 A 
ATOM     16  C   UNL     1      -5.789   0.919   1.258  0.00  0.00    +0.028 A 
ATOM     17  C   UNL     1      -6.199  -0.063   0.371  0.00  0.00    +0.050 A 
ATOM     18  N   UNL     1      -6.047  -1.417   0.663  0.00  0.00    -0.331 N 
ATOM     19  C   UNL     1      -5.478   3.326   1.866  0.00  0.00    +0.044 C 
ATOM     20  C   UNL     1      -6.564   4.056  -0.703  0.00  0.00    +0.044 C 
ATOM     21  H   UNL     1      -8.227  -0.750  -1.795  0.00  0.00    +0.152 HD
ATOM     22  H   UNL     1      -6.541  -1.804   1.402  0.00  0.00    +0.147 HD
ENDROOT
BRANCH   1  25
ATOM     23  C   UNL     1      -1.453  -1.837   0.456  0.00  0.00    +0.163 A 
ATOM     24  C   UNL     1      -2.725  -2.387   0.426  0.00  0.00    +0.055 A 
ATOM     25  C   UNL     1      -3.781  -1.657  -0.086  0.00  0.00    -0.019 A 
ATOM     26  C   UNL     1      -3.573  -0.378  -0.569  0.00  0.00    +0.009 A 
ATOM     27  C   UNL     1      -2.308   0.179  -0.536  0.00  0.00    +0.050 A 
ATOM     28  C   UNL     1      -1.243  -0.549  -0.030  0.00  0.00    +0.173 A 
BRANCH  23  29
ATOM     29  O   UNL     1      -0.413  -2.553   0.959  0.00  0.00    -0.489 OA
BRANCH  29  31
ATOM     30  C   UNL     1       0.582  -4.514   1.962  0.00  0.00    +0.048 C 
ATOM     31  C   UNL     1      -0.702  -3.867   1.439  0.00  0.00    +0.226 C 
ENDBRANCH  29  31
ENDBRANCH  23  29
BRANCH  28  32
ATOM     32  O   UNL     1       0.003  -0.005  -0.002  0.00  0.00    -0.422 OA
BRANCH  32  33
ATOM     33  C   UNL     1       0.825  -0.313  -1.017  0.00  0.00    +0.316 C 
ATOM     34  O   UNL     1       0.476  -1.107  -1.858  0.00  0.00    -0.250 OA
BRANCH  33  35
ATOM     35  C   UNL     1       2.187   0.326  -1.104  0.00  0.00    +0.098 C 
ATOM     36  C   UNL     1       2.429   1.321  -2.240  0.00  0.00    +0.015 C 
ATOM     37  C   UNL     1       3.077  -0.065  -2.285  0.00  0.00    +0.015 C 
ENDBRANCH  33  35
ENDBRANCH  32  33
ENDBRANCH  28  32
ENDBRANCH   1  25
TORSDOF 6
