REMARK  Name = ZINC20714121
REMARK  4 active torsions:
REMARK  status: ('A' for Active; 'I' for Inactive)
REMARK    1  A    between atoms: C_1  and  C_2
REMARK    2  A    between atoms: C_7  and  C_8
REMARK    3  A    between atoms: C_19  and  N_25
REMARK    4  A    between atoms: C_21  and  O_24
REMARK                            x       y       z     vdW  Elec       q    Type
REMARK                         _______ _______ _______ _____ _____    ______ ____
ROOT
ATOM      1  C   UNL     1       2.655   3.521  -0.034  0.00  0.00    +0.105 C 
ATOM      2  C   UNL     1       3.119   3.817   1.377  0.00  0.00    +0.029 C 
ATOM      3  C   UNL     1       2.377   4.901   2.165  0.00  0.00    +0.033 C 
ATOM      4  C   UNL     1       3.485   5.423   3.083  0.00  0.00    -0.030 C 
ATOM      5  C   UNL     1       4.672   5.217   2.522  0.00  0.00    -0.023 C 
ATOM      6  C   UNL     1       4.463   4.589   1.195  0.00  0.00    +0.049 C 
ATOM      7  C   UNL     1       5.426   3.633   0.606  0.00  0.00    -0.014 A 
ATOM      8  C   UNL     1       6.773   3.683   0.902  0.00  0.00    +0.039 A 
ATOM      9  C   UNL     1       7.654   2.788   0.328  0.00  0.00    +0.130 A 
ATOM     10  C   UNL     1       7.181   1.833  -0.554  0.00  0.00    +0.080 A 
ATOM     11  C   UNL     1       5.835   1.771  -0.854  0.00  0.00    +0.140 A 
ATOM     12  C   UNL     1       4.930   2.667  -0.272  0.00  0.00    +0.074 A 
ATOM     13  N   UNL     1       3.580   2.521  -0.593  0.00  0.00    -0.334 N 
ATOM     14  H   UNL     1       3.195   1.710  -1.228  0.00  0.00    +0.147 HD
ENDROOT
BRANCH   1  21
ATOM     15  C   UNL     1       1.073   3.480  -2.451  0.00  0.00    +0.044 C 
ATOM     16  C   UNL     1       0.497   2.947  -1.165  0.00  0.00    -0.045 A 
ATOM     17  C   UNL     1      -0.788   2.438  -1.141  0.00  0.00    +0.004 A 
ATOM     18  C   UNL     1      -1.315   1.946   0.038  0.00  0.00    +0.000 A 
ATOM     19  C   UNL     1      -0.560   1.970   1.196  0.00  0.00    +0.000 A 
ATOM     20  C   UNL     1       0.725   2.478   1.172  0.00  0.00    +0.006 A 
ATOM     21  C   UNL     1       1.254   2.966  -0.008  0.00  0.00    -0.024 A 
ENDBRANCH   1  21
BRANCH   9  22
ATOM     22  N   UNL     1       9.097   2.850   0.654  0.00  0.00    +0.057 N 
ATOM     23  O   UNL     1       9.510   3.693   1.430  0.00  0.00    -0.126 OA
ATOM     24  O   UNL     1       9.871   2.059   0.145  0.00  0.00    -0.126 OA
ENDBRANCH   9  22
BRANCH  11  25
ATOM     25  O   UNL     1       5.383   0.828  -1.724  0.00  0.00    -0.505 OA
ATOM     26  H   UNL     1       4.311   0.773  -1.967  0.00  0.00    +0.292 HD
ENDBRANCH  11  25
TORSDOF 3
