REMARK  Name = ZINC20451915
REMARK  7 active torsions:
REMARK  status: ('A' for Active; 'I' for Inactive)
REMARK    1  A    between atoms: C_3  and  N_17
REMARK    2  A    between atoms: C_6  and  C_7
REMARK    3  A    between atoms: C_13  and  O_16
REMARK    4  A    between atoms: C_20  and  N_23
REMARK    5  A    between atoms: N_23  and  C_24
REMARK    6  A    between atoms: C_24  and  C_25
REMARK    7  A    between atoms: C_25  and  N_31
REMARK                            x       y       z     vdW  Elec       q    Type
REMARK                         _______ _______ _______ _____ _____    ______ ____
ROOT
ATOM      1  N   UNL     1       2.409   3.569  -0.676  0.00  0.00    -0.330 N 
ATOM      2  C   UNL     1       1.983   3.722   0.721  0.00  0.00    +0.103 C 
ATOM      3  C   UNL     1       1.275   5.068   0.896  0.00  0.00    +0.003 C 
ATOM      4  C   UNL     1       2.232   6.197   0.508  0.00  0.00    -0.069 C 
ATOM      5  C   UNL     1       2.698   5.988  -0.936  0.00  0.00    +0.003 C 
ATOM      6  C   UNL     1       3.365   4.616  -1.057  0.00  0.00    +0.103 C 
ENDROOT
BRANCH   1   9
ATOM      7  C   UNL     1       2.707  -0.082  -0.822  0.00  0.00    +0.015 A 
ATOM      8  C   UNL     1       2.185   1.172  -0.602  0.00  0.00    +0.024 A 
ATOM      9  C   UNL     1       2.939   2.304  -0.900  0.00  0.00    +0.030 A 
ATOM     10  C   UNL     1       4.223   2.171  -1.421  0.00  0.00    +0.024 A 
ATOM     11  C   UNL     1       4.750   0.920  -1.644  0.00  0.00    +0.015 A 
ATOM     12  C   UNL     1       3.996  -0.219  -1.346  0.00  0.00    +0.037 A 
BRANCH  12  13
ATOM     13  C   UNL     1       4.559  -1.562  -1.583  0.00  0.00    +0.247 C 
ATOM     14  O   UNL     1       3.830  -2.476  -1.917  0.00  0.00    -0.270 OA
ATOM     15  N   UNL     1       5.881  -1.775  -1.428  0.00  0.00    -0.295 N 
ATOM     16  C   UNL     1       6.758  -0.708  -0.927  0.00  0.00    +0.108 C 
ATOM     17  C   UNL     1       7.542  -1.246   0.280  0.00  0.00    +0.021 C 
ATOM     18  C   UNL     1       8.277  -2.525  -0.127  0.00  0.00    +0.034 C 
ATOM     19  C   UNL     1       7.261  -3.587  -0.552  0.00  0.00    +0.132 C 
ATOM     20  C   UNL     1       6.473  -3.077  -1.763  0.00  0.00    +0.139 C 
BRANCH  19  21
ATOM     21  O   UNL     1       7.946  -4.791  -0.902  0.00  0.00    -0.390 OA
ATOM     22  H   UNL     1       7.376  -5.671  -1.235  0.00  0.00    +0.210 HD
ENDBRANCH  19  21
ENDBRANCH  12  13
ENDBRANCH   1   9
BRANCH   4  23
ATOM     23  N   UNL     1       1.539   7.488   0.618  0.00  0.00    +0.382 N 
ATOM     24  H   UNL     1       2.015   8.218  -0.054  0.00  0.00    -0.085 HD
ATOM     25  H   UNL     1       0.484   7.363   0.335  0.00  0.00    -0.085 HD
BRANCH  23  26
ATOM     26  C   UNL     1       1.601   8.003   1.992  0.00  0.00    -0.060 C 
BRANCH  26  27
ATOM     27  C   UNL     1       0.839   9.327   2.075  0.00  0.00    +0.007 C 
ATOM     28  C   UNL     1       0.899   9.862   3.507  0.00  0.00    +0.020 C 
ATOM     29  C   UNL     1       0.262   8.847   4.458  0.00  0.00    +0.002 C 
ATOM     30  C   UNL     1      -1.197   8.621   4.059  0.00  0.00    +0.000 C 
ATOM     31  C   UNL     1      -1.258   8.086   2.627  0.00  0.00    +0.002 C 
ATOM     32  C   UNL     1      -0.621   9.101   1.676  0.00  0.00    +0.020 C 
BRANCH  27  33
ATOM     33  N   UNL     1       1.450  10.302   1.161  0.00  0.00    -0.294 NA
ATOM     34  C   UNL     1       1.170   9.959  -0.240  0.00  0.00    +0.113 C 
ATOM     35  C   UNL     1       1.773  11.030  -1.153  0.00  0.00    +0.175 C 
ATOM     36  O   UNL     1       3.175  11.138  -0.891  0.00  0.00    -0.377 OA
ATOM     37  C   UNL     1       3.484  11.472   0.465  0.00  0.00    +0.175 C 
ATOM     38  C   UNL     1       2.898  10.405   1.393  0.00  0.00    +0.113 C 
ENDBRANCH  27  33
ENDBRANCH  26  27
ENDBRANCH  23  26
ENDBRANCH   4  23
TORSDOF 7
