REMARK  Name = ZINC14460809
REMARK  3 active torsions:
REMARK  status: ('A' for Active; 'I' for Inactive)
REMARK    1  A    between atoms: C_6  and  C_7
REMARK    2  A    between atoms: C_16  and  C_19
REMARK    3  A    between atoms: C_24  and  O_25
REMARK                            x       y       z     vdW  Elec       q    Type
REMARK                         _______ _______ _______ _____ _____    ______ ____
ROOT
ATOM      1  C   UNL     1       1.344  -3.705   0.442  0.00  0.00    +0.020 A 
ATOM      2  C   UNL     1       1.731  -2.634  -0.330  0.00  0.00    +0.024 A 
ATOM      3  C   UNL     1       1.901  -1.375   0.240  0.00  0.00    +0.031 A 
ATOM      4  C   UNL     1       1.664  -1.202   1.612  0.00  0.00    -0.018 A 
ATOM      5  C   UNL     1       1.285  -2.271   2.387  0.00  0.00    +0.025 A 
ATOM      6  C   UNL     1       1.120  -3.534   1.811  0.00  0.00    +0.052 A 
ATOM      7  C   UNL     1       1.830   0.159   2.167  0.00  0.00    +0.049 C 
ATOM      8  C   UNL     1       2.196   0.390   3.587  0.00  0.00    -0.023 C 
ATOM      9  C   UNL     1       2.905   1.510   3.664  0.00  0.00    -0.030 C 
ATOM     10  C   UNL     1       3.097   2.105   2.268  0.00  0.00    +0.033 C 
ATOM     11  C   UNL     1       3.000   0.852   1.400  0.00  0.00    +0.029 C 
ATOM     12  C   UNL     1       2.490   1.047  -0.017  0.00  0.00    +0.108 C 
ATOM     13  N   UNL     1       2.307  -0.313  -0.569  0.00  0.00    -0.336 N 
ATOM     14  H   UNL     1       2.473  -0.469  -1.512  0.00  0.00    +0.147 HD
ENDROOT
BRANCH  12  15
ATOM     15  C   UNL     1       1.175   1.782   0.000  0.00  0.00    +0.015 A 
ATOM     16  C   UNL     1      -0.013   1.076   0.008  0.00  0.00    +0.024 A 
ATOM     17  C   UNL     1      -1.220   1.751   0.017  0.00  0.00    +0.018 A 
ATOM     18  C   UNL     1      -1.242   3.134   0.031  0.00  0.00    +0.019 A 
ATOM     19  C   UNL     1      -0.057   3.844   0.023  0.00  0.00    +0.047 A 
ATOM     20  C   UNL     1       1.155   3.169   0.008  0.00  0.00    +0.122 A 
ATOM     21 BR   UNL     1      -2.844   0.781   0.020  0.00  0.00    -0.050 Br
BRANCH  20  22
ATOM     22  O   UNL     1       2.322   3.866   0.000  0.00  0.00    -0.506 OA
ATOM     23  H   UNL     1       2.651   4.073  -0.885  0.00  0.00    +0.292 HD
ENDBRANCH  20  22
ENDBRANCH  12  15
BRANCH   6  24
ATOM     24  C   UNL     1       0.724  -4.647   2.620  0.00  0.00    +0.099 C 
ATOM     25  N   UNL     1       0.409  -5.531   3.261  0.00  0.00    -0.191 NA
ENDBRANCH   6  24
TORSDOF 3
