REMARK  Name = ZINC28621226
REMARK  5 active torsions:
REMARK  status: ('A' for Active; 'I' for Inactive)
REMARK    1  A    between atoms: C_6  and  O_11
REMARK    2  A    between atoms: O_11  and  C_12
REMARK    3  A    between atoms: C_12  and  C_13
REMARK    4  A    between atoms: N_15  and  N_16
REMARK    5  A    between atoms: N_16  and  C_17
REMARK                            x       y       z     vdW  Elec       q    Type
REMARK                         _______ _______ _______ _____ _____    ______ ____
ROOT
ATOM      1  C   UNL     1       2.089   9.463   0.081  0.00  0.00    +0.267 C 
ATOM      2  O   UNL     1       0.967   9.915   0.173  0.00  0.00    -0.271 OA
ATOM      3  N   UNL     1       3.148  10.295   0.028  0.00  0.00    -0.234 N 
ATOM      4  H   UNL     1       4.166   9.885  -0.056  0.00  0.00    +0.173 HD
ENDROOT
BRANCH   3   5
ATOM      5  N   UNL     1       2.954  11.681   0.081  0.00  0.00    -0.271 N 
ATOM      6  H   UNL     1       1.936  12.091   0.165  0.00  0.00    +0.169 HD
BRANCH   5   7
ATOM      7  C   UNL     1       4.022  12.520   0.028  0.00  0.00    +0.101 C 
ATOM      8  C   UNL     1       3.825  13.880  -0.067  0.00  0.00    +0.060 C 
ATOM      9  C   UNL     1       2.609  14.431  -0.699  0.00  0.00    +0.000 A 
ATOM     10  C   UNL     1       1.613  13.607  -1.211  0.00  0.00    +0.009 A 
ATOM     11  C   UNL     1       0.493  14.169  -1.787  0.00  0.00    +0.001 A 
ATOM     12  C   UNL     1       0.352  15.548  -1.855  0.00  0.00    +0.001 A 
ATOM     13  C   UNL     1       1.326  16.381  -1.348  0.00  0.00    +0.013 A 
ATOM     14  C   UNL     1       2.466  15.832  -0.761  0.00  0.00    +0.045 A 
ATOM     15  C   UNL     1       3.528  16.684  -0.209  0.00  0.00    +0.251 C 
ATOM     16  O   UNL     1       3.413  17.894  -0.263  0.00  0.00    -0.270 OA
ATOM     17  N   UNL     1       4.624  16.150   0.355  0.00  0.00    -0.248 N 
ATOM     18  C   UNL     1       4.822  14.825   0.451  0.00  0.00    +0.252 C 
ATOM     19  O   UNL     1       5.837  14.404   0.973  0.00  0.00    -0.270 OA
ATOM     20  H   UNL     1       5.407  16.805   0.762  0.00  0.00    +0.158 HD
ENDBRANCH   5   7
ENDBRANCH   3   5
BRANCH   1  21
ATOM     21  C   UNL     1       2.298   7.972   0.024  0.00  0.00    +0.326 C 
BRANCH  21  22
ATOM     22  O   UNL     1       1.034   7.311   0.096  0.00  0.00    -0.483 OA
BRANCH  22  28
ATOM     23  C   UNL     1      -0.054   1.091  -0.001  0.00  0.00    +0.001 A 
ATOM     24  C   UNL     1      -1.271   1.764   0.099  0.00  0.00    +0.001 A 
ATOM     25  C   UNL     1      -1.318   3.123   0.147  0.00  0.00    +0.008 A 
ATOM     26  C   UNL     1      -0.124   3.863   0.083  0.00  0.00    -0.014 A 
ATOM     27  C   UNL     1      -0.134   5.266   0.122  0.00  0.00    +0.054 A 
ATOM     28  C   UNL     1       1.045   5.952   0.057  0.00  0.00    +0.122 A 
ATOM     29  C   UNL     1       2.264   5.275  -0.049  0.00  0.00    +0.046 A 
ATOM     30  C   UNL     1       2.307   3.917  -0.090  0.00  0.00    +0.012 A 
ATOM     31  C   UNL     1       1.113   3.178  -0.025  0.00  0.00    -0.018 A 
ATOM     32  C   UNL     1       1.121   1.774  -0.065  0.00  0.00    +0.008 A 
ENDBRANCH  22  28
ENDBRANCH  21  22
ENDBRANCH   1  21
TORSDOF 5
