REMARK  Name = ZINC06194746
REMARK  13 active torsions:
REMARK  status: ('A' for Active; 'I' for Inactive)
REMARK    1  A    between atoms: C_1  and  C_2
REMARK    2  A    between atoms: C_6  and  C_15
REMARK    3  A    between atoms: C_13  and  C_14
REMARK    4  A    between atoms: C_15  and  C_17
REMARK    5  A    between atoms: C_15  and  N_68
REMARK    6  A    between atoms: N_21  and  C_22
REMARK    7  A    between atoms: C_22  and  C_23
REMARK    8  A    between atoms: C_22  and  C_24
REMARK    9  A    between atoms: C_22  and  C_25
REMARK   10  A    between atoms: C_26  and  C_27
REMARK   11  A    between atoms: C_26  and  N_68
REMARK   12  A    between atoms: C_33  and  C_34
REMARK   13  A    between atoms: C_33  and  N_68
REMARK                            x       y       z     vdW  Elec       q    Type
REMARK                         _______ _______ _______ _____ _____    ______ ____
ROOT
ATOM      1  C   UNL     1       2.669   0.451   0.175  0.00  0.00    +0.040 C 
ENDROOT
BRANCH   1   7
ATOM      2  C   UNL     1      -2.271   3.884  -4.234  0.00  0.00    +0.044 C 
ATOM      3  C   UNL     1      -1.910   3.228  -2.926  0.00  0.00    -0.047 A 
ATOM      4  C   UNL     1      -0.648   2.739  -2.740  0.00  0.00    +0.013 A 
ATOM      5  C   UNL     1      -0.311   2.134  -1.524  0.00  0.00    -0.001 A 
ATOM      6  C   UNL     1       1.030   1.593  -1.293  0.00  0.00    +0.017 A 
ATOM      7  C   UNL     1       1.297   1.013  -0.097  0.00  0.00    +0.011 A 
ATOM      8  C   UNL     1       0.295   0.933   0.894  0.00  0.00    +0.251 A 
ATOM      9  O   UNL     1       0.556   0.407   1.962  0.00  0.00    -0.268 OA
ATOM     10  N   UNL     1      -0.940   1.422   0.689  0.00  0.00    -0.322 N 
ATOM     11  H   UNL     1      -1.605   1.350   1.392  0.00  0.00    +0.169 HD
ATOM     12  C   UNL     1      -1.276   2.024  -0.505  0.00  0.00    +0.049 A 
ATOM     13  C   UNL     1      -2.554   2.530  -0.718  0.00  0.00    +0.030 A 
ATOM     14  C   UNL     1      -2.862   3.126  -1.921  0.00  0.00    -0.046 A 
ATOM     15  C   UNL     1      -4.247   3.674  -2.149  0.00  0.00    +0.044 C 
ENDBRANCH   1   7
BRANCH   1  16
ATOM     16  C   UNL     1       3.515   0.570  -1.066  0.00  0.00    +0.143 A 
ATOM     17  N   UNL     1       4.075   1.661  -1.530  0.00  0.00    -0.115 NA
ATOM     18  N   UNL     1       4.715   1.353  -2.605  0.00  0.00    -0.023 NA
ATOM     19  N   UNL     1       4.577   0.095  -2.840  0.00  0.00    -0.043 NA
ATOM     20  N   UNL     1       3.849  -0.424  -1.909  0.00  0.00    -0.225 N 
BRANCH  20  21
ATOM     21  C   UNL     1       3.455  -1.831  -1.796  0.00  0.00    +0.059 C 
ATOM     22  C   UNL     1       1.931  -1.928  -1.706  0.00  0.00    +0.036 C 
ATOM     23  C   UNL     1       3.943  -2.598  -3.026  0.00  0.00    +0.036 C 
ATOM     24  C   UNL     1       4.080  -2.435  -0.536  0.00  0.00    +0.036 C 
ENDBRANCH  20  21
ENDBRANCH   1  16
BRANCH   1  25
ATOM     25  N   UNL     1       3.281   1.199   1.294  0.00  0.00    +0.397 N 
ATOM     26  H   UNL     1       2.707   1.068   2.135  0.00  0.00    -0.079 HD
BRANCH  25  27
ATOM     27  C   UNL     1       4.643   0.689   1.557  0.00  0.00    -0.039 C 
BRANCH  27  28
ATOM     28  C   UNL     1       5.103   1.206   2.896  0.00  0.00    -0.046 A 
ATOM     29  C   UNL     1       5.827   2.386   2.981  0.00  0.00    +0.005 A 
ATOM     30  C   UNL     1       6.226   2.825   4.234  0.00  0.00    +0.020 A 
ATOM     31  C   UNL     1       5.900   2.074   5.347  0.00  0.00    +0.111 A 
ATOM     32  N   UNL     1       5.215   0.954   5.227  0.00  0.00    -0.263 NA
ATOM     33  C   UNL     1       4.815   0.507   4.052  0.00  0.00    +0.112 A 
ENDBRANCH  27  28
ENDBRANCH  25  27
BRANCH  25  34
ATOM     34  C   UNL     1       3.335   2.640   0.969  0.00  0.00    -0.001 C 
BRANCH  34  35
ATOM     35  C   UNL     1       2.046   3.281   1.414  0.00  0.00    +0.089 A 
ATOM     36  C   UNL     1       1.763   3.693   2.663  0.00  0.00    +0.042 A 
ATOM     37  C   UNL     1       0.455   4.230   2.630  0.00  0.00    +0.041 A 
ATOM     38  C   UNL     1       0.017   4.113   1.363  0.00  0.00    +0.195 A 
ATOM     39  O   UNL     1       0.987   3.543   0.630  0.00  0.00    -0.470 OA
ENDBRANCH  34  35
ENDBRANCH  25  34
ENDBRANCH   1  25
TORSDOF 8
