REMARK  Name = ZINC20758033
REMARK  6 active torsions:
REMARK  status: ('A' for Active; 'I' for Inactive)
REMARK    1  A    between atoms: C_1  and  C_2
REMARK    2  A    between atoms: C_2  and  N_3
REMARK    3  A    between atoms: C_16  and  C_18
REMARK    4  A    between atoms: N_24  and  C_27
REMARK    5  A    between atoms: C_32  and  O_33
REMARK    6  A    between atoms: O_33  and  C_34
REMARK                            x       y       z     vdW  Elec       q    Type
REMARK                         _______ _______ _______ _____ _____    ______ ____
ROOT
ATOM      1  C   UNL     1       1.753  -2.331  -0.013  0.00  0.00    +0.074 A 
ATOM      2  C   UNL     1       3.056  -1.805  -0.082  0.00  0.00    +0.260 A 
ATOM      3  N   UNL     1       3.861  -2.153  -1.105  0.00  0.00    -0.274 N 
ATOM      4  H   UNL     1       4.760  -1.792  -1.154  0.00  0.00    +0.173 HD
ATOM      5  C   UNL     1       3.428  -2.999  -2.057  0.00  0.00    +0.337 A 
ATOM      6  O   UNL     1       4.170  -3.302  -2.972  0.00  0.00    -0.246 OA
ATOM      7  N   UNL     1       2.186  -3.515  -2.013  0.00  0.00    -0.225 N 
ATOM      8  C   UNL     1       1.334  -3.190  -0.985  0.00  0.00    +0.267 A 
ATOM      9  O   UNL     1       0.091  -3.714  -0.940  0.00  0.00    -0.267 OA
ATOM     10  O   UNL     1       3.454  -1.038   0.778  0.00  0.00    -0.267 OA
ENDROOT
BRANCH   1  24
ATOM     11  N   UNL     1       0.713  -0.491   1.192  0.00  0.00    +0.388 N 
ATOM     12  C   UNL     1      -0.033  -0.102   2.397  0.00  0.00    -0.073 C 
ATOM     13  C   UNL     1       0.847  -0.320   3.636  0.00  0.00    +0.019 C 
ATOM     14  C   UNL     1       1.417  -1.714   3.557  0.00  0.00    -0.022 A 
ATOM     15  C   UNL     1       2.046  -2.510   4.586  0.00  0.00    +0.003 A 
ATOM     16  C   UNL     1       2.327  -2.271   5.936  0.00  0.00    +0.010 A 
ATOM     17  C   UNL     1       2.950  -3.280   6.628  0.00  0.00    +0.001 A 
ATOM     18  C   UNL     1       3.292  -4.482   6.030  0.00  0.00    +0.002 A 
ATOM     19  C   UNL     1       3.027  -4.745   4.698  0.00  0.00    +0.026 A 
ATOM     20  C   UNL     1       2.394  -3.740   3.969  0.00  0.00    +0.047 A 
ATOM     21  N   UNL     1       1.994  -3.669   2.665  0.00  0.00    -0.359 N 
ATOM     22  H   UNL     1       2.106  -4.373   2.008  0.00  0.00    +0.166 HD
ATOM     23  C   UNL     1       1.411  -2.454   2.425  0.00  0.00    +0.011 A 
ATOM     24  C   UNL     1       0.836  -1.955   1.121  0.00  0.00    +0.021 C 
ATOM     25  H   UNL     1       1.633  -0.079   1.224  0.00  0.00    -0.080 HD
BRANCH  11  27
ATOM     26  C   UNL     1      -0.019   1.526   0.010  0.00  0.00    -0.017 C 
ATOM     27  C   UNL     1       0.002  -0.004   0.002  0.00  0.00    -0.081 C 
ENDBRANCH  11  27
ENDBRANCH   1  24
BRANCH   7  28
ATOM     28  C   UNL     1       1.759  -4.394  -3.019  0.00  0.00    +0.096 A 
ATOM     29  C   UNL     1       1.952  -5.760  -2.877  0.00  0.00    +0.030 A 
ATOM     30  C   UNL     1       1.531  -6.624  -3.870  0.00  0.00    +0.002 A 
ATOM     31  C   UNL     1       0.917  -6.130  -5.006  0.00  0.00    +0.004 A 
ATOM     32  C   UNL     1       0.722  -4.770  -5.155  0.00  0.00    +0.048 A 
ATOM     33  C   UNL     1       1.136  -3.898  -4.162  0.00  0.00    +0.144 A 
BRANCH  33  34
ATOM     34  O   UNL     1       0.940  -2.560  -4.305  0.00  0.00    -0.493 OA
ATOM     35  C   UNL     1       0.295  -2.123  -5.503  0.00  0.00    +0.277 C 
ENDBRANCH  33  34
ENDBRANCH   7  28
TORSDOF 4
