REMARK  Name = ZINC09452799
REMARK  3 active torsions:
REMARK  status: ('A' for Active; 'I' for Inactive)
REMARK    1  A    between atoms: C_5  and  N_9
REMARK    2  A    between atoms: C_10  and  C_12
REMARK    3  A    between atoms: C_12  and  N_13
REMARK                            x       y       z     vdW  Elec       q    Type
REMARK                         _______ _______ _______ _____ _____    ______ ____
ROOT
ATOM      1  C   UNL     1      -6.119  -1.051   1.070  0.00  0.00    +0.213 C 
ENDROOT
BRANCH   1   2
ATOM      2  N   UNL     1      -6.312  -2.419   0.581  0.00  0.00    -0.215 N 
ATOM      3  C   UNL     1      -5.943  -3.525   1.259  0.00  0.00    +0.247 C 
ATOM      4  O   UNL     1      -5.409  -3.576   2.347  0.00  0.00    -0.273 OA
ATOM      5  C   UNL     1      -6.335  -4.689   0.377  0.00  0.00    +0.113 C 
ATOM      6  C   UNL     1      -7.355  -5.572   1.086  0.00  0.00    +0.035 C 
ATOM      7  C   UNL     1      -7.760  -6.727   0.167  0.00  0.00    +0.003 C 
ATOM      8  C   UNL     1      -6.520  -7.545  -0.199  0.00  0.00    +0.000 C 
ATOM      9  C   UNL     1      -5.516  -6.652  -0.931  0.00  0.00    +0.003 C 
ATOM     10  C   UNL     1      -5.103  -5.496  -0.016  0.00  0.00    +0.035 C 
ATOM     11  N   UNL     1      -6.934  -4.055  -0.804  0.00  0.00    -0.285 N 
ATOM     12  C   UNL     1      -6.881  -2.726  -0.591  0.00  0.00    +0.310 C 
ATOM     13  O   UNL     1      -7.301  -1.898  -1.376  0.00  0.00    -0.252 OA
ATOM     14  H   UNL     1      -7.300  -4.504  -1.582  0.00  0.00    +0.151 HD
ENDBRANCH   1   2
BRANCH   1  16
ATOM     15  N   UNL     1      -4.382   0.705   0.947  0.00  0.00    -0.311 N 
ATOM     16  C   UNL     1      -4.777  -0.539   0.613  0.00  0.00    +0.231 C 
ATOM     17  O   UNL     1      -4.053  -1.247  -0.055  0.00  0.00    -0.274 OA
ATOM     18  H   UNL     1      -4.961   1.271   1.481  0.00  0.00    +0.149 HD
BRANCH  15  23
ATOM     19  C   UNL     1      -0.753   1.593  -1.231  0.00  0.00    +0.000 C 
ATOM     20  C   UNL     1      -0.013   1.086   0.008  0.00  0.00    +0.000 C 
ATOM     21  C   UNL     1      -0.729   1.579   1.267  0.00  0.00    +0.002 C 
ATOM     22  C   UNL     1      -1.998   0.753   1.488  0.00  0.00    +0.022 C 
ATOM     23  C   UNL     1      -3.078   1.203   0.503  0.00  0.00    +0.073 C 
ATOM     24  C   UNL     1      -3.109   2.732   0.442  0.00  0.00    +0.022 C 
ATOM     25  C   UNL     1      -2.646   3.197  -0.940  0.00  0.00    +0.002 C 
ATOM     26  C   UNL     1      -1.125   3.064  -1.038  0.00  0.00    +0.000 C 
ENDBRANCH  15  23
ENDBRANCH   1  16
TORSDOF 3
