REMARK  Name = ZINC09349013
REMARK  6 active torsions:
REMARK  status: ('A' for Active; 'I' for Inactive)
REMARK    1  A    between atoms: C_1  and  C_2
REMARK    2  A    between atoms: C_3  and  C_16
REMARK    3  A    between atoms: N_5  and  C_7
REMARK    4  A    between atoms: C_7  and  C_8
REMARK    5  A    between atoms: C_17  and  C_18
REMARK    6  A    between atoms: C_22  and  C_31
REMARK                            x       y       z     vdW  Elec       q    Type
REMARK                         _______ _______ _______ _____ _____    ______ ____
ROOT
ATOM      1  C   UNL     1       3.546   0.890   0.082  0.00  0.00    +0.018 C 
ATOM      2  C   UNL     1       4.212   1.474  -0.938  0.00  0.00    +0.068 C 
ENDROOT
BRANCH   2   3
ATOM      3  C   UNL     1       5.629   1.494  -0.940  0.00  0.00    +0.244 C 
ATOM      4  O   UNL     1       6.247   0.900  -0.076  0.00  0.00    -0.270 OA
ATOM      5  N   UNL     1       6.292   2.171  -1.899  0.00  0.00    -0.261 N 
ATOM      6  C   UNL     1       5.573   2.998  -2.884  0.00  0.00    +0.168 C 
ATOM      7  C   UNL     1       6.371   4.303  -3.057  0.00  0.00    +0.276 C 
ATOM      8  O   UNL     1       7.694   3.977  -3.490  0.00  0.00    -0.476 OA
ATOM      9  C   UNL     1       8.370   3.024  -2.796  0.00  0.00    +0.143 A 
ATOM     10  C   UNL     1       7.691   2.107  -1.998  0.00  0.00    +0.079 A 
ATOM     11  C   UNL     1       8.393   1.135  -1.304  0.00  0.00    +0.027 A 
ATOM     12  C   UNL     1       9.771   1.078  -1.402  0.00  0.00    +0.002 A 
ATOM     13  C   UNL     1      10.448   1.989  -2.191  0.00  0.00    +0.004 A 
ATOM     14  C   UNL     1       9.752   2.960  -2.887  0.00  0.00    +0.047 A 
BRANCH   7  15
ATOM     15  C   UNL     1       5.701   5.172  -4.090  0.00  0.00    +0.253 C 
ATOM     16  O   UNL     1       6.262   5.409  -5.139  0.00  0.00    -0.272 OA
ATOM     17  N   UNL     1       4.479   5.687  -3.848  0.00  0.00    -0.326 N 
ATOM     18  H   UNL     1       4.031   5.497  -3.009  0.00  0.00    +0.145 HD
ATOM     19  H   UNL     1       4.048   6.246  -4.513  0.00  0.00    +0.145 HD
ENDBRANCH   7  15
ENDBRANCH   2   3
BRANCH   1  22
ATOM     20  C   UNL     1       1.728  -1.667   0.557  0.00  0.00    +0.068 C 
ATOM     21  C   UNL     1       1.253  -0.261   0.295  0.00  0.00    +0.069 A 
ATOM     22  C   UNL     1       2.078   0.869   0.085  0.00  0.00    +0.034 A 
ATOM     23  C   UNL     1       1.239   1.953  -0.119  0.00  0.00    +0.135 A 
ATOM     24  N   UNL     1      -0.025   1.501  -0.036  0.00  0.00    -0.248 N 
ATOM     25  N   UNL     1       0.010   0.126   0.221  0.00  0.00    -0.174 NA
ATOM     26 CL   UNL     1       1.728   3.590  -0.424  0.00  0.00    -0.062 Cl
BRANCH  24  27
ATOM     27  C   UNL     1      -1.235   2.312  -0.194  0.00  0.00    +0.180 C 
BRANCH  27  28
ATOM     28  C   UNL     1      -1.658   2.850   1.149  0.00  0.00    -0.026 A 
ATOM     29  C   UNL     1      -2.531   2.127   1.940  0.00  0.00    +0.007 A 
ATOM     30  C   UNL     1      -2.915   2.618   3.173  0.00  0.00    +0.020 A 
ATOM     31  C   UNL     1      -2.434   3.839   3.612  0.00  0.00    +0.041 A 
ATOM     32  C   UNL     1      -1.564   4.565   2.817  0.00  0.00    +0.020 A 
ATOM     33  C   UNL     1      -1.177   4.070   1.586  0.00  0.00    +0.007 A 
ATOM     34 CL   UNL     1      -2.920   4.460   5.158  0.00  0.00    -0.084 Cl
ENDBRANCH  27  28
ENDBRANCH  24  27
ENDBRANCH   1  22
TORSDOF 5
