REMARK  Name = ZINC39709179
REMARK  13 active torsions:
REMARK  status: ('A' for Active; 'I' for Inactive)
REMARK    1  A    between atoms: C_1  and  C_2
REMARK    2  A    between atoms: C_2  and  O_3
REMARK    3  A    between atoms: O_3  and  C_4
REMARK    4  A    between atoms: C_4  and  C_6
REMARK    5  A    between atoms: C_8  and  C_29
REMARK    6  A    between atoms: C_9  and  C_13
REMARK    7  A    between atoms: C_10  and  C_12
REMARK    8  A    between atoms: C_13  and  N_14
REMARK    9  A    between atoms: N_14  and  C_15
REMARK   10  A    between atoms: C_21  and  C_23
REMARK   11  A    between atoms: C_23  and  C_24
REMARK   12  A    between atoms: C_24  and  C_25
REMARK   13  A    between atoms: C_25  and  C_26
REMARK                            x       y       z     vdW  Elec       q    Type
REMARK                         _______ _______ _______ _____ _____    ______ ____
ROOT
ATOM      1  N   UNL     1      -7.770  -4.688  -1.560  0.00  0.00    -0.267 N 
ATOM      2  C   UNL     1      -8.508  -3.688  -2.083  0.00  0.00    +0.220 C 
ATOM      3  O   UNL     1      -8.656  -2.656  -1.462  0.00  0.00    -0.275 OA
ENDROOT
BRANCH   1   4
ATOM      4  C   UNL     1      -7.518  -5.838  -2.315  0.00  0.00    +0.037 A 
ATOM      5  C   UNL     1      -6.887  -5.737  -3.548  0.00  0.00    +0.023 A 
ATOM      6  C   UNL     1      -6.638  -6.875  -4.290  0.00  0.00    +0.002 A 
ATOM      7  C   UNL     1      -7.018  -8.114  -3.807  0.00  0.00    +0.000 A 
ATOM      8  C   UNL     1      -7.646  -8.218  -2.580  0.00  0.00    +0.002 A 
ATOM      9  C   UNL     1      -7.893  -7.085  -1.830  0.00  0.00    +0.023 A 
ENDBRANCH   1   4
BRANCH   1  10
ATOM     10  C   UNL     1      -7.233  -4.570  -0.203  0.00  0.00    +0.146 C 
BRANCH  10  14
ATOM     11  C   UNL     1      -3.491  -3.697  -0.434  0.00  0.00    +0.108 C 
ATOM     12  N   UNL     1      -4.134  -2.583  -0.244  0.00  0.00    -0.356 N 
ATOM     13  C   UNL     1      -5.458  -2.739  -0.144  0.00  0.00    +0.015 C 
ATOM     14  C   UNL     1      -5.833  -4.016  -0.263  0.00  0.00    -0.024 C 
ATOM     15  C   UNL     1      -4.543  -4.789  -0.476  0.00  0.00    +0.069 C 
ATOM     16  C   UNL     1      -4.546  -5.489  -1.837  0.00  0.00    +0.019 C 
ATOM     17  C   UNL     1      -6.421  -1.601   0.078  0.00  0.00    +0.063 C 
ATOM     18  H   UNL     1      -3.695  -1.720  -0.180  0.00  0.00    +0.165 HD
BRANCH  11  19
ATOM     19  C   UNL     1      -2.037  -3.865  -0.586  0.00  0.00    +0.352 C 
ATOM     20  O   UNL     1      -1.568  -4.972  -0.765  0.00  0.00    -0.244 OA
BRANCH  19  21
ATOM     21  O   UNL     1      -1.225  -2.791  -0.525  0.00  0.00    -0.461 OA
BRANCH  21  23
ATOM     22  C   UNL     1       0.931  -1.700  -0.582  0.00  0.00    +0.048 C 
ATOM     23  C   UNL     1       0.176  -3.027  -0.679  0.00  0.00    +0.229 C 
ENDBRANCH  21  23
ENDBRANCH  19  21
ENDBRANCH  11  19
ENDBRANCH  10  14
ENDBRANCH   1  10
BRANCH   2  24
ATOM     24  C   UNL     1      -9.148  -3.851  -3.437  0.00  0.00    +0.097 C 
BRANCH  24  25
ATOM     25  C   UNL     1      -9.952  -2.594  -3.776  0.00  0.00    +0.020 C 
BRANCH  25  26
ATOM     26  C   UNL     1     -10.602  -2.761  -5.152  0.00  0.00    +0.125 C 
BRANCH  26  27
ATOM     27  C   UNL     1     -11.393  -1.523  -5.486  0.00  0.00    +0.356 C 
ATOM     28  O   UNL     1     -11.434  -0.594  -4.697  0.00  0.00    -0.246 OA
ATOM     29  O   UNL     1     -11.993  -1.450  -6.545  0.00  0.00    -0.246 OA
ENDBRANCH  26  27
ENDBRANCH  25  26
ENDBRANCH  24  25
ENDBRANCH   2  24
TORSDOF 10
