REMARK  Name = ZINC13008699
REMARK  10 active torsions:
REMARK  status: ('A' for Active; 'I' for Inactive)
REMARK    1  A    between atoms: C_1  and  C_2
REMARK    2  A    between atoms: N_12  and  C_13
REMARK    3  A    between atoms: C_13  and  C_15
REMARK    4  A    between atoms: N_17  and  C_18
REMARK    5  A    between atoms: C_18  and  C_19
REMARK    6  A    between atoms: C_19  and  C_21
REMARK    7  A    between atoms: C_19  and  N_32
REMARK    8  A    between atoms: N_30  and  C_31
REMARK    9  A    between atoms: N_32  and  C_33
REMARK   10  A    between atoms: N_32  and  C_34
REMARK                            x       y       z     vdW  Elec       q    Type
REMARK                         _______ _______ _______ _____ _____    ______ ____
ROOT
ATOM      1  C   UNL     1      -1.302  -4.829  -6.670  0.00  0.00    +0.301 C 
ATOM      2  O   UNL     1      -0.566  -5.095  -5.741  0.00  0.00    -0.265 OA
ATOM      3  N   UNL     1      -0.999  -3.811  -7.500  0.00  0.00    -0.309 N 
ATOM      4  H   UNL     1      -1.586  -3.599  -8.242  0.00  0.00    +0.149 HD
ENDROOT
BRANCH   1   5
ATOM      5  C   UNL     1      -2.540  -5.630  -6.893  0.00  0.00    +0.323 C 
ATOM      6  O   UNL     1      -3.278  -5.363  -7.825  0.00  0.00    -0.263 OA
BRANCH   5  18
ATOM      7  C   UNL     1      -2.866  -9.641  -9.889  0.00  0.00    +0.063 C 
ATOM      8  C   UNL     1      -3.015  -9.396  -8.410  0.00  0.00    +0.015 A 
ATOM      9  C   UNL     1      -2.858  -8.135  -7.941  0.00  0.00    +0.046 A 
ATOM     10  C   UNL     1      -2.990  -7.872  -6.562  0.00  0.00    +0.068 A 
ATOM     11  C   UNL     1      -3.300  -9.005  -5.676  0.00  0.00    +0.021 A 
ATOM     12  C   UNL     1      -3.449  -8.836  -4.298  0.00  0.00    +0.012 A 
ATOM     13  C   UNL     1      -3.736  -9.915  -3.511  0.00  0.00    +0.001 A 
ATOM     14  C   UNL     1      -3.882 -11.178  -4.070  0.00  0.00    +0.002 A 
ATOM     15  C   UNL     1      -3.739 -11.368  -5.427  0.00  0.00    +0.026 A 
ATOM     16  C   UNL     1      -3.446 -10.283  -6.248  0.00  0.00    +0.048 A 
ATOM     17  N   UNL     1      -3.303 -10.437  -7.607  0.00  0.00    -0.358 N 
ATOM     18  N   UNL     1      -2.839  -6.633  -6.074  0.00  0.00    -0.172 NA
ATOM     19  H   UNL     1      -3.408 -11.319  -7.997  0.00  0.00    +0.166 HD
ENDBRANCH   5  18
ENDBRANCH   1   5
BRANCH   3  20
ATOM     20  C   UNL     1       0.218  -3.025  -7.281  0.00  0.00    +0.094 C 
BRANCH  20  21
ATOM     21  C   UNL     1       0.268  -1.873  -8.286  0.00  0.00    -0.021 C 
BRANCH  21  22
ATOM     22  C   UNL     1       0.388  -2.429  -9.682  0.00  0.00    -0.059 A 
ATOM     23  C   UNL     1       1.617  -2.854 -10.152  0.00  0.00    +0.004 A 
ATOM     24  C   UNL     1       1.727  -3.362 -11.430  0.00  0.00    +0.023 A 
ATOM     25  C   UNL     1       0.603  -3.446 -12.245  0.00  0.00    +0.033 A 
ATOM     26  C   UNL     1      -0.629  -3.022 -11.772  0.00  0.00    -0.026 A 
ATOM     27  C   UNL     1      -0.731  -2.517 -10.487  0.00  0.00    +0.007 A 
ATOM     28  C   UNL     1      -1.869  -3.108 -12.622  0.00  0.00    +0.038 C 
ATOM     29  C   UNL     1      -1.499  -3.201 -14.102  0.00  0.00    +0.024 C 
ATOM     30  C   UNL     1      -0.473  -4.327 -14.287  0.00  0.00    +0.105 C 
ATOM     31  N   UNL     1       0.737  -3.959 -13.540  0.00  0.00    -0.333 N 
ATOM     32  C   UNL     1       2.062  -4.126 -14.141  0.00  0.00    +0.129 C 
ENDBRANCH  21  22
BRANCH  21  33
ATOM     33  N   UNL     1       1.429  -1.021  -7.997  0.00  0.00    +0.382 N 
ATOM     34  C   UNL     1       1.468   0.094  -8.952  0.00  0.00    -0.096 C 
ATOM     35  C   UNL     1       1.320  -0.492  -6.631  0.00  0.00    -0.096 C 
ATOM     36  H   UNL     1       2.275  -1.565  -8.081  0.00  0.00    -0.082 HD
ENDBRANCH  21  33
ENDBRANCH  20  21
ENDBRANCH   3  20
TORSDOF 6
