REMARK  Name = ZINC60101326
REMARK  9 active torsions:
REMARK  status: ('A' for Active; 'I' for Inactive)
REMARK    1  A    between atoms: C_4  and  O_10
REMARK    2  A    between atoms: C_5  and  C_7
REMARK    3  A    between atoms: O_10  and  C_11
REMARK    4  A    between atoms: C_11  and  C_12
REMARK    5  A    between atoms: C_16  and  C_18
REMARK    6  A    between atoms: N_20  and  C_21
REMARK    7  A    between atoms: C_21  and  C_22
REMARK    8  A    between atoms: C_22  and  C_24
REMARK    9  A    between atoms: C_22  and  N_31
REMARK                            x       y       z     vdW  Elec       q    Type
REMARK                         _______ _______ _______ _____ _____    ______ ____
ROOT
ATOM      1  C   UNL     1       6.070  -0.600  -0.062  0.00  0.00    -0.010 A 
ATOM      2  C   UNL     1       6.464  -1.232   1.104  0.00  0.00    +0.007 A 
ATOM      3  C   UNL     1       7.486  -2.165   1.081  0.00  0.00    +0.001 A 
ATOM      4  C   UNL     1       8.119  -2.470  -0.106  0.00  0.00    +0.013 A 
ATOM      5  C   UNL     1       7.726  -1.836  -1.286  0.00  0.00    +0.037 A 
ATOM      6  C   UNL     1       6.691  -0.900  -1.257  0.00  0.00    +0.020 A 
ENDROOT
BRANCH   5   7
ATOM      7  C   UNL     1       8.400  -2.158  -2.562  0.00  0.00    +0.244 C 
ATOM      8  O   UNL     1       8.056  -1.604  -3.587  0.00  0.00    -0.270 OA
ATOM      9  N   UNL     1       9.396  -3.065  -2.587  0.00  0.00    -0.313 N 
ATOM     10  H   UNL     1       9.671  -3.507  -1.769  0.00  0.00    +0.149 HD
BRANCH   9  11
ATOM     11  C   UNL     1      10.065  -3.384  -3.852  0.00  0.00    +0.094 C 
BRANCH  11  12
ATOM     12  C   UNL     1      11.235  -4.332  -3.585  0.00  0.00    -0.020 C 
BRANCH  12  13
ATOM     13  C   UNL     1      12.279  -3.623  -2.762  0.00  0.00    -0.058 A 
ATOM     14  C   UNL     1      13.163  -2.750  -3.370  0.00  0.00    +0.002 A 
ATOM     15  C   UNL     1      14.121  -2.099  -2.616  0.00  0.00    +0.002 A 
ATOM     16  C   UNL     1      14.197  -2.320  -1.254  0.00  0.00    +0.020 A 
ATOM     17  C   UNL     1      13.313  -3.192  -0.645  0.00  0.00    +0.041 A 
ATOM     18  C   UNL     1      12.350  -3.840  -1.399  0.00  0.00    +0.022 A 
ATOM     19 CL   UNL     1      13.407  -3.470   1.066  0.00  0.00    -0.084 Cl
ENDBRANCH  12  13
BRANCH  12  20
ATOM     20  N   UNL     1      11.823  -4.756  -4.862  0.00  0.00    +0.385 N 
ATOM     21  C   UNL     1      12.953  -5.690  -4.622  0.00  0.00    -0.078 C 
ATOM     22  C   UNL     1      13.075  -6.452  -5.965  0.00  0.00    -0.020 C 
ATOM     23  C   UNL     1      11.602  -6.620  -6.403  0.00  0.00    -0.020 C 
ATOM     24  C   UNL     1      10.831  -5.518  -5.652  0.00  0.00    -0.078 C 
ATOM     25  H   UNL     1      12.140  -3.953  -5.384  0.00  0.00    -0.081 HD
ENDBRANCH  12  20
ENDBRANCH  11  12
ENDBRANCH   9  11
ENDBRANCH   5   7
BRANCH   1  26
ATOM     26  C   UNL     1       4.956   0.414  -0.028  0.00  0.00    +0.264 C 
BRANCH  26  27
ATOM     27  O   UNL     1       3.705  -0.245  -0.238  0.00  0.00    -0.487 OA
BRANCH  27  31
ATOM     28  C   UNL     1       0.316   2.121  -0.234  0.00  0.00    +0.001 A 
ATOM     29  C   UNL     1       1.564   2.688  -0.036  0.00  0.00    +0.004 A 
ATOM     30  C   UNL     1       2.698   1.900  -0.037  0.00  0.00    +0.046 A 
ATOM     31  C   UNL     1       2.592   0.531  -0.236  0.00  0.00    +0.133 A 
ATOM     32  C   UNL     1       1.331  -0.047  -0.436  0.00  0.00    +0.078 A 
ATOM     33  C   UNL     1       0.193   0.763  -0.433  0.00  0.00    +0.017 A 
BRANCH  32  34
ATOM     34  C   UNL     1       1.207  -1.501  -0.650  0.00  0.00    +0.245 C 
ATOM     35  O   UNL     1       2.200  -2.202  -0.652  0.00  0.00    -0.270 OA
ATOM     36  N   UNL     1      -0.008  -2.053  -0.842  0.00  0.00    -0.325 N 
ATOM     37  H   UNL     1      -0.800  -1.493  -0.840  0.00  0.00    +0.145 HD
ATOM     38  H   UNL     1      -0.090  -3.009  -0.982  0.00  0.00    +0.145 HD
ENDBRANCH  32  34
ENDBRANCH  27  31
ENDBRANCH  26  27
ENDBRANCH   1  26
TORSDOF 9
