REMARK  Name = ZINC56054336
REMARK  5 active torsions:
REMARK  status: ('A' for Active; 'I' for Inactive)
REMARK    1  A    between atoms: C_4  and  C_7
REMARK    2  A    between atoms: C_9  and  C_21
REMARK    3  A    between atoms: C_11  and  C_16
REMARK    4  A    between atoms: C_11  and  O_20
REMARK    5  A    between atoms: C_21  and  C_23
REMARK                            x       y       z     vdW  Elec       q    Type
REMARK                         _______ _______ _______ _____ _____    ______ ____
ROOT
ATOM      1  C   UNL     1       3.711  -0.707  -0.038  0.00  0.00    +0.118 C 
ATOM      2  C   UNL     1       4.019  -1.172  -1.465  0.00  0.00    +0.147 C 
ATOM      3  C   UNL     1       5.299  -2.014  -1.438  0.00  0.00    +0.241 C 
ATOM      4  N   UNL     1       5.131  -3.112  -0.484  0.00  0.00    -0.291 N 
ATOM      5  C   UNL     1       4.330  -2.991   0.585  0.00  0.00    +0.133 C 
ATOM      6  S   UNL     1       4.195  -4.312   1.665  0.00  0.00    -0.019 S 
ATOM      7  N   UNL     1       3.631  -1.875   0.842  0.00  0.00    -0.319 N 
ATOM      8  H   UNL     1       5.610  -3.943  -0.627  0.00  0.00    +0.151 HD
ATOM      9  H   UNL     1       3.059  -1.841   1.625  0.00  0.00    +0.148 HD
ENDROOT
BRANCH   1  13
ATOM     10  C   UNL     1      -0.017   1.378   0.010  0.00  0.00    +0.000 A 
ATOM     11  C   UNL     1       1.171   2.086   0.002  0.00  0.00    +0.000 A 
ATOM     12  C   UNL     1       2.377   1.411  -0.013  0.00  0.00    +0.005 A 
ATOM     13  C   UNL     1       2.396   0.029  -0.020  0.00  0.00    -0.026 A 
ATOM     14  C   UNL     1       1.208  -0.679  -0.012  0.00  0.00    +0.005 A 
ATOM     15  C   UNL     1       0.002  -0.004   0.002  0.00  0.00    +0.000 A 
ENDBRANCH   1  13
BRANCH   3  16
ATOM     16  C   UNL     1       5.564  -2.586  -2.833  0.00  0.00    +0.436 C 
ATOM     17  F   UNL     1       5.717  -1.536  -3.745  0.00  0.00    -0.166 F 
ATOM     18  F   UNL     1       6.732  -3.355  -2.807  0.00  0.00    -0.166 F 
ATOM     19  F   UNL     1       4.486  -3.388  -3.221  0.00  0.00    -0.166 F 
ENDBRANCH   3  16
BRANCH   3  20
ATOM     20  O   UNL     1       6.401  -1.197  -1.038  0.00  0.00    -0.364 OA
ATOM     21  H   UNL     1       7.245  -1.667  -0.999  0.00  0.00    +0.212 HD
ENDBRANCH   3  20
BRANCH   2  22
ATOM     22  C   UNL     1       4.217   0.028  -2.356  0.00  0.00    +0.208 C 
ATOM     23  O   UNL     1       4.659   1.060  -1.895  0.00  0.00    -0.288 OA
BRANCH  22  24
ATOM     24  C   UNL     1       3.888  -0.050  -3.728  0.00  0.00    +0.170 A 
ATOM     25  C   UNL     1       4.023   0.964  -4.656  0.00  0.00    +0.053 A 
ATOM     26  C   UNL     1       3.579   0.446  -5.880  0.00  0.00    +0.042 A 
ATOM     27  C   UNL     1       3.200  -0.834  -5.659  0.00  0.00    +0.196 A 
ATOM     28  O   UNL     1       3.392  -1.130  -4.368  0.00  0.00    -0.460 OA
ENDBRANCH  22  24
ENDBRANCH   2  22
TORSDOF 5
