REMARK  Name = ZINC04264787
REMARK  7 active torsions:
REMARK  status: ('A' for Active; 'I' for Inactive)
REMARK    1  A    between atoms: C_1  and  C_2
REMARK    2  A    between atoms: C_2  and  C_5
REMARK    3  A    between atoms: N_3  and  O_4
REMARK    4  A    between atoms: C_10  and  C_30
REMARK    5  A    between atoms: C_20  and  C_29
REMARK    6  A    between atoms: C_21  and  O_28
REMARK    7  A    between atoms: C_24  and  O_27
REMARK                            x       y       z     vdW  Elec       q    Type
REMARK                         _______ _______ _______ _____ _____    ______ ____
ROOT
ATOM      1  C   UNL     1      -0.283  -0.278  -1.242  0.00  0.00    -0.021 C 
ATOM      2  C   UNL     1      -0.350   0.222  -2.490  0.00  0.00    -0.021 C 
ATOM      3  C   UNL     1      -0.384  -0.923  -3.503  0.00  0.00    +0.032 C 
ATOM      4  C   UNL     1       0.317  -2.047  -2.727  0.00  0.00    +0.007 C 
ATOM      5  C   UNL     1      -0.292  -1.768  -1.325  0.00  0.00    -0.002 C 
ATOM      6  C   UNL     1       0.522  -2.562  -0.329  0.00  0.00    +0.012 C 
ATOM      7  C   UNL     1       0.279  -4.048  -0.643  0.00  0.00    +0.005 C 
ATOM      8  C   UNL     1       0.628  -4.400  -2.086  0.00  0.00    +0.005 C 
ATOM      9  C   UNL     1      -0.057  -3.468  -3.108  0.00  0.00    +0.001 C 
ATOM     10  C   UNL     1       0.510  -3.783  -4.498  0.00  0.00    +0.031 C 
ATOM     11  C   UNL     1       0.360  -5.247  -4.785  0.00  0.00    -0.027 C 
ATOM     12  C   UNL     1       0.226  -6.147  -3.863  0.00  0.00    -0.062 C 
ATOM     13  C   UNL     1       0.213  -5.839  -2.364  0.00  0.00    +0.018 C 
ATOM     14  C   UNL     1      -1.161  -6.140  -1.771  0.00  0.00    +0.127 C 
ATOM     15  C   UNL     1      -1.847  -7.244  -2.575  0.00  0.00    +0.063 C 
ATOM     16  C   UNL     1      -0.830  -8.256  -3.100  0.00  0.00    +0.121 C 
ATOM     17  C   UNL     1       0.047  -7.605  -4.255  0.00  0.00    +0.062 C 
ATOM     18  C   UNL     1       1.224  -6.768  -1.689  0.00  0.00    +0.018 C 
ATOM     19  C   UNL     1      -1.738  -2.268  -1.297  0.00  0.00    +0.016 C 
ENDROOT
BRANCH   1  21
ATOM     20  C   UNL     1      -1.421   0.650   0.876  0.00  0.00    +0.069 C 
ATOM     21  C   UNL     1      -0.207   0.511  -0.006  0.00  0.00    +0.080 C 
ATOM     22  N   UNL     1       0.904   1.089   0.327  0.00  0.00    -0.092 NA
BRANCH  22  23
ATOM     23  O   UNL     1       2.074   0.868  -0.440  0.00  0.00    -0.409 OA
ATOM     24  H   UNL     1       2.869   1.278  -0.072  0.00  0.00    +0.328 HD
ENDBRANCH  22  23
ENDBRANCH   1  21
BRANCH  16  25
ATOM     25  O   UNL     1       0.030  -8.663  -2.033  0.00  0.00    -0.391 OA
ATOM     26  H   UNL     1       0.713  -9.294  -2.298  0.00  0.00    +0.210 HD
ENDBRANCH  16  25
BRANCH  14  27
ATOM     27  O   UNL     1      -1.009  -6.569  -0.416  0.00  0.00    -0.391 OA
ATOM     28  H   UNL     1      -1.843  -6.778   0.026  0.00  0.00    +0.210 HD
ENDBRANCH  14  27
TORSDOF 4
