REMARK  Name = ZINC23858092
REMARK  9 active torsions:
REMARK  status: ('A' for Active; 'I' for Inactive)
REMARK    1  A    between atoms: C_1  and  C_2
REMARK    2  A    between atoms: C_5  and  N_11
REMARK    3  A    between atoms: C_6  and  N_8
REMARK    4  A    between atoms: C_12  and  C_14
REMARK    5  A    between atoms: N_16  and  C_17
REMARK    6  A    between atoms: C_17  and  C_18
REMARK    7  A    between atoms: C_18  and  C_20
REMARK    8  A    between atoms: C_18  and  N_30
REMARK    9  A    between atoms: N_28  and  C_29
REMARK                            x       y       z     vdW  Elec       q    Type
REMARK                         _______ _______ _______ _____ _____    ______ ____
ROOT
ATOM      1  C   UNL     1      -2.454   7.477  -1.004  0.00  0.00    +0.094 C 
ENDROOT
BRANCH   1   4
ATOM      2  C   UNL     1      -2.627   9.830  -1.615  0.00  0.00    +0.299 C 
ATOM      3  O   UNL     1      -1.476   9.977  -1.259  0.00  0.00    -0.265 OA
ATOM      4  N   UNL     1      -3.209   8.618  -1.528  0.00  0.00    -0.309 N 
ATOM      5  H   UNL     1      -4.253   8.485  -1.851  0.00  0.00    +0.149 HD
BRANCH   2   7
ATOM      6  N   UNL     1      -2.814  12.204  -2.237  0.00  0.00    -0.276 N 
ATOM      7  C   UNL     1      -3.397  10.992  -2.150  0.00  0.00    +0.303 C 
ATOM      8  O   UNL     1      -4.548  10.845  -2.506  0.00  0.00    -0.265 OA
ATOM      9  H   UNL     1      -1.747  12.320  -1.996  0.00  0.00    +0.155 HD
BRANCH   6  14
ATOM     10  C   UNL     1      -5.864  16.707  -3.846  0.00  0.00    +0.044 C 
ATOM     11  C   UNL     1      -5.053  15.511  -3.419  0.00  0.00    -0.048 A 
ATOM     12  C   UNL     1      -5.394  14.249  -3.872  0.00  0.00    +0.005 A 
ATOM     13  C   UNL     1      -4.653  13.150  -3.482  0.00  0.00    +0.026 A 
ATOM     14  C   UNL     1      -3.565  13.314  -2.634  0.00  0.00    +0.064 A 
ATOM     15  C   UNL     1      -3.229  14.582  -2.177  0.00  0.00    +0.148 A 
ATOM     16  C   UNL     1      -3.970  15.677  -2.575  0.00  0.00    +0.038 A 
BRANCH  15  17
ATOM     17  N   UNL     1      -2.074  14.759  -1.268  0.00  0.00    +0.058 N 
ATOM     18  O   UNL     1      -1.830  15.857  -0.801  0.00  0.00    -0.126 OA
ATOM     19  O   UNL     1      -1.367  13.808  -0.988  0.00  0.00    -0.126 OA
ENDBRANCH  15  17
ENDBRANCH   6  14
ENDBRANCH   2   7
ENDBRANCH   1   4
BRANCH   1  20
ATOM     20  C   UNL     1      -3.385   6.272  -0.858  0.00  0.00    -0.020 C 
BRANCH  20  21
ATOM     21  C   UNL     1      -2.595   5.083  -0.373  0.00  0.00    -0.059 A 
ATOM     22  C   UNL     1      -2.208   5.002   0.952  0.00  0.00    +0.004 A 
ATOM     23  C   UNL     1      -1.488   3.914   1.400  0.00  0.00    +0.023 A 
ATOM     24  C   UNL     1      -1.146   2.889   0.520  0.00  0.00    +0.033 A 
ATOM     25  C   UNL     1      -1.536   2.983  -0.811  0.00  0.00    -0.025 A 
ATOM     26  C   UNL     1      -2.257   4.071  -1.254  0.00  0.00    +0.007 A 
ATOM     27  C   UNL     1      -1.028   1.751  -1.534  0.00  0.00    +0.056 C 
ATOM     28  C   UNL     1       0.024   1.185  -0.552  0.00  0.00    +0.109 C 
ATOM     29  N   UNL     1      -0.438   1.701   0.755  0.00  0.00    -0.332 N 
ATOM     30  C   UNL     1       0.696   1.929   1.661  0.00  0.00    +0.129 C 
ENDBRANCH  20  21
BRANCH  20  31
ATOM     31  N   UNL     1      -4.443   6.585   0.112  0.00  0.00    +0.385 N 
ATOM     32  C   UNL     1      -5.656   7.057  -0.567  0.00  0.00    -0.078 C 
ATOM     33  C   UNL     1      -6.780   7.234   0.457  0.00  0.00    -0.019 C 
ATOM     34  C   UNL     1      -6.340   8.246   1.520  0.00  0.00    -0.004 C 
ATOM     35  C   UNL     1      -5.048   7.754   2.178  0.00  0.00    -0.019 C 
ATOM     36  C   UNL     1      -3.975   7.562   1.104  0.00  0.00    -0.078 C 
ATOM     37  H   UNL     1      -4.697   5.659   0.648  0.00  0.00    -0.081 HD
ENDBRANCH  20  31
ENDBRANCH   1  20
TORSDOF 7
