REMARK  Name = ZINC39681368
REMARK  6 active torsions:
REMARK  status: ('A' for Active; 'I' for Inactive)
REMARK    1  A    between atoms: C_7  and  C_10
REMARK    2  A    between atoms: C_14  and  C_23
REMARK    3  A    between atoms: N_25  and  C_26
REMARK    4  A    between atoms: C_26  and  C_27
REMARK    5  A    between atoms: C_27  and  O_28
REMARK    6  A    between atoms: O_28  and  C_29
REMARK                            x       y       z     vdW  Elec       q    Type
REMARK                         _______ _______ _______ _____ _____    ______ ____
ROOT
ATOM      1  C   UNL     1       0.377  -3.116  -0.013  0.00  0.00    +0.248 C 
ATOM      2  O   UNL     1       1.285  -2.310  -0.095  0.00  0.00    -0.270 OA
ATOM      3  N   UNL     1       0.651  -4.432   0.077  0.00  0.00    -0.296 N 
ATOM      4  C   UNL     1       1.980  -5.078   0.185  0.00  0.00    +0.121 C 
ATOM      5  C   UNL     1       1.774  -6.233   1.191  0.00  0.00    +0.100 C 
ATOM      6  C   UNL     1       0.270  -6.546   1.124  0.00  0.00    -0.004 C 
ATOM      7  C   UNL     1      -0.310  -5.561   0.099  0.00  0.00    +0.115 C 
ATOM      8  C   UNL     1       0.049  -7.983   0.661  0.00  0.00    -0.010 C 
ATOM      9  C   UNL     1      -1.451  -8.290   0.659  0.00  0.00    -0.082 C 
ATOM     10  N   UNL     1      -1.993  -8.101   2.010  0.00  0.00    +0.379 N 
ATOM     11  C   UNL     1      -1.861  -6.696   2.411  0.00  0.00    -0.082 C 
ATOM     12  C   UNL     1      -0.378  -6.322   2.487  0.00  0.00    -0.010 C 
ATOM     13  H   UNL     1      -2.968  -8.362   2.019  0.00  0.00    -0.086 HD
ATOM     14  H   UNL     1      -1.485  -8.684   2.658  0.00  0.00    -0.086 HD
ENDROOT
BRANCH   1  21
ATOM     15  C   UNL     1      -1.169   0.674   1.853  0.00  0.00    +0.001 A 
ATOM     16  C   UNL     1      -2.530   0.919   1.736  0.00  0.00    +0.001 A 
ATOM     17  C   UNL     1      -3.333   0.015   1.069  0.00  0.00    +0.015 A 
ATOM     18  C   UNL     1      -2.772  -1.123   0.527  0.00  0.00    +0.020 A 
ATOM     19  C   UNL     1      -1.395  -1.395   0.632  0.00  0.00    +0.001 A 
ATOM     20  C   UNL     1      -0.602  -0.455   1.318  0.00  0.00    +0.010 A 
ATOM     21  C   UNL     1      -1.016  -2.654  -0.013  0.00  0.00    +0.052 A 
ATOM     22  C   UNL     1      -1.995  -3.381  -0.613  0.00  0.00    +0.059 A 
ATOM     23  S   UNL     1      -3.406  -2.506  -0.381  0.00  0.00    -0.096 S 
ENDBRANCH   1  21
BRANCH   5  24
ATOM     24  C   UNL     1       2.159  -5.793   2.580  0.00  0.00    +0.218 C 
ATOM     25  O   UNL     1       1.958  -4.650   2.932  0.00  0.00    -0.275 OA
ATOM     26  N   UNL     1       2.728  -6.670   3.430  0.00  0.00    -0.312 N 
ATOM     27  H   UNL     1       2.889  -7.585   3.149  0.00  0.00    +0.149 HD
BRANCH  26  28
ATOM     28  C   UNL     1       3.103  -6.244   4.781  0.00  0.00    +0.145 C 
BRANCH  28  29
ATOM     29  C   UNL     1       3.723  -7.422   5.535  0.00  0.00    +0.248 C 
BRANCH  29  30
ATOM     30  O   UNL     1       4.948  -7.799   4.904  0.00  0.00    -0.489 OA
BRANCH  30  31
ATOM     31  C   UNL     1       5.630  -8.839   5.453  0.00  0.00    +0.139 A 
ATOM     32  C   UNL     1       5.128  -9.485   6.573  0.00  0.00    +0.047 A 
ATOM     33  C   UNL     1       5.823 -10.541   7.129  0.00  0.00    +0.004 A 
ATOM     34  C   UNL     1       7.019 -10.954   6.572  0.00  0.00    +0.002 A 
ATOM     35  C   UNL     1       7.523 -10.312   5.456  0.00  0.00    +0.023 A 
ATOM     36  C   UNL     1       6.828  -9.258   4.891  0.00  0.00    +0.083 A 
ATOM     37 CL   UNL     1       7.457  -8.457   3.486  0.00  0.00    -0.080 Cl
ENDBRANCH  30  31
ENDBRANCH  29  30
ENDBRANCH  28  29
ENDBRANCH  26  28
ENDBRANCH   5  24
TORSDOF 6
