REMARK  Name = ZINC28722007
REMARK  9 active torsions:
REMARK  status: ('A' for Active; 'I' for Inactive)
REMARK    1  A    between atoms: C_1  and  C_2
REMARK    2  A    between atoms: C_3  and  C_14
REMARK    3  A    between atoms: C_4  and  C_13
REMARK    4  A    between atoms: N_5  and  C_7
REMARK    5  A    between atoms: N_21  and  C_22
REMARK    6  A    between atoms: C_22  and  C_23
REMARK    7  A    between atoms: N_25  and  C_26
REMARK    8  A    between atoms: C_26  and  C_28
REMARK    9  A    between atoms: C_26  and  C_29
REMARK                            x       y       z     vdW  Elec       q    Type
REMARK                         _______ _______ _______ _____ _____    ______ ____
ROOT
ATOM      1  C   UNL     1       0.220  -6.396   8.457  0.00  0.00    +0.054 C 
ATOM      2  C   UNL     1      -0.503  -7.667   8.803  0.00  0.00    +0.204 C 
ATOM      3  O   UNL     1      -1.038  -7.754   9.888  0.00  0.00    -0.277 OA
ATOM      4  N   UNL     1      -0.581  -8.706   7.965  0.00  0.00    -0.318 N 
ATOM      5  C   UNL     1      -0.003  -8.689   6.624  0.00  0.00    +0.085 C 
ATOM      6  C   UNL     1       1.034  -7.569   6.514  0.00  0.00    -0.058 C 
ATOM      7  N   UNL     1       0.433  -6.319   7.006  0.00  0.00    +0.397 N 
ATOM      8  H   UNL     1      -1.108  -9.601   8.325  0.00  0.00    +0.149 HD
ATOM      9  H   UNL     1      -0.543  -6.183   6.517  0.00  0.00    -0.079 HD
ENDROOT
BRANCH   1  12
ATOM     10  C   UNL     1      -2.384  -5.290   7.027  0.00  0.00    +0.068 C 
ATOM     11  C   UNL     1      -1.752  -4.726   8.274  0.00  0.00    +0.063 A 
ATOM     12  C   UNL     1      -0.603  -5.215   8.905  0.00  0.00    -0.009 A 
ATOM     13  C   UNL     1      -0.363  -4.444   9.990  0.00  0.00    +0.044 A 
ATOM     14  N   UNL     1      -1.325  -3.494  10.040  0.00  0.00    -0.237 N 
ATOM     15  N   UNL     1      -2.186  -3.695   8.954  0.00  0.00    -0.171 NA
ATOM     16  C   UNL     1       0.772  -4.611  10.967  0.00  0.00    +0.066 C 
BRANCH  14  17
ATOM     17  C   UNL     1      -1.442  -2.489  11.011  0.00  0.00    +0.066 A 
ATOM     18  C   UNL     1      -2.688  -2.165  11.529  0.00  0.00    +0.028 A 
ATOM     19  C   UNL     1      -2.800  -1.177  12.489  0.00  0.00    +0.002 A 
ATOM     20  C   UNL     1      -1.674  -0.505  12.926  0.00  0.00    +0.000 A 
ATOM     21  C   UNL     1      -0.431  -0.823  12.408  0.00  0.00    +0.002 A 
ATOM     22  C   UNL     1      -0.313  -1.813  11.452  0.00  0.00    +0.028 A 
ENDBRANCH  14  17
ENDBRANCH   1  12
BRANCH   7  23
ATOM     23  C   UNL     1       1.268  -5.161   6.657  0.00  0.00    +0.020 C 
BRANCH  23  24
ATOM     24  C   UNL     1       1.284  -4.987   5.160  0.00  0.00    +0.197 C 
ATOM     25  O   UNL     1       0.663  -5.752   4.453  0.00  0.00    -0.278 OA
ATOM     26  N   UNL     1       1.991  -3.981   4.606  0.00  0.00    -0.310 N 
ATOM     27  H   UNL     1       2.555  -3.288   5.247  0.00  0.00    +0.149 HD
BRANCH  26  28
ATOM     28  C   UNL     1       2.007  -3.812   3.151  0.00  0.00    +0.100 C 
ATOM     29  C   UNL     1       3.088  -4.709   2.546  0.00  0.00    +0.033 C 
BRANCH  28  30
ATOM     30  C   UNL     1       2.302  -2.373   2.817  0.00  0.00    -0.027 A 
ATOM     31  C   UNL     1       3.244  -1.670   3.545  0.00  0.00    +0.006 A 
ATOM     32  C   UNL     1       3.507  -0.352   3.234  0.00  0.00    +0.004 A 
ATOM     33  C   UNL     1       2.833   0.276   2.194  0.00  0.00    -0.044 A 
ATOM     34  C   UNL     1       1.899  -0.425   1.466  0.00  0.00    -0.044 A 
ATOM     35  C   UNL     1       1.635  -1.752   1.781  0.00  0.00    +0.009 A 
ATOM     36  C   UNL     1       1.137   0.189   0.320  0.00  0.00    +0.035 C 
ATOM     37  C   UNL     1       1.210   1.713   0.383  0.00  0.00    +0.005 C 
ATOM     38  C   UNL     1       2.681   2.122   0.524  0.00  0.00    +0.005 C 
ATOM     39  C   UNL     1       3.160   1.720   1.918  0.00  0.00    +0.035 C 
ENDBRANCH  28  30
ENDBRANCH  26  28
ENDBRANCH  23  24
ENDBRANCH   7  23
TORSDOF 6
