REMARK  Name = ZINC56748104
REMARK  10 active torsions:
REMARK  status: ('A' for Active; 'I' for Inactive)
REMARK    1  A    between atoms: C_1  and  N_2
REMARK    2  A    between atoms: N_2  and  C_3
REMARK    3  A    between atoms: N_2  and  C_4
REMARK    4  A    between atoms: C_4  and  C_6
REMARK    5  A    between atoms: C_4  and  C_25
REMARK    6  A    between atoms: C_6  and  N_7
REMARK    7  A    between atoms: N_10  and  C_11
REMARK    8  A    between atoms: C_16  and  C_17
REMARK    9  A    between atoms: C_17  and  O_18
REMARK   10  A    between atoms: O_18  and  C_19
REMARK                            x       y       z     vdW  Elec       q    Type
REMARK                         _______ _______ _______ _____ _____    ______ ____
ROOT
ATOM      1  N   UNL     1      -1.777   1.536  -1.158  0.00  0.00    -0.300 N 
ATOM      2  C   UNL     1      -2.280   2.268  -2.172  0.00  0.00    +0.304 C 
ATOM      3  O   UNL     1      -2.983   1.740  -3.012  0.00  0.00    -0.253 OA
ATOM      4  N   UNL     1      -2.004   3.585  -2.254  0.00  0.00    -0.269 N 
ATOM      5  H   UNL     1      -1.216   1.957  -0.488  0.00  0.00    +0.150 HD
ATOM      6  H   UNL     1      -1.392   3.992  -1.622  0.00  0.00    +0.156 HD
ENDROOT
BRANCH   4   7
ATOM      7  C   UNL     1      -2.602   4.364  -3.251  0.00  0.00    +0.041 A 
ATOM      8  C   UNL     1      -3.012   3.777  -4.441  0.00  0.00    +0.024 A 
ATOM      9  C   UNL     1      -3.602   4.548  -5.422  0.00  0.00    +0.002 A 
ATOM     10  C   UNL     1      -3.783   5.905  -5.222  0.00  0.00    +0.000 A 
ATOM     11  C   UNL     1      -3.375   6.492  -4.039  0.00  0.00    +0.009 A 
ATOM     12  C   UNL     1      -2.791   5.725  -3.050  0.00  0.00    +0.011 A 
BRANCH  12  13
ATOM     13  C   UNL     1      -2.352   6.365  -1.759  0.00  0.00    +0.266 C 
BRANCH  13  14
ATOM     14  O   UNL     1      -2.651   7.762  -1.794  0.00  0.00    -0.487 OA
BRANCH  14  15
ATOM     15  C   UNL     1      -2.317   8.492  -0.697  0.00  0.00    +0.121 A 
ATOM     16  C   UNL     1      -1.708   7.878   0.387  0.00  0.00    +0.045 A 
ATOM     17  C   UNL     1      -1.368   8.623   1.500  0.00  0.00    +0.004 A 
ATOM     18  C   UNL     1      -1.636   9.979   1.534  0.00  0.00    +0.000 A 
ATOM     19  C   UNL     1      -2.244  10.593   0.455  0.00  0.00    +0.004 A 
ATOM     20  C   UNL     1      -2.579   9.854  -0.663  0.00  0.00    +0.045 A 
ENDBRANCH  14  15
ENDBRANCH  13  14
ENDBRANCH  12  13
ENDBRANCH   4   7
BRANCH   1  21
ATOM     21  C   UNL     1      -2.077   0.105  -1.069  0.00  0.00    +0.095 C 
BRANCH  21  22
ATOM     22  C   UNL     1      -1.292  -0.510   0.091  0.00  0.00    -0.020 C 
BRANCH  22  23
ATOM     23  C   UNL     1      -1.777   0.076   1.392  0.00  0.00    -0.052 A 
ATOM     24  C   UNL     1      -1.072   1.091   2.011  0.00  0.00    +0.009 A 
ATOM     25  C   UNL     1      -1.536   1.596   3.180  0.00  0.00    +0.045 A 
ATOM     26  S   UNL     1      -3.014   0.628   3.440  0.00  0.00    -0.105 S 
ATOM     27  C   UNL     1      -2.915  -0.381   1.970  0.00  0.00    +0.047 A 
ENDBRANCH  22  23
BRANCH  22  29
ATOM     28  C   UNL     1      -0.935  -2.547  -1.123  0.00  0.00    -0.096 C 
ATOM     29  N   UNL     1      -1.494  -1.965   0.104  0.00  0.00    +0.382 N 
ATOM     30  C   UNL     1      -0.818  -2.543   1.273  0.00  0.00    -0.096 C 
ATOM     31  H   UNL     1      -2.481  -2.166   0.152  0.00  0.00    -0.082 HD
ENDBRANCH  22  29
ENDBRANCH  21  22
ENDBRANCH   1  21
TORSDOF 8
