REMARK  Name = ZINC10001841
REMARK  8 active torsions:
REMARK  status: ('A' for Active; 'I' for Inactive)
REMARK    1  A    between atoms: C_1  and  C_2
REMARK    2  A    between atoms: C_2  and  C_3
REMARK    3  A    between atoms: C_2  and  C_4
REMARK    4  A    between atoms: C_4  and  C_6
REMARK    5  A    between atoms: C_4  and  N_18
REMARK    6  A    between atoms: N_8  and  N_9
REMARK    7  A    between atoms: C_10  and  C_11
REMARK    8  A    between atoms: C_19  and  C_21
REMARK                            x       y       z     vdW  Elec       q    Type
REMARK                         _______ _______ _______ _____ _____    ______ ____
ROOT
ATOM      1  C   UNL     1       4.865   8.078  -0.001  0.00  0.00    +0.163 C 
ENDROOT
BRANCH   1   2
ATOM      2  C   UNL     1       3.573   7.302   0.007  0.00  0.00    +0.253 C 
ATOM      3  O   UNL     1       2.512   7.891   0.019  0.00  0.00    -0.272 OA
ATOM      4  N   UNL     1       3.596   5.955  -0.000  0.00  0.00    -0.205 N 
ATOM      5  H   UNL     1       4.444   5.484  -0.010  0.00  0.00    +0.177 HD
BRANCH   4   6
ATOM      6  N   UNL     1       2.395   5.233   0.007  0.00  0.00    -0.188 NA
ATOM      7  C   UNL     1       2.417   3.936   0.000  0.00  0.00    +0.138 C 
BRANCH   7   8
ATOM      8  C   UNL     1       1.153   3.177   0.008  0.00  0.00    -0.004 A 
ATOM      9  C   UNL     1       1.173   1.780   0.000  0.00  0.00    +0.009 A 
ATOM     10  C   UNL     1      -0.013   1.076   0.008  0.00  0.00    +0.002 A 
ATOM     11  C   UNL     1      -1.221   1.750   0.017  0.00  0.00    +0.015 A 
ATOM     12  C   UNL     1      -1.249   3.134   0.030  0.00  0.00    +0.018 A 
ATOM     13  C   UNL     1      -0.070   3.851   0.022  0.00  0.00    +0.024 A 
ATOM     14 BR   UNL     1      -2.907   4.043   0.049  0.00  0.00    -0.050 Br
ENDBRANCH   7   8
ENDBRANCH   4   6
ENDBRANCH   1   2
BRANCH   1  15
ATOM     15  N   UNL     1       4.573   9.514   0.009  0.00  0.00    -0.300 N 
ATOM     16  C   UNL     1       5.479  10.383   0.498  0.00  0.00    +0.245 C 
ATOM     17  O   UNL     1       6.540   9.975   0.932  0.00  0.00    -0.270 OA
ATOM     18  H   UNL     1       3.727   9.839  -0.337  0.00  0.00    +0.150 HD
BRANCH  16  19
ATOM     19  C   UNL     1       5.185  11.829   0.508  0.00  0.00    +0.040 A 
ATOM     20  C   UNL     1       3.969  12.299   0.005  0.00  0.00    +0.017 A 
ATOM     21  C   UNL     1       3.694  13.649   0.021  0.00  0.00    +0.050 A 
ATOM     22  C   UNL     1       4.626  14.547   0.524  0.00  0.00    +0.166 A 
ATOM     23  C   UNL     1       5.844  14.084   1.023  0.00  0.00    +0.167 A 
ATOM     24  C   UNL     1       6.123  12.731   1.016  0.00  0.00    +0.062 A 
ATOM     25  O   UNL     1       6.574  15.155   1.452  0.00  0.00    -0.453 OA
ATOM     26  C   UNL     1       5.964  16.306   0.838  0.00  0.00    +0.466 C 
ATOM     27  O   UNL     1       4.595  15.905   0.643  0.00  0.00    -0.453 OA
ENDBRANCH  16  19
ENDBRANCH   1  15
BRANCH   1  29
ATOM     28  C   UNL     1       4.897   8.204  -2.496  0.00  0.00    +0.009 C 
ATOM     29  C   UNL     1       5.662   7.729  -1.259  0.00  0.00    +0.012 C 
ATOM     30  C   UNL     1       7.027   8.419  -1.207  0.00  0.00    +0.009 C 
ENDBRANCH   1  29
TORSDOF 6
