REMARK  Name = ZINC35193554
REMARK  9 active torsions:
REMARK  status: ('A' for Active; 'I' for Inactive)
REMARK    1  A    between atoms: C_1  and  C_2
REMARK    2  A    between atoms: C_2  and  O_3
REMARK    3  A    between atoms: O_3  and  C_4
REMARK    4  A    between atoms: C_4  and  C_6
REMARK    5  A    between atoms: C_6  and  C_28
REMARK    6  A    between atoms: C_7  and  C_22
REMARK    7  A    between atoms: C_13  and  C_16
REMARK    8  A    between atoms: C_17  and  C_20
REMARK    9  A    between atoms: C_18  and  N_19
REMARK                            x       y       z     vdW  Elec       q    Type
REMARK                         _______ _______ _______ _____ _____    ______ ____
ROOT
ATOM      1  C   UNL     1      -2.911  -2.484   0.419  0.00  0.00    +0.202 C 
ATOM      2  C   UNL     1      -2.781  -3.949   0.013  0.00  0.00    +0.082 C 
ATOM      3  C   UNL     1      -2.047  -4.729   1.084  0.00  0.00    -0.055 C 
ATOM      4  C   UNL     1      -2.268  -4.460   2.358  0.00  0.00    -0.029 C 
ATOM      5  C   UNL     1      -1.613  -5.214   3.486  0.00  0.00    +0.037 C 
ATOM      6  C   UNL     1      -0.376  -5.962   2.995  0.00  0.00    +0.008 C 
ATOM      7  C   UNL     1      -0.770  -6.769   1.752  0.00  0.00    -0.010 C 
ATOM      8  C   UNL     1      -1.077  -5.787   0.625  0.00  0.00    +0.035 C 
ATOM      9  C   UNL     1       0.387  -7.683   1.341  0.00  0.00    +0.008 C 
ATOM     10  C   UNL     1      -3.180  -3.347   2.723  0.00  0.00    +0.073 C 
ATOM     11  C   UNL     1      -3.505  -2.402   1.802  0.00  0.00    +0.051 C 
ENDROOT
BRANCH   2  12
ATOM     12  C   UNL     1      -4.156  -4.539  -0.174  0.00  0.00    -0.038 A 
ATOM     13  C   UNL     1      -4.669  -4.705  -1.447  0.00  0.00    +0.004 A 
ATOM     14  C   UNL     1      -5.929  -5.246  -1.619  0.00  0.00    +0.000 A 
ATOM     15  C   UNL     1      -6.677  -5.620  -0.518  0.00  0.00    +0.000 A 
ATOM     16  C   UNL     1      -6.163  -5.455   0.755  0.00  0.00    +0.000 A 
ATOM     17  C   UNL     1      -4.901  -4.918   0.926  0.00  0.00    +0.004 A 
ENDBRANCH   2  12
BRANCH  11  18
ATOM     18  N   UNL     1      -4.362  -1.388   2.127  0.00  0.00    -0.359 N 
ATOM     19  H   UNL     1      -4.591  -0.716   1.466  0.00  0.00    +0.142 HD
ATOM     20  H   UNL     1      -4.741  -1.340   3.019  0.00  0.00    +0.142 HD
ENDBRANCH  11  18
BRANCH   1  21
ATOM     21  C   UNL     1      -1.549  -1.839   0.417  0.00  0.00    +0.334 C 
ATOM     22  O   UNL     1      -0.574  -2.486   0.117  0.00  0.00    -0.249 OA
BRANCH  21  23
ATOM     23  O   UNL     1      -1.419  -0.545   0.749  0.00  0.00    -0.464 OA
BRANCH  23  25
ATOM     24  C   UNL     1      -0.150   1.476   1.129  0.00  0.00    +0.048 C 
ATOM     25  C   UNL     1      -0.099   0.002   0.726  0.00  0.00    +0.229 C 
ENDBRANCH  23  25
ENDBRANCH  21  23
ENDBRANCH   1  21
BRANCH  10  26
ATOM     26  C   UNL     1      -3.719  -3.270   4.048  0.00  0.00    +0.101 C 
ATOM     27  N   UNL     1      -4.146  -3.209   5.098  0.00  0.00    -0.191 NA
ENDBRANCH  10  26
BRANCH   1  28
ATOM     28  C   UNL     1      -3.788  -1.785  -0.535  0.00  0.00    +0.088 C 
ATOM     29  N   UNL     1      -4.464  -1.245  -1.271  0.00  0.00    -0.195 NA
ENDBRANCH   1  28
TORSDOF 7
