REMARK  Name = ZINC09429102
REMARK  10 active torsions:
REMARK  status: ('A' for Active; 'I' for Inactive)
REMARK    1  A    between atoms: C_1  and  C_2
REMARK    2  A    between atoms: C_7  and  S_15
REMARK    3  A    between atoms: C_12  and  C_14
REMARK    4  A    between atoms: S_15  and  N_18
REMARK    5  A    between atoms: N_18  and  C_19
REMARK    6  A    between atoms: C_19  and  C_21
REMARK    7  A    between atoms: C_19  and  C_24
REMARK    8  A    between atoms: C_21  and  C_22
REMARK    9  A    between atoms: C_21  and  C_23
REMARK   10  A    between atoms: N_26  and  C_27
REMARK                            x       y       z     vdW  Elec       q    Type
REMARK                         _______ _______ _______ _____ _____    ______ ____
ROOT
ATOM      1  N   UNL     1      -2.696   4.797  -1.867  0.00  0.00    -0.178 NA
ATOM      2  H   UNL     1      -3.052   5.684  -2.029  0.00  0.00    +0.149 HD
ENDROOT
BRANCH   1   3
ATOM      3  S   UNL     1      -1.968   4.447  -0.421  0.00  0.00    +0.059 S 
ATOM      4  O   UNL     1      -2.524   3.218   0.026  0.00  0.00    -0.153 OA
ATOM      5  O   UNL     1      -2.021   5.635   0.358  0.00  0.00    -0.153 OA
BRANCH   3  11
ATOM      6  C   UNL     1       4.994   5.420  -2.695  0.00  0.00    +0.029 C 
ATOM      7  C   UNL     1       4.361   4.972  -1.376  0.00  0.00    +0.083 C 
ATOM      8  C   UNL     1       3.167   5.875  -1.024  0.00  0.00    +0.059 C 
ATOM      9  C   UNL     1       1.980   4.939  -0.988  0.00  0.00    -0.022 A 
ATOM     10  C   UNL     1       0.645   5.179  -0.727  0.00  0.00    +0.034 A 
ATOM     11  C   UNL     1      -0.266   4.139  -0.755  0.00  0.00    +0.106 A 
ATOM     12  C   UNL     1       0.162   2.857  -1.049  0.00  0.00    +0.030 A 
ATOM     13  C   UNL     1       1.494   2.612  -1.306  0.00  0.00    +0.026 A 
ATOM     14  C   UNL     1       2.420   3.657  -1.280  0.00  0.00    +0.040 A 
ATOM     15  N   UNL     1       3.798   3.626  -1.513  0.00  0.00    -0.268 N 
ATOM     16  C   UNL     1       4.505   2.520  -1.819  0.00  0.00    +0.217 C 
ATOM     17  O   UNL     1       3.933   1.467  -2.005  0.00  0.00    -0.276 OA
ATOM     18  C   UNL     1       6.006   2.592  -1.929  0.00  0.00    +0.109 C 
ENDBRANCH   3  11
ENDBRANCH   1   3
BRANCH   1  19
ATOM     19  C   UNL     1      -2.800   3.766  -2.902  0.00  0.00    +0.165 C 
BRANCH  19  20
ATOM     20  C   UNL     1      -2.144   4.256  -4.168  0.00  0.00    +0.232 C 
ATOM     21  O   UNL     1      -1.639   5.358  -4.201  0.00  0.00    -0.274 OA
ATOM     22  N   UNL     1      -2.119   3.470  -5.262  0.00  0.00    -0.311 N 
ATOM     23  H   UNL     1      -2.523   2.588  -5.235  0.00  0.00    +0.149 HD
BRANCH  22  24
ATOM     24  C   UNL     1      -1.482   3.946  -6.492  0.00  0.00    +0.073 C 
ATOM     25  C   UNL     1      -2.476   4.845  -7.255  0.00  0.00    +0.022 C 
ATOM     26  C   UNL     1      -1.701   5.720  -8.202  0.00  0.00    +0.002 C 
ATOM     27  C   UNL     1      -1.603   5.116  -9.616  0.00  0.00    +0.000 C 
ATOM     28  C   UNL     1      -1.331   3.600  -9.601  0.00  0.00    +0.000 C 
ATOM     29  C   UNL     1      -0.313   3.208  -8.565  0.00  0.00    +0.002 C 
ATOM     30  C   UNL     1      -1.057   2.797  -7.278  0.00  0.00    +0.022 C 
ENDBRANCH  22  24
ENDBRANCH  19  20
BRANCH  19  31
ATOM     31  C   UNL     1      -4.276   3.466  -3.176  0.00  0.00    +0.010 C 
ATOM     32  C   UNL     1      -4.916   2.870  -1.921  0.00  0.00    +0.009 C 
ATOM     33  C   UNL     1      -4.998   4.761  -3.552  0.00  0.00    +0.009 C 
ENDBRANCH  19  31
ENDBRANCH   1  19
TORSDOF 6
