REMARK  Name = ZINC00442047
REMARK  5 active torsions:
REMARK  status: ('A' for Active; 'I' for Inactive)
REMARK    1  A    between atoms: C_1  and  C_2
REMARK    2  A    between atoms: C_5  and  S_8
REMARK    3  A    between atoms: S_8  and  N_11
REMARK    4  A    between atoms: N_11  and  N_12
REMARK    5  A    between atoms: C_13  and  C_14
REMARK                            x       y       z     vdW  Elec       q    Type
REMARK                         _______ _______ _______ _____ _____    ______ ____
ROOT
ATOM      1  N   UNL     1      -0.016   1.296   0.009  0.00  0.00    -0.172 NA
ATOM      2  C   UNL     1       0.002  -0.004   0.002  0.00  0.00    +0.158 C 
ENDROOT
BRANCH   2   3
ATOM      3  C   UNL     1      -1.259  -0.755   0.010  0.00  0.00    +0.079 A 
ATOM      4  C   UNL     1      -2.503  -0.203   0.025  0.00  0.00    +0.075 A 
ATOM      5  C   UNL     1      -3.459  -1.308   0.028  0.00  0.00    +0.019 A 
ATOM      6  C   UNL     1      -4.856  -1.379   0.040  0.00  0.00    +0.011 A 
ATOM      7  C   UNL     1      -5.474  -2.597   0.038  0.00  0.00    +0.001 A 
ATOM      8  C   UNL     1      -4.726  -3.767   0.025  0.00  0.00    +0.002 A 
ATOM      9  C   UNL     1      -3.349  -3.721   0.012  0.00  0.00    +0.026 A 
ATOM     10  C   UNL     1      -2.697  -2.493   0.014  0.00  0.00    +0.048 A 
ATOM     11  N   UNL     1      -1.367  -2.130  -0.002  0.00  0.00    -0.352 N 
ATOM     12  H   UNL     1      -0.621  -2.749  -0.017  0.00  0.00    +0.166 HD
ATOM     13 CL   UNL     1      -2.882   1.491   0.039  0.00  0.00    -0.081 Cl
ENDBRANCH   2   3
BRANCH   1  14
ATOM     14  N   UNL     1       1.188   2.013   0.002  0.00  0.00    -0.137 N 
ATOM     15  H   UNL     1       2.035   1.539  -0.009  0.00  0.00    +0.197 HD
BRANCH  14  16
ATOM     16  S   UNL     1       1.166   3.668   0.011  0.00  0.00    +0.086 S 
ATOM     17  O   UNL     1       2.515   4.092   0.146  0.00  0.00    -0.149 OA
ATOM     18  O   UNL     1       0.347   4.070  -1.079  0.00  0.00    -0.149 OA
BRANCH  16  23
ATOM     19  C   UNL     1      -1.692   5.387   5.039  0.00  0.00    +0.044 C 
ATOM     20  C   UNL     1      -0.979   4.958   3.783  0.00  0.00    -0.050 A 
ATOM     21  C   UNL     1       0.391   4.771   3.796  0.00  0.00    +0.005 A 
ATOM     22  C   UNL     1       1.046   4.378   2.644  0.00  0.00    +0.029 A 
ATOM     23  C   UNL     1       0.331   4.170   1.479  0.00  0.00    +0.110 A 
ATOM     24  C   UNL     1      -1.038   4.362   1.465  0.00  0.00    +0.029 A 
ATOM     25  C   UNL     1      -1.693   4.751   2.618  0.00  0.00    +0.005 A 
ENDBRANCH  16  23
ENDBRANCH  14  16
ENDBRANCH   1  14
TORSDOF 4
