REMARK  Name = ZINC33127984
REMARK  5 active torsions:
REMARK  status: ('A' for Active; 'I' for Inactive)
REMARK    1  A    between atoms: C_4  and  C_7
REMARK    2  A    between atoms: C_7  and  C_8
REMARK    3  A    between atoms: C_8  and  C_10
REMARK    4  A    between atoms: C_8  and  N_21
REMARK    5  A    between atoms: N_24  and  C_25
REMARK                            x       y       z     vdW  Elec       q    Type
REMARK                         _______ _______ _______ _____ _____    ______ ____
ROOT
ATOM      1  C   UNL     1      -3.076   3.468  -1.510  0.00  0.00    +0.165 C 
ENDROOT
BRANCH   1   2
ATOM      2  C   UNL     1      -4.374   4.232  -1.461  0.00  0.00    +0.240 C 
ATOM      3  O   UNL     1      -5.349   3.809  -2.045  0.00  0.00    -0.273 OA
ATOM      4  N   UNL     1      -4.451   5.386  -0.768  0.00  0.00    -0.269 N 
ATOM      5  C   UNL     1      -3.322   6.046  -0.107  0.00  0.00    +0.118 C 
ATOM      6  C   UNL     1      -3.914   7.311   0.534  0.00  0.00    +0.056 C 
ATOM      7  C   UNL     1      -5.384   7.264   0.184  0.00  0.00    -0.024 A 
ATOM      8  C   UNL     1      -5.622   6.125  -0.569  0.00  0.00    +0.040 A 
ATOM      9  C   UNL     1      -6.919   5.863  -1.012  0.00  0.00    +0.024 A 
ATOM     10  C   UNL     1      -7.947   6.730  -0.705  0.00  0.00    +0.002 A 
ATOM     11  C   UNL     1      -7.700   7.864   0.047  0.00  0.00    +0.000 A 
ATOM     12  C   UNL     1      -6.417   8.129   0.491  0.00  0.00    +0.005 A 
ENDBRANCH   1   2
BRANCH   1  13
ATOM     13  N   UNL     1      -3.100   2.538  -2.641  0.00  0.00    -0.288 N 
ATOM     14  C   UNL     1      -1.944   2.126  -3.200  0.00  0.00    +0.304 C 
ATOM     15  O   UNL     1      -0.882   2.528  -2.765  0.00  0.00    -0.252 OA
ATOM     16  N   UNL     1      -1.966   1.270  -4.240  0.00  0.00    -0.269 N 
ATOM     17  H   UNL     1      -4.061   2.174  -3.034  0.00  0.00    +0.151 HD
ATOM     18  H   UNL     1      -2.921   0.840  -4.579  0.00  0.00    +0.156 HD
BRANCH  16  19
ATOM     19  C   UNL     1      -0.774   0.927  -4.890  0.00  0.00    +0.035 A 
ATOM     20  C   UNL     1       0.248   1.860  -5.006  0.00  0.00    +0.026 A 
ATOM     21  C   UNL     1       1.425   1.518  -5.642  0.00  0.00    +0.040 A 
ATOM     22  C   UNL     1       1.582   0.249  -6.175  0.00  0.00    +0.124 A 
ATOM     23  C   UNL     1       0.562  -0.681  -6.065  0.00  0.00    +0.040 A 
ATOM     24  C   UNL     1      -0.615  -0.345  -5.425  0.00  0.00    +0.026 A 
ATOM     25  F   UNL     1       2.732  -0.082  -6.801  0.00  0.00    -0.205 F 
ENDBRANCH  16  19
ENDBRANCH   1  13
BRANCH   1  26
ATOM     26  C   UNL     1      -2.896   2.685  -0.208  0.00  0.00    +0.067 C 
BRANCH  26  30
ATOM     27  C   UNL     1       0.979   0.888  -0.153  0.00  0.00    +0.000 A 
ATOM     28  C   UNL     1      -0.118   0.152  -0.559  0.00  0.00    +0.000 A 
ATOM     29  C   UNL     1      -1.371   0.735  -0.582  0.00  0.00    +0.004 A 
ATOM     30  C   UNL     1      -1.529   2.051  -0.189  0.00  0.00    -0.045 A 
ATOM     31  C   UNL     1      -0.431   2.787   0.217  0.00  0.00    +0.004 A 
ATOM     32  C   UNL     1       0.823   2.206   0.235  0.00  0.00    +0.000 A 
ENDBRANCH  26  30
ENDBRANCH   1  26
TORSDOF 5
