REMARK  Name = ZINC06021993
REMARK  12 active torsions:
REMARK  status: ('A' for Active; 'I' for Inactive)
REMARK    1  A    between atoms: C_6  and  C_9
REMARK    2  A    between atoms: C_9  and  C_10
REMARK    3  A    between atoms: C_10  and  C_11
REMARK    4  A    between atoms: C_11  and  C_12
REMARK    5  A    between atoms: C_12  and  C_13
REMARK    6  A    between atoms: N_15  and  C_16
REMARK    7  A    between atoms: C_16  and  C_17
REMARK    8  A    between atoms: C_17  and  N_18
REMARK    9  A    between atoms: C_19  and  C_21
REMARK   10  A    between atoms: C_21  and  C_23
REMARK   11  A    between atoms: C_21  and  N_52
REMARK   12  A    between atoms: C_23  and  S_24
REMARK                            x       y       z     vdW  Elec       q    Type
REMARK                         _______ _______ _______ _____ _____    ______ ____
ROOT
ATOM      1  C   UNL     1       0.739  -2.004  -1.265  0.00  0.00    +0.213 C 
ATOM      2  O   UNL     1       0.231  -2.623  -0.354  0.00  0.00    -0.276 OA
ATOM      3  N   UNL     1       1.322  -2.665  -2.285  0.00  0.00    -0.314 N 
ATOM      4  H   UNL     1       1.728  -2.170  -3.014  0.00  0.00    +0.149 HD
ENDROOT
BRANCH   1   5
ATOM      5  C   UNL     1       0.718  -0.497  -1.257  0.00  0.00    +0.096 C 
BRANCH   5   6
ATOM      6  C   UNL     1       0.002  -0.004   0.002  0.00  0.00    +0.009 C 
BRANCH   6   7
ATOM      7  C   UNL     1      -0.019   1.526   0.010  0.00  0.00    +0.002 C 
BRANCH   7   8
ATOM      8  C   UNL     1      -0.735   2.019   1.269  0.00  0.00    +0.016 C 
BRANCH   8  12
ATOM      9  C   UNL     1       0.349   5.793   2.473  0.00  0.00    +0.093 C 
ATOM     10  C   UNL     1      -0.968   5.326   3.129  0.00  0.00    +0.105 C 
ATOM     11  C   UNL     1      -1.578   4.086   2.469  0.00  0.00    +0.108 C 
ATOM     12  C   UNL     1      -0.756   3.549   1.278  0.00  0.00    +0.069 C 
ATOM     13  S   UNL     1       0.917   4.232   1.653  0.00  0.00    -0.154 S 
ATOM     14  N   UNL     1      -2.883   4.558   1.978  0.00  0.00    -0.294 N 
ATOM     15  C   UNL     1      -3.026   5.852   2.295  0.00  0.00    +0.300 C 
ATOM     16  O   UNL     1      -4.015   6.499   2.010  0.00  0.00    -0.253 OA
ATOM     17  N   UNL     1      -1.980   6.367   2.956  0.00  0.00    -0.294 N 
ATOM     18  H   UNL     1      -3.534   4.019   1.502  0.00  0.00    +0.151 HD
ATOM     19  H   UNL     1      -1.906   7.284   3.266  0.00  0.00    +0.151 HD
ENDBRANCH   8  12
ENDBRANCH   7   8
ENDBRANCH   6   7
ENDBRANCH   5   6
ENDBRANCH   1   5
BRANCH   3  20
ATOM     20  C   UNL     1       1.341  -4.130  -2.293  0.00  0.00    +0.123 C 
BRANCH  20  21
ATOM     21  C   UNL     1       2.058  -4.623  -3.552  0.00  0.00    +0.123 C 
BRANCH  21  22
ATOM     22  N   UNL     1       2.078  -6.088  -3.560  0.00  0.00    -0.315 N 
ATOM     23  C   UNL     1       2.660  -6.748  -4.580  0.00  0.00    +0.199 C 
ATOM     24  O   UNL     1       3.169  -6.130  -5.491  0.00  0.00    -0.278 OA
ATOM     25  H   UNL     1       1.671  -6.582  -2.831  0.00  0.00    +0.149 HD
BRANCH  23  26
ATOM     26  C   UNL     1       2.681  -8.255  -4.588  0.00  0.00    +0.022 C 
BRANCH  26  29
ATOM     27  H   UNL     1       3.817  -9.731  -5.465  0.00  0.00    -0.089 HD
ATOM     28  H   UNL     1       3.584  -8.399  -6.433  0.00  0.00    -0.089 HD
ATOM     29  N   UNL     1       3.760  -8.714  -5.481  0.00  0.00    +0.386 N 
ATOM     30  H   UNL     1       4.653  -8.324  -5.159  0.00  0.00    -0.089 HD
ENDBRANCH  26  29
BRANCH  26  31
ATOM     31  C   UNL     1       1.328  -8.781  -5.072  0.00  0.00    +0.058 C 
BRANCH  31  32
ATOM     32  S   UNL     1       1.301 -10.590  -4.942  0.00  0.00    -0.179 S 
ATOM     33  H   UNL     1       0.079 -10.930  -5.389  0.00  0.00    +0.102 HD
ENDBRANCH  31  32
ENDBRANCH  26  31
ENDBRANCH  23  26
ENDBRANCH  21  22
ENDBRANCH  20  21
ENDBRANCH   3  20
TORSDOF 12
