REMARK  Name = ZINC24227331
REMARK  12 active torsions:
REMARK  status: ('A' for Active; 'I' for Inactive)
REMARK    1  A    between atoms: C_1  and  C_2
REMARK    2  A    between atoms: C_2  and  C_4
REMARK    3  A    between atoms: C_2  and  S_18
REMARK    4  A    between atoms: C_4  and  C_6
REMARK    5  A    between atoms: C_6  and  C_16
REMARK    6  A    between atoms: S_18  and  C_19
REMARK    7  A    between atoms: C_22  and  C_25
REMARK    8  A    between atoms: N_23  and  C_24
REMARK    9  A    between atoms: C_28  and  C_31
REMARK   10  A    between atoms: C_31  and  C_32
REMARK   11  A    between atoms: C_31  and  C_33
REMARK   12  A    between atoms: C_31  and  C_34
REMARK                            x       y       z     vdW  Elec       q    Type
REMARK                         _______ _______ _______ _____ _____    ______ ____
ROOT
ATOM      1  C   UNL     1      -1.062   1.965  -0.579  0.00  0.00    +0.028 C 
ATOM      2  C   UNL     1      -0.332   1.648   0.728  0.00  0.00    +0.123 C 
ENDROOT
BRANCH   2   3
ATOM      3  C   UNL     1      -0.447   0.175   1.022  0.00  0.00    +0.189 C 
ATOM      4  O   UNL     1       0.439  -0.585   0.681  0.00  0.00    -0.290 OA
BRANCH   3   5
ATOM      5  C   UNL     1      -1.579  -0.322   1.691  0.00  0.00    +0.131 C 
ATOM      6  C   UNL     1      -1.686  -1.697   1.966  0.00  0.00    +0.114 C 
ATOM      7  N   UNL     1      -0.768  -2.640   1.631  0.00  0.00    -0.300 N 
ATOM      8  C   UNL     1      -1.230  -3.874   2.073  0.00  0.00    +0.054 A 
ATOM      9  C   UNL     1      -0.710  -5.160   2.007  0.00  0.00    +0.025 A 
ATOM     10  C   UNL     1      -1.418  -6.216   2.543  0.00  0.00    +0.002 A 
ATOM     11  C   UNL     1      -2.645  -5.999   3.149  0.00  0.00    +0.002 A 
ATOM     12  C   UNL     1      -3.171  -4.725   3.220  0.00  0.00    +0.025 A 
ATOM     13  C   UNL     1      -2.467  -3.656   2.684  0.00  0.00    +0.054 A 
ATOM     14  N   UNL     1      -2.727  -2.293   2.603  0.00  0.00    -0.300 N 
ATOM     15  H   UNL     1       0.150  -2.349   1.099  0.00  0.00    +0.153 HD
ATOM     16  H   UNL     1      -3.578  -1.688   2.951  0.00  0.00    +0.153 HD
BRANCH   5  17
ATOM     17  C   UNL     1      -2.623   0.572   2.092  0.00  0.00    +0.106 C 
ATOM     18  N   UNL     1      -3.451   1.282   2.411  0.00  0.00    -0.191 NA
ENDBRANCH   5  17
ENDBRANCH   3   5
ENDBRANCH   2   3
BRANCH   2  19
ATOM     19  S   UNL     1       1.414   2.097   0.568  0.00  0.00    -0.075 S 
BRANCH  19  20
ATOM     20  C   UNL     1       1.266   3.843   0.384  0.00  0.00    +0.192 A 
ATOM     21  N   UNL     1       0.147   4.534   0.373  0.00  0.00    -0.122 NA
ATOM     22  N   UNL     1       0.403   5.784   0.225  0.00  0.00    -0.128 NA
ATOM     23  C   UNL     1       1.698   5.968   0.122  0.00  0.00    +0.165 A 
ATOM     24  N   UNL     1       2.291   4.730   0.222  0.00  0.00    -0.305 N 
ATOM     25  C   UNL     1       3.723   4.427   0.164  0.00  0.00    +0.153 C 
BRANCH  23  26
ATOM     26  C   UNL     1       2.390   7.261  -0.064  0.00  0.00    +0.019 A 
ATOM     27  C   UNL     1       1.747   8.455   0.266  0.00  0.00    +0.012 A 
ATOM     28  C   UNL     1       2.400   9.658   0.094  0.00  0.00    +0.005 A 
ATOM     29  C   UNL     1       3.686   9.683  -0.415  0.00  0.00    -0.042 A 
ATOM     30  C   UNL     1       4.328   8.504  -0.750  0.00  0.00    +0.005 A 
ATOM     31  C   UNL     1       3.688   7.294  -0.578  0.00  0.00    +0.012 A 
BRANCH  29  32
ATOM     32  C   UNL     1       4.391  11.001  -0.606  0.00  0.00    -0.013 C 
ATOM     33  C   UNL     1       4.749  11.179  -2.083  0.00  0.00    +0.015 C 
ATOM     34  C   UNL     1       3.472  12.141  -0.163  0.00  0.00    +0.015 C 
ATOM     35  C   UNL     1       5.670  11.022   0.234  0.00  0.00    +0.015 C 
ENDBRANCH  29  32
ENDBRANCH  23  26
ENDBRANCH  19  20
ENDBRANCH   2  19
TORSDOF 7
