REMARK  Name = ZINC36534575
REMARK  12 active torsions:
REMARK  status: ('A' for Active; 'I' for Inactive)
REMARK    1  A    between atoms: C_1  and  C_2
REMARK    2  A    between atoms: C_2  and  C_3
REMARK    3  A    between atoms: C_2  and  C_4
REMARK    4  A    between atoms: C_2  and  N_5
REMARK    5  A    between atoms: C_6  and  C_8
REMARK    6  A    between atoms: C_8  and  C_10
REMARK    7  A    between atoms: C_8  and  N_24
REMARK    8  A    between atoms: N_24  and  C_25
REMARK    9  A    between atoms: C_26  and  C_28
REMARK   10  A    between atoms: C_28  and  C_29
REMARK   11  A    between atoms: C_28  and  C_35
REMARK   12  A    between atoms: C_28  and  O_41
REMARK                            x       y       z     vdW  Elec       q    Type
REMARK                         _______ _______ _______ _____ _____    ______ ____
ROOT
ATOM      1  C   UNL     1       2.892  -0.509  -2.649  0.00  0.00    +0.193 C 
ENDROOT
BRANCH   1   2
ATOM      2  C   UNL     1       2.430   0.319  -3.821  0.00  0.00    -0.010 A 
ATOM      3  C   UNL     1       1.787   1.482  -3.594  0.00  0.00    +0.015 A 
ATOM      4  C   UNL     1       1.334   2.294  -4.660  0.00  0.00    -0.017 A 
ATOM      5  C   UNL     1       0.666   3.502  -4.414  0.00  0.00    +0.008 A 
ATOM      6  C   UNL     1       0.241   4.266  -5.461  0.00  0.00    +0.001 A 
ATOM      7  C   UNL     1       0.460   3.864  -6.774  0.00  0.00    +0.001 A 
ATOM      8  C   UNL     1       1.107   2.692  -7.046  0.00  0.00    +0.009 A 
ATOM      9  C   UNL     1       1.555   1.889  -5.996  0.00  0.00    -0.010 A 
ATOM     10  C   UNL     1       2.254   0.625  -6.242  0.00  0.00    -0.010 A 
ATOM     11  C   UNL     1       2.687  -0.139  -5.134  0.00  0.00    -0.012 A 
ATOM     12  C   UNL     1       3.361  -1.347  -5.359  0.00  0.00    +0.009 A 
ATOM     13  C   UNL     1       3.595  -1.765  -6.636  0.00  0.00    +0.001 A 
ATOM     14  C   UNL     1       3.173  -1.008  -7.723  0.00  0.00    +0.001 A 
ATOM     15  C   UNL     1       2.502   0.168  -7.537  0.00  0.00    +0.009 A 
ENDBRANCH   1   2
BRANCH   1  17
ATOM     16  N   UNL     1       0.845  -0.284  -1.277  0.00  0.00    -0.309 N 
ATOM     17  C   UNL     1       2.169  -0.063  -1.404  0.00  0.00    +0.238 C 
ATOM     18  O   UNL     1       2.778   0.494  -0.515  0.00  0.00    -0.273 OA
ATOM     19  H   UNL     1       0.344  -0.664  -2.016  0.00  0.00    +0.149 HD
BRANCH  16  21
ATOM     20  C   UNL     1       0.317   1.545   0.257  0.00  0.00    +0.031 C 
ATOM     21  C   UNL     1       0.163   0.049  -0.024  0.00  0.00    +0.026 C 
ATOM     22  C   UNL     1       0.783  -0.752   1.122  0.00  0.00    +0.031 C 
ATOM     23  C   UNL     1      -1.322  -0.297  -0.144  0.00  0.00    +0.031 C 
ENDBRANCH  16  21
ENDBRANCH   1  17
BRANCH   1  24
ATOM     24  N   UNL     1       4.335  -0.333  -2.465  0.00  0.00    -0.286 N 
ATOM     25  C   UNL     1       4.896   1.012  -2.320  0.00  0.00    +0.133 C 
ATOM     26  C   UNL     1       5.145  -1.409  -2.429  0.00  0.00    +0.257 C 
ATOM     27  O   UNL     1       4.695  -2.515  -2.641  0.00  0.00    -0.272 OA
BRANCH  26  28
ATOM     28  C   UNL     1       6.611  -1.238  -2.126  0.00  0.00    +0.192 C 
BRANCH  28  29
ATOM     29  C   UNL     1       6.799  -1.046  -0.643  0.00  0.00    -0.003 A 
ATOM     30  C   UNL     1       6.006  -1.742   0.250  0.00  0.00    +0.007 A 
ATOM     31  C   UNL     1       6.178  -1.565   1.610  0.00  0.00    +0.000 A 
ATOM     32  C   UNL     1       7.143  -0.693   2.077  0.00  0.00    +0.000 A 
ATOM     33  C   UNL     1       7.936   0.003   1.184  0.00  0.00    +0.000 A 
ATOM     34  C   UNL     1       7.768  -0.177  -0.176  0.00  0.00    +0.007 A 
ENDBRANCH  28  29
BRANCH  28  35
ATOM     35  C   UNL     1       7.363  -2.466  -2.572  0.00  0.00    -0.003 A 
ATOM     36  C   UNL     1       8.403  -2.349  -3.475  0.00  0.00    +0.007 A 
ATOM     37  C   UNL     1       9.092  -3.476  -3.885  0.00  0.00    +0.000 A 
ATOM     38  C   UNL     1       8.742  -4.718  -3.390  0.00  0.00    +0.000 A 
ATOM     39  C   UNL     1       7.703  -4.834  -2.486  0.00  0.00    +0.000 A 
ATOM     40  C   UNL     1       7.016  -3.708  -2.074  0.00  0.00    +0.007 A 
ENDBRANCH  28  35
BRANCH  28  41
ATOM     41  O   UNL     1       7.111  -0.095  -2.822  0.00  0.00    -0.371 OA
ATOM     42  H   UNL     1       7.023  -0.150  -3.784  0.00  0.00    +0.212 HD
ENDBRANCH  28  41
ENDBRANCH  26  28
ENDBRANCH   1  24
TORSDOF 8
