REMARK  Name = ZINC09125920
REMARK  12 active torsions:
REMARK  status: ('A' for Active; 'I' for Inactive)
REMARK    1  A    between atoms: C_1  and  C_2
REMARK    2  A    between atoms: C_2  and  C_3
REMARK    3  A    between atoms: C_3  and  C_4
REMARK    4  A    between atoms: C_4  and  N_5
REMARK    5  A    between atoms: C_6  and  N_38
REMARK    6  A    between atoms: C_7  and  N_14
REMARK    7  A    between atoms: N_14  and  C_15
REMARK    8  A    between atoms: C_15  and  C_16
REMARK    9  A    between atoms: C_21  and  O_22
REMARK   10  A    between atoms: O_22  and  C_23
REMARK   11  A    between atoms: C_24  and  C_26
REMARK   12  A    between atoms: C_27  and  C_28
REMARK                            x       y       z     vdW  Elec       q    Type
REMARK                         _______ _______ _______ _____ _____    ______ ____
ROOT
ATOM      1  N   UNL     1      -1.603  10.113   0.057  0.00  0.00    -0.256 N 
ATOM      2  C   UNL     1      -0.347   9.682  -0.174  0.00  0.00    +0.244 C 
ATOM      3  O   UNL     1       0.545  10.486  -0.374  0.00  0.00    -0.270 OA
ENDROOT
BRANCH   1   6
ATOM      4  N   UNL     1      -1.584  13.578   1.275  0.00  0.00    -0.280 N 
ATOM      5  C   UNL     1      -1.313  12.232   1.195  0.00  0.00    +0.127 A 
ATOM      6  C   UNL     1      -1.865  11.493   0.169  0.00  0.00    +0.140 A 
ATOM      7  C   UNL     1      -2.701  12.140  -0.761  0.00  0.00    +0.277 A 
ATOM      8  O   UNL     1      -3.206  11.511  -1.676  0.00  0.00    -0.266 OA
ATOM      9  N   UNL     1      -2.938  13.461  -0.635  0.00  0.00    -0.273 N 
ATOM     10  H   UNL     1      -3.531  13.922  -1.295  0.00  0.00    +0.173 HD
ATOM     11  C   UNL     1      -2.387  14.165   0.369  0.00  0.00    +0.331 A 
ATOM     12  O   UNL     1      -2.619  15.356   0.460  0.00  0.00    -0.246 OA
BRANCH   5  13
ATOM     13  N   UNL     1      -0.497  11.631   2.124  0.00  0.00    -0.343 N 
ATOM     14  H   UNL     1      -0.377  10.668   2.113  0.00  0.00    +0.144 HD
ATOM     15  H   UNL     1      -0.042  12.169   2.790  0.00  0.00    +0.144 HD
ENDBRANCH   5  13
BRANCH   4  16
ATOM     16  C   UNL     1      -1.000  14.376   2.356  0.00  0.00    +0.128 C 
BRANCH  16  17
ATOM     17  C   UNL     1      -1.941  14.368   3.562  0.00  0.00    +0.021 C 
BRANCH  17  19
ATOM     18  C   UNL     1      -2.273  15.193   5.897  0.00  0.00    +0.004 C 
ATOM     19  C   UNL     1      -1.331  15.201   4.691  0.00  0.00    -0.002 C 
ENDBRANCH  17  19
ENDBRANCH  16  17
ENDBRANCH   4  16
ENDBRANCH   1   6
BRANCH   2  20
ATOM     20  C   UNL     1      -0.054   8.244  -0.185  0.00  0.00    +0.070 C 
ATOM     21  C   UNL     1       1.200   7.814  -0.416  0.00  0.00    +0.033 C 
BRANCH  21  22
ATOM     22  C   UNL     1       1.494   6.370  -0.426  0.00  0.00    +0.065 A 
ATOM     23  C   UNL     1       2.810   5.938  -0.669  0.00  0.00    +0.028 A 
ATOM     24  C   UNL     1       3.094   4.604  -0.682  0.00  0.00    +0.012 A 
ATOM     25  C   UNL     1       2.043   3.696  -0.448  0.00  0.00    +0.000 A 
ATOM     26  C   UNL     1       2.266   2.310  -0.447  0.00  0.00    +0.010 A 
ATOM     27  C   UNL     1       1.227   1.460  -0.216  0.00  0.00    +0.001 A 
ATOM     28  C   UNL     1      -0.059   1.947   0.013  0.00  0.00    +0.002 A 
ATOM     29  C   UNL     1      -0.311   3.284   0.024  0.00  0.00    +0.028 A 
ATOM     30  C   UNL     1       0.736   4.195  -0.209  0.00  0.00    +0.072 A 
ATOM     31  N   UNL     1       0.515   5.510  -0.208  0.00  0.00    -0.247 NA
ENDBRANCH  21  22
ENDBRANCH   2  20
BRANCH   1  32
ATOM     32  C   UNL     1      -2.695   9.146   0.192  0.00  0.00    +0.153 C 
BRANCH  32  33
ATOM     33  C   UNL     1      -2.905   8.825   1.650  0.00  0.00    +0.012 A 
ATOM     34  C   UNL     1      -2.379   7.665   2.186  0.00  0.00    +0.009 A 
ATOM     35  C   UNL     1      -2.567   7.373   3.524  0.00  0.00    +0.001 A 
ATOM     36  C   UNL     1      -3.290   8.236   4.327  0.00  0.00    +0.004 A 
ATOM     37  C   UNL     1      -3.823   9.394   3.795  0.00  0.00    +0.046 A 
ATOM     38  C   UNL     1      -3.631   9.692   2.454  0.00  0.00    +0.125 A 
BRANCH  38  39
ATOM     39  O   UNL     1      -4.154  10.831   1.928  0.00  0.00    -0.495 OA
ATOM     40  C   UNL     1      -4.891  11.676   2.814  0.00  0.00    +0.277 C 
ENDBRANCH  38  39
ENDBRANCH  32  33
ENDBRANCH   1  32
TORSDOF 10
