REMARK  Name = ZINC31809041
REMARK  5 active torsions:
REMARK  status: ('A' for Active; 'I' for Inactive)
REMARK    1  A    between atoms: C_1  and  C_2
REMARK    2  A    between atoms: N_21  and  C_22
REMARK    3  A    between atoms: C_22  and  C_23
REMARK    4  A    between atoms: C_23  and  C_24
REMARK    5  A    between atoms: C_23  and  C_25
REMARK                            x       y       z     vdW  Elec       q    Type
REMARK                         _______ _______ _______ _____ _____    ______ ____
ROOT
ATOM      1  C   UNL     1      -0.018   1.503   0.010  0.00  0.00    +0.044 C 
ATOM      2  C   UNL     1       0.002  -0.004   0.002  0.00  0.00    -0.050 A 
ATOM      3  C   UNL     1       0.005  -0.673  -1.205  0.00  0.00    +0.005 A 
ATOM      4  C   UNL     1       0.025  -2.057  -1.277  0.00  0.00    +0.024 A 
ATOM      5  C   UNL     1       0.040  -2.759  -0.071  0.00  0.00    +0.041 A 
ATOM      6  C   UNL     1       0.036  -2.069   1.148  0.00  0.00    -0.006 A 
ATOM      7  C   UNL     1       0.023  -0.692   1.211  0.00  0.00    +0.010 A 
ATOM      8  C   UNL     1       0.058  -3.112   2.219  0.00  0.00    +0.112 C 
ATOM      9  C   UNL     1       1.308  -2.987   3.087  0.00  0.00    +0.122 C 
ATOM     10  C   UNL     1       1.149  -1.907   4.121  0.00  0.00    +0.220 C 
ATOM     11  O   UNL     1       2.106  -1.218   4.402  0.00  0.00    -0.275 OA
ATOM     12  N   UNL     1      -0.026  -1.681   4.746  0.00  0.00    -0.270 N 
ATOM     13  C   UNL     1      -1.164  -2.339   4.279  0.00  0.00    +0.125 A 
ATOM     14  C   UNL     1      -1.163  -3.026   3.091  0.00  0.00    +0.032 A 
ATOM     15  C   UNL     1      -2.429  -3.565   2.911  0.00  0.00    +0.141 A 
ATOM     16  N   UNL     1      -3.172  -3.215   3.935  0.00  0.00    -0.180 NA
ATOM     17  N   UNL     1      -2.393  -2.433   4.804  0.00  0.00    -0.264 N 
ATOM     18  H   UNL     1      -2.692  -2.033   5.635  0.00  0.00    +0.190 HD
ATOM     19  C   UNL     1       0.071  -4.424   1.467  0.00  0.00    +0.235 C 
ATOM     20  O   UNL     1       0.090  -5.535   1.954  0.00  0.00    -0.274 OA
ATOM     21  N   UNL     1       0.060  -4.125   0.150  0.00  0.00    -0.270 N 
ATOM     22  H   UNL     1      -0.077  -1.075   5.502  0.00  0.00    +0.156 HD
ENDROOT
BRANCH  21  23
ATOM     23  C   UNL     1       0.067  -5.128  -0.917  0.00  0.00    +0.116 C 
BRANCH  23  24
ATOM     24  C   UNL     1       1.512  -5.457  -1.298  0.00  0.00    +0.001 C 
ATOM     25  C   UNL     1       1.523  -6.593  -2.324  0.00  0.00    +0.009 C 
ATOM     26  C   UNL     1       2.176  -4.218  -1.901  0.00  0.00    +0.009 C 
ENDBRANCH  23  24
ENDBRANCH  21  23
TORSDOF 2
