REMARK  Name = ZINC12483024
REMARK  7 active torsions:
REMARK  status: ('A' for Active; 'I' for Inactive)
REMARK    1  A    between atoms: C_1  and  C_2
REMARK    2  A    between atoms: C_7  and  O_8
REMARK    3  A    between atoms: O_8  and  C_9
REMARK    4  A    between atoms: C_9  and  C_10
REMARK    5  A    between atoms: N_12  and  N_13
REMARK    6  A    between atoms: C_14  and  C_15
REMARK    7  A    between atoms: C_20  and  O_21
REMARK                            x       y       z     vdW  Elec       q    Type
REMARK                         _______ _______ _______ _____ _____    ______ ____
ROOT
ATOM      1  C   UNL     1      -0.121   8.161  -1.030  0.00  0.00    +0.270 C 
ATOM      2  O   UNL     1      -0.117   8.619   0.094  0.00  0.00    -0.270 OA
ATOM      3  N   UNL     1      -0.142   8.988  -2.094  0.00  0.00    -0.204 N 
ATOM      4  H   UNL     1      -0.145   8.622  -2.992  0.00  0.00    +0.177 HD
ENDROOT
BRANCH   3   5
ATOM      5  N   UNL     1      -0.160  10.376  -1.903  0.00  0.00    -0.188 NA
ATOM      6  C   UNL     1      -0.181  11.172  -2.928  0.00  0.00    +0.142 C 
BRANCH   6   7
ATOM      7  C   UNL     1      -0.199  12.632  -2.727  0.00  0.00    +0.039 A 
ATOM      8  C   UNL     1      -0.222  13.492  -3.827  0.00  0.00    +0.033 A 
ATOM      9  C   UNL     1      -0.239  14.858  -3.632  0.00  0.00    +0.043 A 
ATOM     10  C   UNL     1      -0.236  15.380  -2.349  0.00  0.00    +0.043 A 
ATOM     11  C   UNL     1      -0.214  14.539  -1.252  0.00  0.00    +0.084 A 
ATOM     12  C   UNL     1      -0.201  13.164  -1.431  0.00  0.00    +0.144 A 
ATOM     13 CL   UNL     1      -0.210  15.204   0.351  0.00  0.00    -0.080 Cl
ATOM     14 CL   UNL     1      -0.266  15.926  -5.001  0.00  0.00    -0.083 Cl
BRANCH  12  15
ATOM     15  O   UNL     1      -0.185  12.336  -0.353  0.00  0.00    -0.505 OA
ATOM     16  H   UNL     1       0.703  12.109  -0.045  0.00  0.00    +0.292 HD
ENDBRANCH  12  15
ENDBRANCH   6   7
ENDBRANCH   3   5
BRANCH   1  17
ATOM     17  C   UNL     1      -0.102   6.668  -1.235  0.00  0.00    +0.326 C 
BRANCH  17  18
ATOM     18  O   UNL     1      -0.081   6.013   0.034  0.00  0.00    -0.481 OA
BRANCH  18  25
ATOM     19  C   UNL     1      -2.569   4.676   0.051  0.00  0.00    +0.047 C 
ATOM     20  C   UNL     1      -1.253   3.943   0.034  0.00  0.00    -0.007 A 
ATOM     21  C   UNL     1      -1.231   2.561   0.022  0.00  0.00    +0.022 A 
ATOM     22  C   UNL     1      -0.024   1.887   0.012  0.00  0.00    +0.019 A 
ATOM     23  C   UNL     1       1.166   2.594   0.005  0.00  0.00    +0.034 A 
ATOM     24  C   UNL     1       1.149   3.976   0.012  0.00  0.00    +0.061 A 
ATOM     25  C   UNL     1      -0.062   4.654   0.027  0.00  0.00    +0.138 A 
ATOM     26 BR   UNL     1       2.775   4.942   0.001  0.00  0.00    -0.046 Br
ATOM     27 BR   UNL     1       0.002  -0.004   0.002  0.00  0.00    -0.050 Br
ENDBRANCH  18  25
ENDBRANCH  17  18
ENDBRANCH   1  17
TORSDOF 6
