REMARK  Name = ZINC05305753
REMARK  5 active torsions:
REMARK  status: ('A' for Active; 'I' for Inactive)
REMARK    1  A    between atoms: C_1  and  C_2
REMARK    2  A    between atoms: C_2  and  C_4
REMARK    3  A    between atoms: C_2  and  O_16
REMARK    4  A    between atoms: O_16  and  C_17
REMARK    5  A    between atoms: C_17  and  C_19
REMARK                            x       y       z     vdW  Elec       q    Type
REMARK                         _______ _______ _______ _____ _____    ______ ____
ROOT
ATOM      1  O   UNL     1      -4.768   0.605   0.033  0.00  0.00    -0.450 OA
ENDROOT
BRANCH   1   3
ATOM      2  C   UNL     1      -6.574  -0.091   1.480  0.00  0.00    +0.060 C 
ATOM      3  C   UNL     1      -6.105   0.101   0.037  0.00  0.00    +0.239 C 
BRANCH   3   4
ATOM      4  C   UNL     1      -7.014   1.080  -0.661  0.00  0.00    +0.151 A 
ATOM      5  N   UNL     1      -6.959   1.157  -2.016  0.00  0.00    -0.307 N 
ATOM      6  H   UNL     1      -6.322   0.574  -2.520  0.00  0.00    +0.170 HD
ATOM      7  C   UNL     1      -7.758   2.017  -2.691  0.00  0.00    +0.259 A 
ATOM      8  O   UNL     1      -7.723   2.093  -3.905  0.00  0.00    -0.267 OA
ATOM      9  C   UNL     1      -8.666   2.859  -1.898  0.00  0.00    +0.065 A 
ATOM     10  C   UNL     1      -9.525   3.780  -2.495  0.00  0.00    +0.015 A 
ATOM     11  C   UNL     1     -10.355   4.545  -1.704  0.00  0.00    +0.001 A 
ATOM     12  C   UNL     1     -10.342   4.404  -0.323  0.00  0.00    +0.002 A 
ATOM     13  C   UNL     1      -9.501   3.500   0.286  0.00  0.00    +0.028 A 
ATOM     14  C   UNL     1      -8.650   2.713  -0.494  0.00  0.00    +0.078 A 
ATOM     15  N   UNL     1      -7.805   1.811   0.064  0.00  0.00    -0.230 NA
ENDBRANCH   3   4
ENDBRANCH   1   3
BRANCH   1  16
ATOM     16  C   UNL     1      -3.771  -0.304   0.020  0.00  0.00    +0.347 C 
ATOM     17  O   UNL     1      -4.031  -1.492   0.013  0.00  0.00    -0.244 OA
BRANCH  16  18
ATOM     18  C   UNL     1      -2.378   0.140   0.016  0.00  0.00    +0.097 A 
ATOM     19  C   UNL     1      -1.218  -0.625   0.003  0.00  0.00    +0.030 A 
ATOM     20  C   UNL     1       0.002  -0.004   0.002  0.00  0.00    +0.005 A 
ATOM     21  C   UNL     1      -0.017   1.399   0.010  0.00  0.00    +0.030 A 
ATOM     22  S   UNL     1      -1.730   1.808   0.021  0.00  0.00    -0.081 S 
ATOM     23  C   UNL     1       1.204   2.195   0.002  0.00  0.00    +0.031 A 
ATOM     24  C   UNL     1       1.250   3.551   0.287  0.00  0.00    +0.012 A 
ATOM     25  C   UNL     1       2.463   4.213   0.270  0.00  0.00    +0.001 A 
ATOM     26  C   UNL     1       3.626   3.523  -0.028  0.00  0.00    +0.004 A 
ATOM     27  C   UNL     1       3.591   2.173  -0.320  0.00  0.00    +0.046 A 
ATOM     28  C   UNL     1       2.386   1.492  -0.318  0.00  0.00    +0.129 A 
ATOM     29  O   UNL     1       2.321   0.175  -0.620  0.00  0.00    -0.487 OA
ATOM     30  C   UNL     1       1.366  -0.685  -0.003  0.00  0.00    +0.265 C 
ENDBRANCH  16  18
ENDBRANCH   1  16
TORSDOF 4
