REMARK  Name = ZINC09325930
REMARK  10 active torsions:
REMARK  status: ('A' for Active; 'I' for Inactive)
REMARK    1  A    between atoms: C_1  and  C_2
REMARK    2  A    between atoms: C_2  and  C_3
REMARK    3  A    between atoms: N_9  and  S_10
REMARK    4  A    between atoms: S_10  and  C_13
REMARK    5  A    between atoms: C_16  and  C_19
REMARK    6  A    between atoms: C_19  and  N_21
REMARK    7  A    between atoms: N_23  and  C_34
REMARK    8  A    between atoms: C_25  and  O_32
REMARK    9  A    between atoms: O_32  and  C_33
REMARK   10  A    between atoms: C_34  and  C_35
REMARK                            x       y       z     vdW  Elec       q    Type
REMARK                         _______ _______ _______ _____ _____    ______ ____
ROOT
ATOM      1  C   UNL     1       2.654  -0.108  -3.951  0.00  0.00    +0.106 A 
ATOM      2  C   UNL     1       2.095  -1.243  -4.511  0.00  0.00    +0.029 A 
ATOM      3  C   UNL     1       2.291  -1.524  -5.847  0.00  0.00    +0.015 A 
ATOM      4  C   UNL     1       3.064  -0.668  -6.631  0.00  0.00    +0.039 A 
ATOM      5  C   UNL     1       3.629   0.472  -6.060  0.00  0.00    +0.015 A 
ATOM      6  C   UNL     1       3.421   0.746  -4.723  0.00  0.00    +0.029 A 
ENDROOT
BRANCH   1   7
ATOM      7  S   UNL     1       2.393   0.249  -2.245  0.00  0.00    +0.061 S 
ATOM      8  O   UNL     1       3.377   1.205  -1.875  0.00  0.00    -0.153 OA
ATOM      9  O   UNL     1       2.260  -1.002  -1.584  0.00  0.00    -0.153 OA
BRANCH   7  15
ATOM     10  C   UNL     1       0.797   2.440  -2.422  0.00  0.00    +0.080 C 
ATOM     11  C   UNL     1       0.138   3.136  -1.227  0.00  0.00    +0.021 C 
ATOM     12  C   UNL     1      -1.186   2.440  -0.902  0.00  0.00    +0.003 C 
ATOM     13  C   UNL     1      -0.917   0.982  -0.523  0.00  0.00    +0.017 C 
ATOM     14  C   UNL     1      -0.271   0.261  -1.710  0.00  0.00    +0.110 C 
ATOM     15  N   UNL     1       0.926   1.007  -2.122  0.00  0.00    -0.174 NA
BRANCH  10  17
ATOM     16  C   UNL     1       2.034   4.478  -3.167  0.00  0.00    +0.005 C 
ATOM     17  C   UNL     1       2.182   3.039  -2.669  0.00  0.00    +0.017 C 
ENDBRANCH  10  17
ENDBRANCH   7  15
ENDBRANCH   1   7
BRANCH   4  18
ATOM     18  C   UNL     1       3.284  -0.968  -8.065  0.00  0.00    +0.269 C 
ATOM     19  O   UNL     1       3.960  -0.218  -8.748  0.00  0.00    -0.268 OA
BRANCH  18  20
ATOM     20  N   UNL     1       2.740  -2.061  -8.610  0.00  0.00    -0.152 NA
ATOM     21  C   UNL     1       2.938  -2.330  -9.896  0.00  0.00    +0.167 A 
ATOM     22  N   UNL     1       2.471  -3.383 -10.619  0.00  0.00    -0.318 N 
ATOM     23  C   UNL     1       2.785  -3.495 -11.962  0.00  0.00    +0.101 A 
ATOM     24  C   UNL     1       2.400  -4.503 -12.868  0.00  0.00    +0.145 A 
ATOM     25  C   UNL     1       2.806  -4.458 -14.185  0.00  0.00    +0.049 A 
ATOM     26  C   UNL     1       3.602  -3.426 -14.655  0.00  0.00    +0.025 A 
ATOM     27  C   UNL     1       3.994  -2.424 -13.784  0.00  0.00    +0.057 A 
ATOM     28  C   UNL     1       3.589  -2.467 -12.469  0.00  0.00    +0.061 A 
ATOM     29  S   UNL     1       3.846  -1.419 -11.059  0.00  0.00    -0.050 S 
ATOM     30 CL   UNL     1       4.990  -1.119 -14.348  0.00  0.00    -0.082 Cl
BRANCH  24  31
ATOM     31  O   UNL     1       1.619  -5.530 -12.440  0.00  0.00    -0.493 OA
ATOM     32  C   UNL     1       1.262  -6.521 -13.406  0.00  0.00    +0.277 C 
ENDBRANCH  24  31
BRANCH  22  33
ATOM     33  C   UNL     1       1.636  -4.400  -9.975  0.00  0.00    +0.121 C 
ATOM     34  C   UNL     1       2.112  -4.615  -8.537  0.00  0.00    +0.027 C 
ENDBRANCH  22  33
ENDBRANCH  18  20
ENDBRANCH   4  18
TORSDOF 7
