REMARK  Name = ZINC01913327
REMARK  15 active torsions:
REMARK  status: ('A' for Active; 'I' for Inactive)
REMARK    1  A    between atoms: C_1  and  C_2
REMARK    2  A    between atoms: C_2  and  C_3
REMARK    3  A    between atoms: C_3  and  N_64
REMARK    4  A    between atoms: C_4  and  C_5
REMARK    5  A    between atoms: C_4  and  N_64
REMARK    6  A    between atoms: C_5  and  C_6
REMARK    7  A    between atoms: C_7  and  C_8
REMARK    8  A    between atoms: C_7  and  N_64
REMARK    9  A    between atoms: C_9  and  O_33
REMARK   10  A    between atoms: C_15  and  C_29
REMARK   11  A    between atoms: C_16  and  O_19
REMARK   12  A    between atoms: O_19  and  C_20
REMARK   13  A    between atoms: C_25  and  C_26
REMARK   14  A    between atoms: C_26  and  C_27
REMARK   15  A    between atoms: C_26  and  C_28
REMARK                            x       y       z     vdW  Elec       q    Type
REMARK                         _______ _______ _______ _____ _____    ______ ____
ROOT
ATOM      1  C   UNL     1      -0.242   1.223  -0.289  0.00  0.00    +0.020 A 
ATOM      2  C   UNL     1       0.855   2.061  -0.184  0.00  0.00    +0.122 A 
ATOM      3  C   UNL     1       0.726   3.430  -0.409  0.00  0.00    +0.046 A 
ATOM      4  C   UNL     1      -0.487   3.965  -0.735  0.00  0.00    +0.019 A 
ATOM      5  C   UNL     1      -1.603   3.134  -0.845  0.00  0.00    +0.068 A 
ATOM      6  C   UNL     1      -1.481   1.750  -0.625  0.00  0.00    +0.144 A 
ATOM      7  O   UNL     1      -2.567   0.958  -0.728  0.00  0.00    -0.447 OA
ATOM      8  C   UNL     1      -3.777   1.436  -1.046  0.00  0.00    +0.254 A 
ATOM      9  C   UNL     1      -4.006   2.743  -1.282  0.00  0.00    +0.222 A 
ATOM     10  C   UNL     1      -2.929   3.671  -1.195  0.00  0.00    +0.235 A 
ATOM     11  O   UNL     1      -3.098   4.861  -1.401  0.00  0.00    -0.283 OA
ENDROOT
BRANCH   8  12
ATOM     12  C   UNL     1      -4.931   0.472  -1.144  0.00  0.00    +0.454 C 
ATOM     13  F   UNL     1      -5.026  -0.011  -2.454  0.00  0.00    -0.163 F 
ATOM     14  F   UNL     1      -4.722  -0.597  -0.267  0.00  0.00    -0.163 F 
ATOM     15  F   UNL     1      -6.118   1.130  -0.803  0.00  0.00    -0.163 F 
ENDBRANCH   8  12
BRANCH   2  16
ATOM     16  O   UNL     1       2.068   1.544   0.139  0.00  0.00    -0.506 OA
ATOM     17  H   UNL     1       2.595   1.270  -0.624  0.00  0.00    +0.292 HD
ENDBRANCH   2  16
BRANCH   1  18
ATOM     18  C   UNL     1      -0.091  -0.256  -0.043  0.00  0.00    -0.036 C 
BRANCH  18  19
ATOM     19  N   UNL     1       0.159  -0.474   1.397  0.00  0.00    +0.383 N 
ATOM     20  H   UNL     1       0.797   0.254   1.739  0.00  0.00    -0.081 HD
BRANCH  19  21
ATOM     21  C   UNL     1      -1.112  -0.389   2.148  0.00  0.00    -0.079 C 
BRANCH  21  23
ATOM     22  C   UNL     1      -2.673   1.196   3.286  0.00  0.00    +0.002 C 
ATOM     23  C   UNL     1      -1.448   1.086   2.375  0.00  0.00    -0.022 C 
ENDBRANCH  21  23
ENDBRANCH  19  21
BRANCH  19  24
ATOM     24  C   UNL     1       0.782  -1.797   1.608  0.00  0.00    -0.079 C 
BRANCH  24  25
ATOM     25  C   UNL     1       1.359  -1.849   3.024  0.00  0.00    -0.022 C 
ATOM     26  C   UNL     1       2.138  -3.153   3.210  0.00  0.00    +0.002 C 
ENDBRANCH  24  25
ENDBRANCH  19  24
ENDBRANCH  18  19
ENDBRANCH   1  18
BRANCH   9  27
ATOM     27  O   UNL     1      -5.257   3.173  -1.601  0.00  0.00    -0.448 OA
BRANCH  27  28
ATOM     28  C   UNL     1      -5.605   3.207  -2.914  0.00  0.00    +0.132 A 
ATOM     29  C   UNL     1      -4.693   2.816  -3.885  0.00  0.00    +0.046 A 
ATOM     30  C   UNL     1      -5.051   2.847  -5.218  0.00  0.00    +0.004 A 
ATOM     31  C   UNL     1      -6.312   3.278  -5.588  0.00  0.00    +0.001 A 
ATOM     32  C   UNL     1      -7.220   3.672  -4.623  0.00  0.00    +0.007 A 
ATOM     33  C   UNL     1      -6.870   3.639  -3.287  0.00  0.00    -0.003 A 
BRANCH  33  34
ATOM     34  C   UNL     1      -7.860   4.069  -2.236  0.00  0.00    +0.016 C 
ATOM     35  C   UNL     1      -8.257   5.527  -2.476  0.00  0.00    +0.012 C 
ATOM     36  C   UNL     1      -9.104   3.182  -2.314  0.00  0.00    +0.012 C 
ENDBRANCH  33  34
ENDBRANCH  27  28
ENDBRANCH   9  27
TORSDOF 11
