REMARK  Name = ZINC12530931
REMARK  15 active torsions:
REMARK  status: ('A' for Active; 'I' for Inactive)
REMARK    1  A    between atoms: C_1  and  N_70
REMARK    2  A    between atoms: C_2  and  N_70
REMARK    3  A    between atoms: C_3  and  C_5
REMARK    4  A    between atoms: C_3  and  C_32
REMARK    5  A    between atoms: C_3  and  N_70
REMARK    6  A    between atoms: C_5  and  N_6
REMARK    7  A    between atoms: C_7  and  C_9
REMARK    8  A    between atoms: C_9  and  S_10
REMARK    9  A    between atoms: S_10  and  C_11
REMARK   10  A    between atoms: C_14  and  C_24
REMARK   11  A    between atoms: N_15  and  C_16
REMARK   12  A    between atoms: C_16  and  C_17
REMARK   13  A    between atoms: C_17  and  C_18
REMARK   14  A    between atoms: C_29  and  O_30
REMARK   15  A    between atoms: O_30  and  C_31
REMARK                            x       y       z     vdW  Elec       q    Type
REMARK                         _______ _______ _______ _____ _____    ______ ____
ROOT
ATOM      1  C   UNL     1       1.465  -4.495   1.289  0.00  0.00    +0.192 A 
ATOM      2  N   UNL     1       2.772  -4.453   1.153  0.00  0.00    -0.122 NA
ATOM      3  N   UNL     1       3.176  -3.234   1.149  0.00  0.00    -0.128 NA
ATOM      4  C   UNL     1       2.154  -2.421   1.282  0.00  0.00    +0.168 A 
ATOM      5  N   UNL     1       1.027  -3.204   1.382  0.00  0.00    -0.302 N 
ENDROOT
BRANCH   4   6
ATOM      6  C   UNL     1       2.204  -0.945   1.325  0.00  0.00    +0.061 A 
ATOM      7  C   UNL     1       1.514  -0.248   2.317  0.00  0.00    +0.015 A 
ATOM      8  C   UNL     1       1.565   1.130   2.351  0.00  0.00    +0.001 A 
ATOM      9  C   UNL     1       2.297   1.825   1.404  0.00  0.00    +0.004 A 
ATOM     10  C   UNL     1       2.984   1.145   0.416  0.00  0.00    +0.046 A 
ATOM     11  C   UNL     1       2.943  -0.239   0.368  0.00  0.00    +0.131 A 
BRANCH  11  12
ATOM     12  O   UNL     1       3.619  -0.908  -0.602  0.00  0.00    -0.494 OA
ATOM     13  C   UNL     1       4.351  -0.120  -1.543  0.00  0.00    +0.277 C 
ENDBRANCH  11  12
ENDBRANCH   4   6
BRANCH   1  14
ATOM     14  S   UNL     1       0.467  -5.946   1.349  0.00  0.00    -0.077 S 
BRANCH  14  15
ATOM     15  C   UNL     1       1.745  -7.215   1.173  0.00  0.00    +0.173 C 
BRANCH  15  17
ATOM     16  N   UNL     1       1.868  -9.684   1.081  0.00  0.00    -0.316 N 
ATOM     17  C   UNL     1       1.105  -8.579   1.197  0.00  0.00    +0.223 C 
ATOM     18  O   UNL     1      -0.097  -8.683   1.321  0.00  0.00    -0.275 OA
ATOM     19  H   UNL     1       2.830  -9.601   0.983  0.00  0.00    +0.149 HD
BRANCH  16  20
ATOM     20  C   UNL     1       1.246 -11.010   1.105  0.00  0.00    +0.093 C 
BRANCH  20  21
ATOM     21  C   UNL     1       2.320 -12.081   0.905  0.00  0.00    -0.021 C 
BRANCH  21  22
ATOM     22  C   UNL     1       2.908 -11.951  -0.476  0.00  0.00    -0.059 A 
ATOM     23  C   UNL     1       2.238 -12.476  -1.565  0.00  0.00    +0.002 A 
ATOM     24  C   UNL     1       2.775 -12.353  -2.833  0.00  0.00    +0.000 A 
ATOM     25  C   UNL     1       3.987 -11.713  -3.011  0.00  0.00    +0.000 A 
ATOM     26  C   UNL     1       4.660 -11.191  -1.921  0.00  0.00    +0.000 A 
ATOM     27  C   UNL     1       4.121 -11.311  -0.654  0.00  0.00    +0.002 A 
ENDBRANCH  21  22
BRANCH  21  30
ATOM     28  C   UNL     1       2.734 -14.466   0.932  0.00  0.00    -0.096 C 
ATOM     29  C   UNL     1       1.002 -13.522   2.335  0.00  0.00    -0.096 C 
ATOM     30  N   UNL     1       1.700 -13.416   1.037  0.00  0.00    +0.382 N 
ATOM     31  H   UNL     1       1.018 -13.543   0.280  0.00  0.00    -0.082 HD
ENDBRANCH  21  30
ENDBRANCH  20  21
ENDBRANCH  16  20
ENDBRANCH  15  17
ENDBRANCH  14  15
ENDBRANCH   1  14
BRANCH   5  32
ATOM     32  C   UNL     1      -0.356  -2.749   1.548  0.00  0.00    +0.130 C 
BRANCH  32  33
ATOM     33  C   UNL     1      -0.986  -2.518   0.173  0.00  0.00    +0.057 C 
BRANCH  33  34
ATOM     34  C   UNL     1      -2.408  -2.050   0.345  0.00  0.00    -0.046 A 
ATOM     35  C   UNL     1      -3.437  -2.971   0.399  0.00  0.00    +0.004 A 
ATOM     36  C   UNL     1      -4.741  -2.542   0.562  0.00  0.00    +0.000 A 
ATOM     37  C   UNL     1      -5.017  -1.191   0.659  0.00  0.00    +0.000 A 
ATOM     38  C   UNL     1      -3.988  -0.269   0.599  0.00  0.00    +0.000 A 
ATOM     39  C   UNL     1      -2.684  -0.699   0.442  0.00  0.00    +0.004 A 
ENDBRANCH  33  34
ENDBRANCH  32  33
ENDBRANCH   5  32
TORSDOF 12
