REMARK  Name = ZINC63613209
REMARK  7 active torsions:
REMARK  status: ('A' for Active; 'I' for Inactive)
REMARK    1  A    between atoms: C_1  and  O_2
REMARK    2  A    between atoms: O_2  and  C_3
REMARK    3  A    between atoms: C_8  and  C_9
REMARK    4  A    between atoms: C_16  and  C_21
REMARK    5  A    between atoms: N_23  and  C_24
REMARK    6  A    between atoms: C_24  and  C_25
REMARK    7  A    between atoms: C_25  and  C_26
REMARK                            x       y       z     vdW  Elec       q    Type
REMARK                         _______ _______ _______ _____ _____    ______ ____
ROOT
ATOM      1  C   UNL     1      -0.019  -2.831  -0.013  0.00  0.00    +0.063 C 
ATOM      2  C   UNL     1      -0.076  -4.179   0.082  0.00  0.00    +0.191 C 
ATOM      3  C   UNL     1       1.149  -4.997   0.184  0.00  0.00    +0.284 C 
ATOM      4  O   UNL     1       2.211  -4.600  -0.256  0.00  0.00    -0.266 OA
ATOM      5  N   UNL     1       1.045  -6.205   0.788  0.00  0.00    -0.276 N 
ATOM      6  C   UNL     1      -0.202  -6.605   1.290  0.00  0.00    +0.077 A 
ATOM      7  C   UNL     1      -0.286  -7.690   2.143  0.00  0.00    +0.040 A 
ATOM      8  C   UNL     1      -1.530  -8.086   2.642  0.00  0.00    +0.039 A 
ATOM      9  C   UNL     1      -2.682  -7.384   2.278  0.00  0.00    +0.017 A 
ATOM     10  C   UNL     1      -2.592  -6.303   1.428  0.00  0.00    +0.049 A 
ATOM     11  C   UNL     1      -1.358  -5.909   0.930  0.00  0.00    +0.150 A 
ATOM     12  O   UNL     1      -1.273  -4.843   0.093  0.00  0.00    -0.449 OA
ATOM     13  H   UNL     1       1.819  -6.783   0.871  0.00  0.00    +0.155 HD
ENDROOT
BRANCH   1  19
ATOM     14  C   UNL     1      -1.278  -0.681   0.002  0.00  0.00    +0.127 A 
ATOM     15  C   UNL     1      -2.436   0.038  -0.243  0.00  0.00    +0.046 A 
ATOM     16  C   UNL     1      -3.556  -0.601  -0.742  0.00  0.00    +0.004 A 
ATOM     17  C   UNL     1      -3.530  -1.962  -1.000  0.00  0.00    +0.001 A 
ATOM     18  C   UNL     1      -2.387  -2.693  -0.762  0.00  0.00    +0.011 A 
ATOM     19  C   UNL     1      -1.244  -2.058  -0.264  0.00  0.00    +0.020 A 
BRANCH  14  21
ATOM     20  C   UNL     1      -0.286   1.349   0.738  0.00  0.00    +0.277 C 
ATOM     21  O   UNL     1      -0.177  -0.054   0.492  0.00  0.00    -0.495 OA
ENDBRANCH  14  21
ENDBRANCH   1  19
BRANCH   8  22
ATOM     22  C   UNL     1      -1.626  -9.244   3.552  0.00  0.00    +0.244 C 
ATOM     23  O   UNL     1      -0.623  -9.854   3.868  0.00  0.00    -0.270 OA
ATOM     24  N   UNL     1      -2.826  -9.625   4.033  0.00  0.00    -0.311 N 
ATOM     25  H   UNL     1      -3.626  -9.138   3.781  0.00  0.00    +0.149 HD
BRANCH  24  26
ATOM     26  C   UNL     1      -2.922 -10.774   4.936  0.00  0.00    +0.109 C 
BRANCH  26  27
ATOM     27  C   UNL     1      -4.383 -10.992   5.332  0.00  0.00    +0.052 C 
BRANCH  27  28
ATOM     28  C   UNL     1      -4.482 -12.175   6.261  0.00  0.00    -0.040 C 
ATOM     29  C   UNL     1      -4.502 -12.147   7.613  0.00  0.00    -0.001 A 
ATOM     30  C   UNL     1      -4.440 -11.050   8.586  0.00  0.00    +0.010 A 
ATOM     31  C   UNL     1      -4.482 -11.340   9.906  0.00  0.00    +0.001 A 
ATOM     32  C   UNL     1      -4.582 -12.660  10.367  0.00  0.00    +0.002 A 
ATOM     33  C   UNL     1      -4.644 -13.721   9.535  0.00  0.00    +0.026 A 
ATOM     34  C   UNL     1      -4.608 -13.531   8.126  0.00  0.00    +0.043 A 
ATOM     35  N   UNL     1      -4.652 -14.382   7.129  0.00  0.00    -0.380 N 
ATOM     36  C   UNL     1      -4.584 -13.632   5.870  0.00  0.00    +0.144 C 
ATOM     37  H   UNL     1      -4.721 -15.346   7.211  0.00  0.00    +0.160 HD
ENDBRANCH  27  28
ENDBRANCH  26  27
ENDBRANCH  24  26
ENDBRANCH   8  22
TORSDOF 6
