REMARK  Name = ZINC39325192
REMARK  5 active torsions:
REMARK  status: ('A' for Active; 'I' for Inactive)
REMARK    1  A    between atoms: C_8  and  C_20
REMARK    2  A    between atoms: C_10  and  C_16
REMARK    3  A    between atoms: C_10  and  C_18
REMARK    4  A    between atoms: C_11  and  N_15
REMARK    5  A    between atoms: C_12  and  C_13
REMARK                            x       y       z     vdW  Elec       q    Type
REMARK                         _______ _______ _______ _____ _____    ______ ____
ROOT
ATOM      1  C   UNL     1      -1.308   0.972   0.290  0.00  0.00    +0.005 C 
ATOM      2  C   UNL     1      -0.072   1.674   0.868  0.00  0.00    +0.027 C 
ATOM      3  C   UNL     1       1.030   1.575  -0.156  0.00  0.00    -0.022 C 
ATOM      4  C   UNL     1       1.126   0.525  -0.947  0.00  0.00    -0.029 C 
ATOM      5  C   UNL     1       0.212  -0.662  -0.875  0.00  0.00    +0.026 C 
ATOM      6  C   UNL     1      -0.962  -0.498   0.059  0.00  0.00    +0.009 C 
ATOM      7  C   UNL     1      -0.226  -1.018  -2.296  0.00  0.00    +0.040 C 
ATOM      8  C   UNL     1       1.006  -1.430  -3.104  0.00  0.00    +0.184 C 
ATOM      9  C   UNL     1       2.109  -0.423  -2.986  0.00  0.00    +0.054 C 
ATOM     10  C   UNL     1       2.191   0.488  -1.984  0.00  0.00    +0.074 C 
ENDROOT
BRANCH   7  11
ATOM     11  C   UNL     1      -0.887   0.197  -2.948  0.00  0.00    -0.000 C 
ATOM     12  C   UNL     1      -1.833  -0.267  -4.063  0.00  0.00    +0.008 C 
ATOM     13  C   UNL     1      -2.611   0.948  -4.574  0.00  0.00    +0.027 C 
ATOM     14  C   UNL     1      -1.668   2.076  -4.874  0.00  0.00    -0.031 C 
ATOM     15  C   UNL     1      -0.453   2.143  -4.432  0.00  0.00    -0.031 C 
ATOM     16  C   UNL     1       0.186   1.099  -3.563  0.00  0.00    +0.030 C 
ENDBRANCH   7  11
BRANCH   9  17
ATOM     17  N   UNL     1       3.087  -0.422  -3.941  0.00  0.00    -0.358 N 
ATOM     18  H   UNL     1       3.054  -1.062  -4.670  0.00  0.00    +0.142 HD
ATOM     19  H   UNL     1       3.814   0.219  -3.890  0.00  0.00    +0.142 HD
ENDBRANCH   9  17
BRANCH  10  20
ATOM     20  C   UNL     1       3.291   1.404  -1.925  0.00  0.00    +0.101 C 
ATOM     21  N   UNL     1       4.163   2.130  -1.879  0.00  0.00    -0.191 NA
ENDBRANCH  10  20
BRANCH   8  22
ATOM     22  C   UNL     1       1.489  -2.731  -2.614  0.00  0.00    +0.091 C 
ATOM     23  N   UNL     1       1.862  -3.735  -2.235  0.00  0.00    -0.195 NA
ENDBRANCH   8  22
BRANCH   8  24
ATOM     24  C   UNL     1       0.627  -1.564  -4.521  0.00  0.00    +0.091 C 
ATOM     25  N   UNL     1       0.336  -1.667  -5.614  0.00  0.00    -0.195 NA
ENDBRANCH   8  24
TORSDOF 5
