REMARK  Name = ZINC09809028
REMARK  19 active torsions:
REMARK  status: ('A' for Active; 'I' for Inactive)
REMARK    1  A    between atoms: C_1  and  C_2
REMARK    2  A    between atoms: C_2  and  C_3
REMARK    3  A    between atoms: C_2  and  C_4
REMARK    4  A    between atoms: C_2  and  C_5
REMARK    5  A    between atoms: C_7  and  C_16
REMARK    6  A    between atoms: C_9  and  C_12
REMARK    7  A    between atoms: C_10  and  O_11
REMARK    8  A    between atoms: C_12  and  C_13
REMARK    9  A    between atoms: C_12  and  C_14
REMARK   10  A    between atoms: C_12  and  C_15
REMARK   11  A    between atoms: C_16  and  C_17
REMARK   12  A    between atoms: C_17  and  C_18
REMARK   13  A    between atoms: C_18  and  O_20
REMARK   14  A    between atoms: O_20  and  C_21
REMARK   15  A    between atoms: C_21  and  C_22
REMARK   16  A    between atoms: C_22  and  C_24
REMARK   17  A    between atoms: C_25  and  N_34
REMARK   18  A    between atoms: N_26  and  C_33
REMARK   19  A    between atoms: N_29  and  C_32
REMARK                            x       y       z     vdW  Elec       q    Type
REMARK                         _______ _______ _______ _____ _____    ______ ____
ROOT
ATOM      1  C   UNL     1      -0.021   1.505   0.099  0.00  0.00    +0.308 C 
ATOM      2  O   UNL     1      -1.075   2.095   0.125  0.00  0.00    -0.251 OA
ENDROOT
BRANCH   1   3
ATOM      3  C   UNL     1      -0.001  -0.002   0.099  0.00  0.00    +0.125 C 
BRANCH   3   4
ATOM      4  C   UNL     1      -1.437  -0.531   0.142  0.00  0.00    +0.046 C 
BRANCH   4   7
ATOM      5  C   UNL     1      -1.354  -4.109   1.342  0.00  0.00    -0.000 A 
ATOM      6  C   UNL     1      -1.372  -2.727   1.339  0.00  0.00    +0.011 A 
ATOM      7  C   UNL     1      -1.417  -2.038   0.142  0.00  0.00    -0.046 A 
ATOM      8  C   UNL     1      -1.450  -2.728  -1.056  0.00  0.00    +0.011 A 
ATOM      9  C   UNL     1      -1.426  -4.109  -1.059  0.00  0.00    -0.000 A 
ATOM     10  C   UNL     1      -1.381  -4.804   0.142  0.00  0.00    +0.124 A 
BRANCH   5  12
ATOM     11  C   UNL     1      -1.284  -3.864   3.808  0.00  0.00    +0.015 C 
ATOM     12  C   UNL     1      -1.306  -4.860   2.647  0.00  0.00    -0.009 C 
ATOM     13  C   UNL     1      -2.541  -5.755   2.767  0.00  0.00    +0.015 C 
ATOM     14  C   UNL     1      -0.044  -5.723   2.693  0.00  0.00    +0.015 C 
ENDBRANCH   5  12
BRANCH   9  15
ATOM     15  C   UNL     1      -1.456  -4.862  -2.364  0.00  0.00    -0.009 C 
ATOM     16  C   UNL     1      -1.504  -3.866  -3.525  0.00  0.00    +0.015 C 
ATOM     17  C   UNL     1      -0.199  -5.725  -2.484  0.00  0.00    +0.015 C 
ATOM     18  C   UNL     1      -2.696  -5.757  -2.409  0.00  0.00    +0.015 C 
ENDBRANCH   9  15
BRANCH  10  19
ATOM     19  O   UNL     1      -1.363  -6.163   0.141  0.00  0.00    -0.506 OA
ATOM     20  H   UNL     1      -2.241  -6.568   0.168  0.00  0.00    +0.292 HD
ENDBRANCH  10  19
ENDBRANCH   4   7
ENDBRANCH   3   4
ENDBRANCH   1   3
BRANCH   1  21
ATOM     21  O   UNL     1       1.132   2.191   0.064  0.00  0.00    -0.457 OA
BRANCH  21  22
ATOM     22  C   UNL     1       1.038   3.640   0.066  0.00  0.00    +0.311 C 
BRANCH  22  23
ATOM     23  C   UNL     1       2.422   4.234   0.024  0.00  0.00    +0.209 C 
ATOM     24  O   UNL     1       3.394   3.506  -0.005  0.00  0.00    -0.288 OA
BRANCH  23  25
ATOM     25  C   UNL     1       2.589   5.635   0.019  0.00  0.00    +0.123 A 
ATOM     26  C   UNL     1       3.867   6.214   0.103  0.00  0.00    +0.116 A 
ATOM     27  N   UNL     1       3.978   7.575   0.089  0.00  0.00    -0.284 N 
ATOM     28  C   UNL     1       2.894   8.362   0.007  0.00  0.00    +0.333 A 
ATOM     29  O   UNL     1       3.046   9.568   0.002  0.00  0.00    -0.246 OA
ATOM     30  N   UNL     1       1.649   7.867  -0.071  0.00  0.00    -0.263 N 
ATOM     31  C   UNL     1       1.432   6.535  -0.070  0.00  0.00    +0.269 A 
ATOM     32  O   UNL     1       0.302   6.090  -0.140  0.00  0.00    -0.267 OA
ATOM     33  C   UNL     1       0.510   8.784  -0.158  0.00  0.00    +0.157 C 
ATOM     34  C   UNL     1       5.306   8.188   0.170  0.00  0.00    +0.155 C 
BRANCH  26  35
ATOM     35  N   UNL     1       4.976   5.431   0.193  0.00  0.00    -0.344 N 
ATOM     36  H   UNL     1       4.896   4.467   0.118  0.00  0.00    +0.144 HD
ATOM     37  H   UNL     1       5.846   5.836   0.332  0.00  0.00    +0.144 HD
ENDBRANCH  26  35
ENDBRANCH  23  25
ENDBRANCH  22  23
ENDBRANCH  21  22
ENDBRANCH   1  21
TORSDOF 11
