REMARK  Name = ZINC25986052
REMARK  3 active torsions:
REMARK  status: ('A' for Active; 'I' for Inactive)
REMARK    1  A    between atoms: C_9  and  C_12
REMARK    2  A    between atoms: C_12  and  N_13
REMARK    3  A    between atoms: C_14  and  C_16
REMARK                            x       y       z     vdW  Elec       q    Type
REMARK                         _______ _______ _______ _____ _____    ______ ____
ROOT
ATOM      1  C   UNL     1       3.651  -3.384  -0.052  0.00  0.00    +0.152 C 
ENDROOT
BRANCH   1  10
ATOM      2  C   UNL     1       9.674  -3.348   2.017  0.00  0.00    +0.004 A 
ATOM      3  C   UNL     1       8.946  -2.373   2.672  0.00  0.00    +0.004 A 
ATOM      4  C   UNL     1       7.607  -2.193   2.380  0.00  0.00    +0.049 A 
ATOM      5  C   UNL     1       6.990  -2.992   1.428  0.00  0.00    +0.163 A 
ATOM      6  C   UNL     1       7.723  -3.971   0.768  0.00  0.00    +0.162 A 
ATOM      7  C   UNL     1       9.066  -4.146   1.066  0.00  0.00    +0.049 A 
ATOM      8  O   UNL     1       7.139  -4.762  -0.173  0.00  0.00    -0.485 OA
ATOM      9  C   UNL     1       5.708  -4.809  -0.176  0.00  0.00    +0.275 C 
ATOM     10  C   UNL     1       5.180  -3.372  -0.067  0.00  0.00    +0.228 C 
ATOM     11  O   UNL     1       5.670  -2.806   1.154  0.00  0.00    -0.480 OA
ENDBRANCH   1  10
BRANCH   1  12
ATOM     12  N   UNL     1       3.152  -2.006  -0.040  0.00  0.00    -0.307 N 
ATOM     13  C   UNL     1       1.825  -1.770  -0.026  0.00  0.00    +0.260 C 
ATOM     14  O   UNL     1       1.041  -2.701  -0.024  0.00  0.00    -0.269 OA
ATOM     15  H   UNL     1       3.860  -1.165  -0.041  0.00  0.00    +0.149 HD
BRANCH  13  16
ATOM     16  C   UNL     1       1.325  -0.391  -0.013  0.00  0.00    +0.103 A 
ATOM     17  C   UNL     1       0.002  -0.004   0.002  0.00  0.00    +0.047 A 
ATOM     18  C   UNL     1      -0.017   1.395   0.010  0.00  0.00    +0.036 A 
ATOM     19  C   UNL     1       1.267   1.827  -0.000  0.00  0.00    +0.098 A 
ATOM     20  N   UNL     1       2.092   0.752  -0.014  0.00  0.00    -0.356 N 
ATOM     21  H   UNL     1       3.190   0.677  -0.025  0.00  0.00    +0.165 HD
ATOM     22 BR   UNL     1      -1.560   2.487   0.023  0.00  0.00    -0.049 Br
ENDBRANCH  13  16
ENDBRANCH   1  12
TORSDOF 3
