REMARK  Name = ZINC37931089
REMARK  4 active torsions:
REMARK  status: ('A' for Active; 'I' for Inactive)
REMARK    1  A    between atoms: C_3  and  N_11
REMARK    2  A    between atoms: C_4  and  C_8
REMARK    3  A    between atoms: C_6  and  N_7
REMARK    4  A    between atoms: N_11  and  C_12
REMARK                            x       y       z     vdW  Elec       q    Type
REMARK                         _______ _______ _______ _____ _____    ______ ____
ROOT
ATOM      1  C   UNL     1      -0.065   1.293   0.020  0.00  0.00    +0.024 A 
ATOM      2  C   UNL     1       1.056   2.096  -0.013  0.00  0.00    +0.025 A 
ATOM      3  C   UNL     1       2.322   1.525  -0.039  0.00  0.00    +0.042 A 
ATOM      4  C   UNL     1       2.457   0.127  -0.032  0.00  0.00    +0.086 A 
ATOM      5  C   UNL     1       1.313  -0.678   0.002  0.00  0.00    +0.039 A 
ATOM      6  C   UNL     1       0.061  -0.093   0.028  0.00  0.00    +0.025 A 
ENDROOT
BRANCH   6   7
ATOM      7  N   UNL     1      -1.085  -0.897   0.062  0.00  0.00    -0.358 N 
ATOM      8  H   UNL     1      -1.964  -0.488   0.080  0.00  0.00    +0.142 HD
ATOM      9  H   UNL     1      -0.999  -1.863   0.067  0.00  0.00    +0.142 HD
ENDBRANCH   6   7
BRANCH   4  10
ATOM     10  C   UNL     1       3.793  -0.488  -0.060  0.00  0.00    +0.388 C 
ATOM     11  O   UNL     1       3.906  -1.701  -0.167  0.00  0.00    -0.241 OA
ATOM     12  O   UNL     1       4.792   0.215   0.025  0.00  0.00    -0.241 OA
ENDBRANCH   4  10
BRANCH   3  13
ATOM     13  N   UNL     1       3.452   2.334  -0.073  0.00  0.00    -0.340 N 
ATOM     14  H   UNL     1       4.335   1.938  -0.010  0.00  0.00    +0.146 HD
BRANCH  13  15
ATOM     15  C   UNL     1       3.309   3.786  -0.204  0.00  0.00    +0.073 C 
ATOM     16  C   UNL     1       3.150   4.145  -1.678  0.00  0.00    +0.045 C 
ATOM     17  C   UNL     1       2.732   5.611  -1.818  0.00  0.00    +0.167 C 
ATOM     18  S   UNL     1       4.057   6.665  -1.156  0.00  0.00    -0.031 S 
ATOM     19  O   UNL     1       3.558   7.990  -1.028  0.00  0.00    -0.174 OA
ATOM     20  O   UNL     1       5.236   6.439  -1.915  0.00  0.00    -0.174 OA
ATOM     21  C   UNL     1       4.295   5.974   0.508  0.00  0.00    +0.167 C 
ATOM     22  C   UNL     1       4.539   4.468   0.388  0.00  0.00    +0.045 C 
ENDBRANCH  13  15
ENDBRANCH   3  13
TORSDOF 4
