REMARK  Name = ZINC37695001
REMARK  3 active torsions:
REMARK  status: ('A' for Active; 'I' for Inactive)
REMARK    1  A    between atoms: C_9  and  O_11
REMARK    2  A    between atoms: O_11  and  C_12
REMARK    3  A    between atoms: C_19  and  O_21
REMARK                            x       y       z     vdW  Elec       q    Type
REMARK                         _______ _______ _______ _____ _____    ______ ____
ROOT
ATOM      1  C   UNL     1       0.018   1.381   0.336  0.00  0.00    +0.004 A 
ATOM      2  C   UNL     1       1.155   2.102   0.125  0.00  0.00    +0.010 A 
ATOM      3  C   UNL     1       2.361   1.435  -0.146  0.00  0.00    +0.004 A 
ATOM      4  C   UNL     1       3.556   2.145  -0.368  0.00  0.00    +0.011 A 
ATOM      5  C   UNL     1       4.691   1.431  -0.626  0.00  0.00    +0.020 A 
ATOM      6  C   UNL     1       4.643   0.039  -0.664  0.00  0.00    +0.111 A 
ATOM      7  N   UNL     1       3.528  -0.618  -0.457  0.00  0.00    -0.251 NA
ATOM      8  C   UNL     1       2.383   0.020  -0.199  0.00  0.00    +0.112 A 
ATOM      9  C   UNL     1       1.186  -0.692   0.024  0.00  0.00    +0.147 A 
ATOM     10  C   UNL     1       0.032  -0.010   0.286  0.00  0.00    +0.048 A 
ENDROOT
BRANCH   9  11
ATOM     11  O   UNL     1       1.181  -2.050  -0.021  0.00  0.00    -0.482 OA
BRANCH  11  12
ATOM     12  C   UNL     1      -0.087  -2.699   0.098  0.00  0.00    +0.224 C 
ATOM     13  C   UNL     1      -0.457  -2.785   1.596  0.00  0.00    +0.213 C 
ATOM     14  S   UNL     1      -1.292  -4.431   1.665  0.00  0.00    -0.025 S 
ATOM     15  O   UNL     1      -1.002  -5.053   2.909  0.00  0.00    -0.174 OA
ATOM     16  O   UNL     1      -2.642  -4.292   1.244  0.00  0.00    -0.174 OA
ATOM     17  C   UNL     1      -0.314  -5.248   0.330  0.00  0.00    +0.201 C 
ATOM     18  C   UNL     1      -0.007  -4.051  -0.593  0.00  0.00    +0.177 C 
BRANCH  18  19
ATOM     19  O   UNL     1      -0.938  -4.066  -1.677  0.00  0.00    -0.386 OA
ATOM     20  H   UNL     1      -0.951  -4.896  -2.173  0.00  0.00    +0.210 HD
ENDBRANCH  18  19
ENDBRANCH  11  12
ENDBRANCH   9  11
TORSDOF 3
