REMARK  Name = ZINC08648212
REMARK  8 active torsions:
REMARK  status: ('A' for Active; 'I' for Inactive)
REMARK    1  A    between atoms: C_1  and  C_2
REMARK    2  A    between atoms: C_2  and  C_3
REMARK    3  A    between atoms: C_3  and  C_4
REMARK    4  A    between atoms: C_7  and  N_10
REMARK    5  A    between atoms: C_11  and  C_13
REMARK    6  A    between atoms: C_13  and  C_14
REMARK    7  A    between atoms: N_20  and  C_21
REMARK    8  A    between atoms: C_24  and  C_27
REMARK                            x       y       z     vdW  Elec       q    Type
REMARK                         _______ _______ _______ _____ _____    ______ ____
ROOT
ATOM      1  C   UNL     1      -0.990  -8.903   2.559  0.00  0.00    +0.149 C 
ATOM      2  C   UNL     1      -0.825 -10.414   2.588  0.00  0.00    +0.232 C 
ATOM      3  O   UNL     1       0.130 -10.968   2.085  0.00  0.00    -0.274 OA
ATOM      4  N   UNL     1      -1.787 -11.087   3.197  0.00  0.00    -0.264 N 
ATOM      5  C   UNL     1      -2.875 -10.466   3.771  0.00  0.00    +0.161 C 
ATOM      6  N   UNL     1      -3.887 -11.019   4.398  0.00  0.00    -0.226 NA
ATOM      7  S   UNL     1      -2.585  -8.729   3.462  0.00  0.00    -0.077 S 
ATOM      8  H   UNL     1      -1.724 -12.054   3.240  0.00  0.00    +0.157 HD
ENDROOT
BRANCH   6   9
ATOM      9  C   UNL     1      -3.942 -12.380   4.541  0.00  0.00    +0.067 A 
ATOM     10  C   UNL     1      -3.649 -13.211   3.458  0.00  0.00    +0.028 A 
ATOM     11  C   UNL     1      -3.706 -14.581   3.610  0.00  0.00    +0.006 A 
ATOM     12  C   UNL     1      -4.053 -15.132   4.831  0.00  0.00    -0.044 A 
ATOM     13  C   UNL     1      -4.345 -14.313   5.908  0.00  0.00    +0.006 A 
ATOM     14  C   UNL     1      -4.286 -12.942   5.772  0.00  0.00    +0.028 A 
BRANCH  12  15
ATOM     15  C   UNL     1      -4.114 -16.629   4.989  0.00  0.00    +0.019 C 
ATOM     16  C   UNL     1      -5.530 -17.042   5.397  0.00  0.00    +0.008 C 
ATOM     17  C   UNL     1      -5.592 -18.562   5.557  0.00  0.00    +0.001 C 
ATOM     18  C   UNL     1      -4.602 -19.002   6.636  0.00  0.00    +0.000 C 
ATOM     19  C   UNL     1      -3.186 -18.590   6.228  0.00  0.00    +0.001 C 
ATOM     20  C   UNL     1      -3.124 -17.069   6.068  0.00  0.00    +0.008 C 
ENDBRANCH  12  15
ENDBRANCH   6   9
BRANCH   1  21
ATOM     21  C   UNL     1      -1.106  -8.386   1.124  0.00  0.00    +0.120 C 
BRANCH  21  23
ATOM     22  N   UNL     1      -1.356  -6.206  -0.018  0.00  0.00    -0.285 N 
ATOM     23  C   UNL     1      -1.240  -6.885   1.140  0.00  0.00    +0.219 C 
ATOM     24  O   UNL     1      -1.242  -6.288   2.196  0.00  0.00    -0.275 OA
ATOM     25  H   UNL     1      -1.432  -6.688  -0.857  0.00  0.00    +0.155 HD
BRANCH  22  29
ATOM     26  C   UNL     1      -1.393  -2.040   0.002  0.00  0.00    -0.047 A 
ATOM     27  C   UNL     1      -0.638  -2.728   0.934  0.00  0.00    +0.005 A 
ATOM     28  C   UNL     1      -0.624  -4.109   0.930  0.00  0.00    +0.023 A 
ATOM     29  C   UNL     1      -1.369  -4.807  -0.011  0.00  0.00    +0.033 A 
ATOM     30  C   UNL     1      -2.127  -4.113  -0.946  0.00  0.00    +0.023 A 
ATOM     31  C   UNL     1      -2.141  -2.732  -0.933  0.00  0.00    +0.005 A 
BRANCH  26  32
ATOM     32  C   UNL     1      -1.407  -0.533   0.009  0.00  0.00    +0.035 C 
BRANCH  32  34
ATOM     33  C   UNL     1      -2.546   1.492   0.927  0.00  0.00    +0.004 C 
ATOM     34  C   UNL     1      -2.533  -0.038   0.919  0.00  0.00    +0.001 C 
ENDBRANCH  32  34
ENDBRANCH  26  32
ENDBRANCH  22  29
ENDBRANCH  21  23
ENDBRANCH   1  21
TORSDOF 7
