REMARK  Name = ZINC46703480
REMARK  2 active torsions:
REMARK  status: ('A' for Active; 'I' for Inactive)
REMARK    1  A    between atoms: C_4  and  C_10
REMARK    2  A    between atoms: C_6  and  N_7
REMARK                            x       y       z     vdW  Elec       q    Type
REMARK                         _______ _______ _______ _____ _____    ______ ____
ROOT
ATOM      1  C   UNL     1       3.690  -0.679  -0.038  0.00  0.00    +0.144 A 
ATOM      2  N   UNL     1       3.678  -2.036  -0.051  0.00  0.00    -0.306 N 
ATOM      3  H   UNL     1       2.825  -2.499  -0.049  0.00  0.00    +0.170 HD
ATOM      4  C   UNL     1       4.815  -2.760  -0.067  0.00  0.00    +0.260 A 
ATOM      5  O   UNL     1       4.785  -3.974  -0.079  0.00  0.00    -0.267 OA
ATOM      6  C   UNL     1       6.114  -2.017  -0.071  0.00  0.00    +0.076 A 
ATOM      7  C   UNL     1       7.373  -2.522  -0.084  0.00  0.00    -0.012 A 
ATOM      8  C   UNL     1       8.478  -1.532  -0.089  0.00  0.00    +0.051 A 
ATOM      9  S   UNL     1       7.664   0.042  -0.062  0.00  0.00    -0.062 S 
ATOM     10  C   UNL     1       5.986  -0.538  -0.056  0.00  0.00    +0.117 A 
ATOM     11  N   UNL     1       4.816   0.034  -0.046  0.00  0.00    -0.222 NA
ATOM     12  S   UNL     1      10.093  -1.855  -0.117  0.00  0.00    -0.118 S 
ATOM     13  C   UNL     1      10.167  -3.669  -0.150  0.00  0.00    +0.075 C 
ATOM     14  C   UNL     1       8.996  -4.256   0.630  0.00  0.00    +0.016 C 
ATOM     15  C   UNL     1       7.671  -4.017  -0.089  0.00  0.00    +0.038 C 
ENDROOT
BRANCH   1  19
ATOM     16  C   UNL     1      -0.017   1.381   0.010  0.00  0.00    +0.034 A 
ATOM     17  C   UNL     1       1.167   2.099   0.002  0.00  0.00    +0.023 A 
ATOM     18  C   UNL     1       2.378   1.438  -0.013  0.00  0.00    +0.052 A 
ATOM     19  C   UNL     1       2.406   0.035  -0.021  0.00  0.00    +0.038 A 
ATOM     20  C   UNL     1       1.201  -0.681  -0.013  0.00  0.00    +0.045 A 
ATOM     21  C   UNL     1       0.002  -0.004   0.002  0.00  0.00    +0.127 A 
ATOM     22 CL   UNL     1       3.862   2.338  -0.024  0.00  0.00    -0.083 Cl
BRANCH  21  23
ATOM     23  N   UNL     1      -1.271  -0.759   0.011  0.00  0.00    +0.056 N 
ATOM     24  O   UNL     1      -2.419  -0.114   0.025  0.00  0.00    -0.126 OA
ATOM     25  O   UNL     1      -1.256  -2.076   0.003  0.00  0.00    -0.126 OA
ENDBRANCH  21  23
ENDBRANCH   1  19
TORSDOF 2
