REMARK  Name = ZINC12659159
REMARK  15 active torsions:
REMARK  status: ('A' for Active; 'I' for Inactive)
REMARK    1  A    between atoms: C_2  and  C_43
REMARK    2  A    between atoms: C_4  and  N_40
REMARK    3  A    between atoms: C_6  and  N_7
REMARK    4  A    between atoms: N_7  and  C_8
REMARK    5  A    between atoms: C_10  and  O_39
REMARK    6  A    between atoms: C_12  and  O_38
REMARK    7  A    between atoms: C_14  and  O_21
REMARK    8  A    between atoms: C_16  and  C_19
REMARK    9  A    between atoms: C_19  and  O_20
REMARK   10  A    between atoms: O_21  and  C_22
REMARK   11  A    between atoms: C_24  and  O_37
REMARK   12  A    between atoms: C_26  and  O_36
REMARK   13  A    between atoms: C_28  and  O_35
REMARK   14  A    between atoms: C_30  and  C_33
REMARK   15  A    between atoms: C_33  and  O_34
REMARK                            x       y       z     vdW  Elec       q    Type
REMARK                         _______ _______ _______ _____ _____    ______ ____
ROOT
ATOM      1  C   UNL     1       1.823   1.020  -1.184  0.00  0.00    +0.235 C 
ATOM      2  C   UNL     1       1.008   1.581  -0.016  0.00  0.00    +0.192 C 
ATOM      3  C   UNL     1       1.121   3.109  -0.011  0.00  0.00    +0.178 C 
ATOM      4  C   UNL     1       2.600   3.500   0.070  0.00  0.00    +0.183 C 
ATOM      5  C   UNL     1       3.353   2.866  -1.102  0.00  0.00    +0.177 C 
ATOM      6  O   UNL     1       3.181   1.448  -1.065  0.00  0.00    -0.348 OA
ENDROOT
BRANCH   1   7
ATOM      7  N   UNL     1       1.267   1.509  -2.448  0.00  0.00    -0.317 N 
ATOM      8  H   UNL     1       0.892   2.403  -2.499  0.00  0.00    +0.149 HD
BRANCH   7  14
ATOM      9  C   UNL     1       1.936  -0.528  -3.547  0.00  0.00    +0.038 A 
ATOM     10  C   UNL     1       1.937  -1.346  -4.678  0.00  0.00    +0.067 A 
ATOM     11  C   UNL     1       1.283  -0.925  -5.838  0.00  0.00    +0.048 A 
ATOM     12  C   UNL     1       0.634   0.292  -5.861  0.00  0.00    +0.129 A 
ATOM     13  C   UNL     1       0.628   1.099  -4.739  0.00  0.00    +0.055 A 
ATOM     14  C   UNL     1       1.276   0.690  -3.579  0.00  0.00    +0.032 A 
BRANCH  12  15
ATOM     15  N   UNL     1      -0.058   0.736  -7.092  0.00  0.00    +0.057 N 
ATOM     16  O   UNL     1      -0.632   1.810  -7.115  0.00  0.00    -0.126 OA
ATOM     17  O   UNL     1      -0.054   0.026  -8.082  0.00  0.00    -0.126 OA
ENDBRANCH  12  15
BRANCH  10  18
ATOM     18  C   UNL     1       2.633  -2.649  -4.651  0.00  0.00    +0.387 C 
ATOM     19  O   UNL     1       3.201  -3.013  -3.641  0.00  0.00    -0.241 OA
ATOM     20  O   UNL     1       2.636  -3.434  -5.745  0.00  0.00    -0.241 OA
ENDBRANCH  10  18
ENDBRANCH   7  14
ENDBRANCH   1   7
BRANCH   3  21
ATOM     21  O   UNL     1       0.553   3.634  -1.212  0.00  0.00    -0.386 OA
ATOM     22  H   UNL     1      -0.382   3.418  -1.332  0.00  0.00    +0.210 HD
ENDBRANCH   3  21
BRANCH   2  23
ATOM     23  O   UNL     1      -0.362   1.204  -0.165  0.00  0.00    -0.385 OA
ATOM     24  H   UNL     1      -0.508   0.248  -0.178  0.00  0.00    +0.210 HD
ENDBRANCH   2  23
BRANCH   5  25
ATOM     25  C   UNL     1       4.842   3.203  -0.994  0.00  0.00    +0.190 C 
BRANCH  25  26
ATOM     26  O   UNL     1       5.526   2.710  -2.148  0.00  0.00    -0.392 OA
ATOM     27  H   UNL     1       6.476   2.888  -2.148  0.00  0.00    +0.210 HD
ENDBRANCH  25  26
ENDBRANCH   5  25
BRANCH   4  28
ATOM     28  O   UNL     1       3.151   3.032   1.303  0.00  0.00    -0.340 OA
BRANCH  28  29
ATOM     29  C   UNL     1       3.046   3.966   2.379  0.00  0.00    +0.282 C 
ATOM     30  C   UNL     1       3.877   3.473   3.567  0.00  0.00    +0.201 C 
ATOM     31  C   UNL     1       3.311   2.135   4.055  0.00  0.00    +0.179 C 
ATOM     32  C   UNL     1       1.834   2.320   4.416  0.00  0.00    +0.177 C 
ATOM     33  C   UNL     1       1.082   2.857   3.195  0.00  0.00    +0.178 C 
ATOM     34  O   UNL     1       1.677   4.086   2.774  0.00  0.00    -0.341 OA
BRANCH  32  35
ATOM     35  O   UNL     1       1.277   1.062   4.804  0.00  0.00    -0.386 OA
ATOM     36  H   UNL     1       1.709   0.660   5.570  0.00  0.00    +0.210 HD
ENDBRANCH  32  35
BRANCH  31  37
ATOM     37  O   UNL     1       4.035   1.704   5.209  0.00  0.00    -0.386 OA
ATOM     38  H   UNL     1       4.980   1.573   5.054  0.00  0.00    +0.210 HD
ENDBRANCH  31  37
BRANCH  30  39
ATOM     39  O   UNL     1       3.816   4.433   4.623  0.00  0.00    -0.384 OA
ATOM     40  H   UNL     1       4.155   5.306   4.382  0.00  0.00    +0.210 HD
ENDBRANCH  30  39
BRANCH  33  41
ATOM     41  C   UNL     1      -0.383   3.101   3.565  0.00  0.00    +0.190 C 
BRANCH  41  42
ATOM     42  O   UNL     1      -1.110   3.491   2.398  0.00  0.00    -0.392 OA
ATOM     43  H   UNL     1      -2.048   3.662   2.558  0.00  0.00    +0.210 HD
ENDBRANCH  41  42
ENDBRANCH  33  41
ENDBRANCH  28  29
ENDBRANCH   4  28
TORSDOF 15
