REMARK  Name = ZINC38704778
REMARK  10 active torsions:
REMARK  status: ('A' for Active; 'I' for Inactive)
REMARK    1  A    between atoms: C_1  and  C_2
REMARK    2  A    between atoms: C_2  and  C_3
REMARK    3  A    between atoms: C_3  and  C_4
REMARK    4  A    between atoms: C_4  and  C_5
REMARK    5  A    between atoms: C_5  and  N_6
REMARK    6  A    between atoms: C_7  and  C_26
REMARK    7  A    between atoms: C_10  and  C_17
REMARK    8  A    between atoms: C_18  and  C_25
REMARK    9  A    between atoms: C_20  and  C_24
REMARK   10  A    between atoms: C_22  and  O_23
REMARK                            x       y       z     vdW  Elec       q    Type
REMARK                         _______ _______ _______ _____ _____    ______ ____
ROOT
ATOM      1  N   UNL     1       1.545  -4.048  -2.528  0.00  0.00    -0.285 N 
ATOM      2  C   UNL     1       2.527  -4.937  -1.894  0.00  0.00    +0.141 C 
ATOM      3  C   UNL     1       2.077  -6.340  -2.200  0.00  0.00    +0.035 A 
ATOM      4  C   UNL     1       2.313  -7.711  -2.058  0.00  0.00    +0.102 A 
ATOM      5  N   UNL     1       1.348  -8.346  -2.693  0.00  0.00    -0.173 NA
ATOM      6  N   UNL     1       0.526  -7.511  -3.223  0.00  0.00    -0.272 N 
ATOM      7  H   UNL     1      -0.260  -7.753  -3.737  0.00  0.00    +0.189 HD
ATOM      8  C   UNL     1       0.923  -6.232  -2.952  0.00  0.00    +0.126 A 
ATOM      9  C   UNL     1       0.616  -4.809  -3.135  0.00  0.00    +0.265 C 
ATOM     10  O   UNL     1      -0.341  -4.379  -3.749  0.00  0.00    -0.268 OA
ENDROOT
BRANCH   4  11
ATOM     11  C   UNL     1       3.443  -8.337  -1.326  0.00  0.00    +0.047 A 
ATOM     12  C   UNL     1       4.202  -9.335  -1.933  0.00  0.00    -0.037 A 
ATOM     13  C   UNL     1       5.252  -9.913  -1.249  0.00  0.00    +0.007 A 
ATOM     14  C   UNL     1       5.554  -9.506   0.038  0.00  0.00    -0.047 A 
ATOM     15  C   UNL     1       4.807  -8.517   0.650  0.00  0.00    +0.049 A 
ATOM     16  C   UNL     1       3.754  -7.924  -0.028  0.00  0.00    +0.127 A 
ATOM     17  C   UNL     1       6.702 -10.145   0.777  0.00  0.00    +0.044 C 
ATOM     18  C   UNL     1       3.877  -9.782  -3.335  0.00  0.00    +0.044 C 
BRANCH  16  19
ATOM     19  O   UNL     1       3.022  -6.947   0.570  0.00  0.00    -0.506 OA
ATOM     20  H   UNL     1       2.308  -7.279   1.131  0.00  0.00    +0.292 HD
ENDBRANCH  16  19
ENDBRANCH   4  11
BRANCH   2  21
ATOM     21  C   UNL     1       3.897  -4.693  -2.473  0.00  0.00    -0.021 A 
ATOM     22  C   UNL     1       4.059  -4.576  -3.841  0.00  0.00    +0.007 A 
ATOM     23  C   UNL     1       5.315  -4.353  -4.373  0.00  0.00    +0.022 A 
ATOM     24  C   UNL     1       6.411  -4.245  -3.536  0.00  0.00    +0.059 A 
ATOM     25  C   UNL     1       6.249  -4.361  -2.166  0.00  0.00    +0.060 A 
ATOM     26  C   UNL     1       4.990  -4.580  -1.635  0.00  0.00    +0.027 A 
ATOM     27 CL   UNL     1       7.624  -4.226  -1.114  0.00  0.00    -0.082 Cl
ATOM     28 CL   UNL     1       7.989  -3.964  -4.203  0.00  0.00    -0.082 Cl
ENDBRANCH   2  21
BRANCH   1  29
ATOM     29  C   UNL     1       1.569  -2.583  -2.499  0.00  0.00    +0.109 C 
BRANCH  29  30
ATOM     30  C   UNL     1       0.794  -2.085  -1.278  0.00  0.00    +0.019 C 
BRANCH  30  31
ATOM     31  C   UNL     1       0.819  -0.555  -1.248  0.00  0.00    +0.001 C 
BRANCH  31  33
ATOM     32  C   UNL     1       0.069   1.473   0.004  0.00  0.00    +0.004 C 
ATOM     33  C   UNL     1       0.044  -0.056  -0.026  0.00  0.00    -0.003 C 
ENDBRANCH  31  33
ENDBRANCH  30  31
ENDBRANCH  29  30
ENDBRANCH   1  29
TORSDOF 7
