REMARK  Name = ZINC00169416
REMARK  2 active torsions:
REMARK  status: ('A' for Active; 'I' for Inactive)
REMARK    1  A    between atoms: C_4  and  C_7
REMARK    2  A    between atoms: C_9  and  C_12
REMARK                            x       y       z     vdW  Elec       q    Type
REMARK                         _______ _______ _______ _____ _____    ______ ____
ROOT
ATOM      1  C   UNL     1       1.105   2.020   0.002  0.00  0.00    +0.109 A 
ATOM      2  N   UNL     1      -0.016   1.317   0.009  0.00  0.00    -0.234 NA
ATOM      3  C   UNL     1       0.002  -0.004   0.002  0.00  0.00    +0.135 A 
ATOM      4  C   UNL     1       1.209  -0.659  -0.013  0.00  0.00    +0.080 A 
ATOM      5  S   UNL     1       2.338   0.727  -0.016  0.00  0.00    -0.075 S 
ENDROOT
BRANCH   1   9
ATOM      6  C   UNL     1       1.631   6.235   0.018  0.00  0.00    +0.000 A 
ATOM      7  C   UNL     1       2.736   5.403   0.003  0.00  0.00    +0.001 A 
ATOM      8  C   UNL     1       2.572   4.033  -0.002  0.00  0.00    +0.010 A 
ATOM      9  C   UNL     1       1.288   3.487   0.008  0.00  0.00    +0.007 A 
ATOM     10  C   UNL     1       0.177   4.332   0.016  0.00  0.00    +0.010 A 
ATOM     11  C   UNL     1       0.355   5.700   0.027  0.00  0.00    +0.001 A 
ENDBRANCH   1   9
BRANCH   3  12
ATOM     12  C   UNL     1      -1.263  -0.768   0.011  0.00  0.00    +0.268 A 
ATOM     13  N   UNL     1      -2.458  -0.251   0.025  0.00  0.00    -0.105 NA
ATOM     14  N   UNL     1      -3.381  -1.307   0.028  0.00  0.00    -0.100 NA
ATOM     15  C   UNL     1      -2.667  -2.452   0.016  0.00  0.00    +0.289 A 
ATOM     16  S   UNL     1      -3.301  -4.042   0.013  0.00  0.00    +0.013 SA
ATOM     17  O   UNL     1      -1.365  -2.115  -0.001  0.00  0.00    -0.409 OA
ENDBRANCH   3  12
TORSDOF 2
