REMARK  Name = ZINC39691968
REMARK  11 active torsions:
REMARK  status: ('A' for Active; 'I' for Inactive)
REMARK    1  A    between atoms: C_1  and  C_2
REMARK    2  A    between atoms: C_2  and  C_3
REMARK    3  A    between atoms: C_3  and  C_5
REMARK    4  A    between atoms: C_3  and  N_6
REMARK    5  A    between atoms: C_7  and  S_18
REMARK    6  A    between atoms: S_18  and  C_19
REMARK    7  A    between atoms: C_19  and  C_20
REMARK    8  A    between atoms: N_22  and  CA_23
REMARK    9  A    between atoms: CA_23  and  CB_25
REMARK   10  A    between atoms: CA_23  and  C_35
REMARK   11  A    between atoms: CB_25  and  CG_26
REMARK                            x       y       z     vdW  Elec       q    Type
REMARK                         _______ _______ _______ _____ _____    ______ ____
ROOT
ATOM      1  C   UNK A   0       5.441  -2.156   3.580  0.00  0.00    +0.224 C 
ATOM      2  O   UNK A   0       5.110  -2.186   4.747  0.00  0.00    -0.275 OA
ATOM      3  N   TRP A   1       6.440  -2.947   3.142  0.00  0.00    -0.301 N 
ATOM      4  H   TRP A   1       6.704  -2.923   2.209  0.00  0.00    +0.150 HD
ENDROOT
BRANCH   1   5
ATOM      5  C   UNK A   0       4.734  -1.233   2.621  0.00  0.00    +0.168 C 
BRANCH   5   6
ATOM      6  S   UNK A   0       3.450  -0.308   3.506  0.00  0.00    -0.110 S 
BRANCH   6   8
ATOM      7  N   UNK A   0       2.148  -0.104   1.172  0.00  0.00    -0.267 N 
ATOM      8  C   UNK A   0       2.704   0.741   2.228  0.00  0.00    +0.223 C 
ATOM      9  N   UNK A   0       3.731   1.634   1.678  0.00  0.00    -0.317 N 
ATOM     10  C   UNK A   0       4.653   1.118   0.775  0.00  0.00    +0.041 A 
ATOM     11  C   UNK A   0       5.930   1.641   0.658  0.00  0.00    +0.024 A 
ATOM     12  C   UNK A   0       6.809   1.101  -0.262  0.00  0.00    +0.002 A 
ATOM     13  C   UNK A   0       6.422   0.042  -1.068  0.00  0.00    +0.001 A 
ATOM     14  C   UNK A   0       5.155  -0.493  -0.961  0.00  0.00    +0.015 A 
ATOM     15  C   UNK A   0       4.261   0.038  -0.034  0.00  0.00    +0.058 A 
ATOM     16  C   UNK A   0       2.907  -0.519   0.138  0.00  0.00    +0.251 C 
ATOM     17  O   UNK A   0       2.477  -1.343  -0.647  0.00  0.00    -0.270 OA
ATOM     18  H   UNK A   0       3.765   2.568   1.940  0.00  0.00    +0.149 HD
BRANCH   7  19
ATOM     19  C   UNK A   0       0.742  -0.511   1.242  0.00  0.00    +0.076 C 
ATOM     20  C   UNK A   0       0.655  -2.037   1.299  0.00  0.00    +0.028 C 
BRANCH  19  22
ATOM     21  C   UNK A   0      -0.019   1.526   0.010  0.00  0.00    +0.006 C 
ATOM     22  C   UNK A   0       0.002  -0.004   0.002  0.00  0.00    +0.019 C 
ENDBRANCH  19  22
ENDBRANCH   7  19
ENDBRANCH   6   8
ENDBRANCH   5   6
ENDBRANCH   1   5
BRANCH   3  23
ATOM     23  CA  TRP A   1       7.126  -3.844   4.075  0.00  0.00    +0.191 C 
BRANCH  23  24
ATOM     24  C   TRP A   1       8.226  -3.091   4.779  0.00  0.00    +0.376 C 
ATOM     25  O   TRP A   1       8.551  -3.405   5.912  0.00  0.00    -0.244 OA
ATOM     26  OXT TRP A   1       8.790  -2.169   4.216  0.00  0.00    -0.244 OA
ENDBRANCH  23  24
BRANCH  23  27
ATOM     27  CB  TRP A   1       7.727  -5.021   3.303  0.00  0.00    +0.071 C 
BRANCH  27  28
ATOM     28  CG  TRP A   1       6.619  -5.845   2.700  0.00  0.00    -0.020 A 
ATOM     29  CD2 TRP A   1       5.947  -5.600   1.421  0.00  0.00    +0.003 A 
ATOM     30  CE3 TRP A   1       6.081  -4.631   0.425  0.00  0.00    +0.010 A 
ATOM     31  CZ3 TRP A   1       5.280  -4.681  -0.681  0.00  0.00    +0.001 A 
ATOM     32  CH2 TRP A   1       4.335  -5.687  -0.822  0.00  0.00    +0.002 A 
ATOM     33  CZ2 TRP A   1       4.186  -6.653   0.149  0.00  0.00    +0.026 A 
ATOM     34  CE2 TRP A   1       4.991  -6.622   1.283  0.00  0.00    +0.047 A 
ATOM     35  NE1 TRP A   1       5.085  -7.421   2.401  0.00  0.00    -0.360 N 
ATOM     36  CD1 TRP A   1       6.064  -6.946   3.231  0.00  0.00    +0.087 A 
ATOM     37  HE1 TRP A   1       4.541  -8.205   2.572  0.00  0.00    +0.165 HD
ENDBRANCH  27  28
ENDBRANCH  23  27
ENDBRANCH   3  23
TORSDOF 9
