REMARK  Name = ZINC66931111
REMARK  7 active torsions:
REMARK  status: ('A' for Active; 'I' for Inactive)
REMARK    1  A    between atoms: C_1  and  C_2
REMARK    2  A    between atoms: C_2  and  N_3
REMARK    3  A    between atoms: C_4  and  C_9
REMARK    4  A    between atoms: C_6  and  C_8
REMARK    5  A    between atoms: N_11  and  C_12
REMARK    6  A    between atoms: C_12  and  C_13
REMARK    7  A    between atoms: C_13  and  O_23
REMARK                            x       y       z     vdW  Elec       q    Type
REMARK                         _______ _______ _______ _____ _____    ______ ____
ROOT
ATOM      1  C   UNL     1       0.141  -0.367   4.170  0.00  0.00    +0.144 C 
ENDROOT
BRANCH   1   2
ATOM      2  C   UNL     1       1.569   0.183   4.194  0.00  0.00    +0.107 C 
ATOM      3  C   UNL     1       1.547   1.659   3.804  0.00  0.00    +0.041 C 
ATOM      4  C   UNL     1       2.944   2.244   4.043  0.00  0.00    +0.008 C 
ATOM      5  C   UNL     1       3.185   2.314   5.549  0.00  0.00    +0.035 C 
ATOM      6  C   UNL     1       2.891   0.985   6.195  0.00  0.00    -0.041 A 
ATOM      7  C   UNL     1       2.146   0.008   5.574  0.00  0.00    -0.011 A 
ATOM      8  C   UNL     1       1.906  -1.194   6.228  0.00  0.00    +0.007 A 
ATOM      9  C   UNL     1       2.411  -1.417   7.492  0.00  0.00    +0.000 A 
ATOM     10  C   UNL     1       3.163  -0.438   8.114  0.00  0.00    +0.000 A 
ATOM     11  C   UNL     1       3.400   0.758   7.467  0.00  0.00    +0.004 A 
BRANCH   2  12
ATOM     12  O   UNL     1       2.368  -0.540   3.254  0.00  0.00    -0.382 OA
ATOM     13  H   UNL     1       2.422  -1.489   3.432  0.00  0.00    +0.211 HD
ENDBRANCH   2  12
ENDBRANCH   1   2
BRANCH   1  16
ATOM     14  C   UNL     1      -1.640  -0.707   2.543  0.00  0.00    +0.262 C 
ATOM     15  O   UNL     1      -2.308  -1.217   3.422  0.00  0.00    -0.269 OA
ATOM     16  N   UNL     1      -0.422  -0.206   2.827  0.00  0.00    -0.307 N 
ATOM     17  H   UNL     1       0.082   0.263   2.143  0.00  0.00    +0.149 HD
BRANCH  14  19
ATOM     18  N   UNL     1      -1.495  -0.199   0.060  0.00  0.00    -0.259 N 
ATOM     19  C   UNL     1      -2.161  -0.639   1.168  0.00  0.00    +0.123 A 
ATOM     20  C   UNL     1      -3.424  -1.008   0.740  0.00  0.00    +0.057 A 
ATOM     21  C   UNL     1      -3.436  -0.760  -0.635  0.00  0.00    +0.061 A 
ATOM     22  N   UNL     1      -2.265  -0.277  -0.965  0.00  0.00    -0.176 NA
ATOM     23  C   UNL     1      -4.593  -0.999  -1.570  0.00  0.00    +0.067 C 
BRANCH  18  25
ATOM     24  C   UNL     1      -0.098   1.774   0.431  0.00  0.00    +0.029 C 
ATOM     25  C   UNL     1      -0.116   0.294   0.044  0.00  0.00    +0.141 C 
ENDBRANCH  18  25
ENDBRANCH  14  19
ENDBRANCH   1  16
TORSDOF 5
