REMARK  Name = ZINC25579803
REMARK  11 active torsions:
REMARK  status: ('A' for Active; 'I' for Inactive)
REMARK    1  A    between atoms: C_1  and  C_2
REMARK    2  A    between atoms: C_2  and  C_3
REMARK    3  A    between atoms: C_3  and  C_5
REMARK    4  A    between atoms: C_3  and  C_6
REMARK    5  A    between atoms: C_6  and  C_7
REMARK    6  A    between atoms: C_8  and  C_32
REMARK    7  A    between atoms: C_16  and  S_18
REMARK    8  A    between atoms: S_18  and  C_19
REMARK    9  A    between atoms: C_19  and  C_20
REMARK   10  A    between atoms: C_20  and  C_21
REMARK   11  A    between atoms: N_26  and  C_27
REMARK                            x       y       z     vdW  Elec       q    Type
REMARK                         _______ _______ _______ _____ _____    ______ ____
ROOT
ATOM      1  C   UNL     1      -1.331   4.022  14.090  0.00  0.00    -0.023 A 
ATOM      2  C   UNL     1      -1.685   5.210  13.579  0.00  0.00    -0.007 A 
ATOM      3  S   UNL     1      -1.628   4.938  11.819  0.00  0.00    -0.073 S 
ATOM      4  C   UNL     1      -1.130   3.235  11.819  0.00  0.00    +0.117 A 
ATOM      5  C   UNL     1      -1.021   2.926  13.188  0.00  0.00    +0.075 A 
ATOM      6  C   UNL     1      -0.625   1.586  13.495  0.00  0.00    +0.261 A 
ATOM      7  O   UNL     1      -0.505   1.227  14.653  0.00  0.00    -0.267 OA
ATOM      8  N   UNL     1      -0.391   0.725  12.487  0.00  0.00    -0.301 N 
ATOM      9  H   UNL     1      -0.094  -0.311  12.706  0.00  0.00    +0.171 HD
ATOM     10  C   UNL     1      -0.515   1.111  11.183  0.00  0.00    +0.170 A 
ATOM     11  N   UNL     1      -0.879   2.339  10.873  0.00  0.00    -0.216 NA
ATOM     12  C   UNL     1      -2.045   6.474  14.318  0.00  0.00    +0.052 C 
ENDROOT
BRANCH   1  13
ATOM     13  C   UNL     1      -1.254   3.826  15.582  0.00  0.00    +0.040 C 
BRANCH  13  14
ATOM     14  C   UNL     1      -2.613   3.355  16.105  0.00  0.00    -0.010 C 
ATOM     15  C   UNL     1      -2.929   1.973  15.531  0.00  0.00    +0.008 C 
BRANCH  14  17
ATOM     16  C   UNL     1      -3.965   2.926  18.162  0.00  0.00    +0.004 C 
ATOM     17  C   UNL     1      -2.572   3.276  17.632  0.00  0.00    +0.000 C 
ENDBRANCH  14  17
ENDBRANCH  13  14
ENDBRANCH   1  13
BRANCH  10  18
ATOM     18  S   UNL     1      -0.191  -0.051   9.899  0.00  0.00    -0.087 S 
BRANCH  18  19
ATOM     19  C   UNL     1      -0.513   0.985   8.450  0.00  0.00    +0.086 C 
BRANCH  19  20
ATOM     20  C   UNL     1      -0.289   0.166   7.177  0.00  0.00    +0.107 C 
BRANCH  20  21
ATOM     21  C   UNL     1      -0.557   1.028   5.971  0.00  0.00    +0.221 C 
ATOM     22  O   UNL     1      -0.894   2.184   6.115  0.00  0.00    -0.275 OA
ATOM     23  N   UNL     1      -0.423   0.515   4.732  0.00  0.00    -0.240 N 
ATOM     24  C   UNL     1      -0.663   1.286   3.653  0.00  0.00    +0.306 C 
ATOM     25  O   UNL     1      -1.000   2.444   3.797  0.00  0.00    -0.252 OA
ATOM     26  N   UNL     1      -0.528   0.772   2.414  0.00  0.00    -0.296 N 
ATOM     27  H   UNL     1      -0.117  -0.534   4.601  0.00  0.00    +0.159 HD
ATOM     28  H   UNL     1      -0.222  -0.276   2.284  0.00  0.00    +0.151 HD
BRANCH  26  29
ATOM     29  C   UNL     1      -0.789   1.611   1.242  0.00  0.00    +0.074 C 
ATOM     30  C   UNL     1      -0.013   1.086   0.008  0.00  0.00    +0.022 C 
ATOM     31  C   UNL     1      -0.809   1.622  -1.200  0.00  0.00    +0.002 C 
ATOM     32  C   UNL     1      -2.243   1.875  -0.703  0.00  0.00    +0.002 C 
ATOM     33  C   UNL     1      -2.268   1.485   0.789  0.00  0.00    +0.022 C 
ENDBRANCH  26  29
ENDBRANCH  20  21
ENDBRANCH  19  20
ENDBRANCH  18  19
ENDBRANCH  10  18
TORSDOF 8
