REMARK  Name = ZINC33809429
REMARK  6 active torsions:
REMARK  status: ('A' for Active; 'I' for Inactive)
REMARK    1  A    between atoms: C_4  and  C_7
REMARK    2  A    between atoms: C_7  and  C_9
REMARK    3  A    between atoms: C_14  and  N_15
REMARK    4  A    between atoms: C_16  and  C_18
REMARK    5  A    between atoms: C_21  and  C_23
REMARK    6  A    between atoms: C_26  and  N_29
REMARK                            x       y       z     vdW  Elec       q    Type
REMARK                         _______ _______ _______ _____ _____    ______ ____
ROOT
ATOM      1  N   UNL     1      -2.656   1.349  -0.029  0.00  0.00    -0.278 N 
ATOM      2  C   UNL     1      -2.831   0.013   0.021  0.00  0.00    +0.284 C 
ATOM      3  O   UNL     1      -1.866  -0.728  -0.011  0.00  0.00    -0.266 OA
ATOM      4  H   UNL     1      -3.529   2.016  -0.077  0.00  0.00    +0.155 HD
ENDROOT
BRANCH   1  10
ATOM      5  C   UNL     1      -1.122   3.111   0.615  0.00  0.00    +0.044 A 
ATOM      6  C   UNL     1       0.172   3.639   0.612  0.00  0.00    +0.028 A 
ATOM      7  C   UNL     1       1.193   2.952  -0.008  0.00  0.00    +0.019 A 
ATOM      8  C   UNL     1       0.944   1.736  -0.628  0.00  0.00    +0.017 A 
ATOM      9  C   UNL     1      -0.328   1.202  -0.633  0.00  0.00    +0.025 A 
ATOM     10  C   UNL     1      -1.371   1.883  -0.019  0.00  0.00    +0.045 A 
ATOM     11 BR   UNL     1       2.943   3.669  -0.011  0.00  0.00    -0.050 Br
BRANCH   5  12
ATOM     12  C   UNL     1      -2.220   3.841   1.275  0.00  0.00    +0.195 C 
ATOM     13  O   UNL     1      -2.707   4.818   0.741  0.00  0.00    -0.287 OA
BRANCH  12  17
ATOM     14  C   UNL     1      -3.681   2.528   5.041  0.00  0.00    +0.000 A 
ATOM     15  C   UNL     1      -4.312   3.568   4.382  0.00  0.00    +0.001 A 
ATOM     16  C   UNL     1      -3.842   4.000   3.159  0.00  0.00    +0.012 A 
ATOM     17  C   UNL     1      -2.728   3.384   2.585  0.00  0.00    +0.022 A 
ATOM     18  C   UNL     1      -2.099   2.331   3.253  0.00  0.00    +0.012 A 
ATOM     19  C   UNL     1      -2.576   1.913   4.478  0.00  0.00    +0.001 A 
ENDBRANCH  12  17
ENDBRANCH   5  12
ENDBRANCH   1  10
BRANCH   2  20
ATOM     20  C   UNL     1      -4.181  -0.545   0.115  0.00  0.00    +0.190 A 
ATOM     21  C   UNL     1      -4.501  -1.885   0.167  0.00  0.00    +0.055 A 
ATOM     22  C   UNL     1      -5.895  -1.964   0.253  0.00  0.00    +0.050 A 
ATOM     23  C   UNL     1      -6.371  -0.684   0.241  0.00  0.00    +0.136 A 
ATOM     24  O   UNL     1      -5.330   0.162   0.158  0.00  0.00    -0.450 OA
BRANCH  23  25
ATOM     25  C   UNL     1      -7.794  -0.294   0.309  0.00  0.00    +0.017 A 
ATOM     26  C   UNL     1      -8.786  -1.274   0.387  0.00  0.00    +0.014 A 
ATOM     27  C   UNL     1     -10.113  -0.903   0.455  0.00  0.00    +0.033 A 
ATOM     28  C   UNL     1     -10.462   0.436   0.435  0.00  0.00    +0.126 A 
ATOM     29  C   UNL     1      -9.484   1.412   0.351  0.00  0.00    +0.033 A 
ATOM     30  C   UNL     1      -8.153   1.055   0.288  0.00  0.00    +0.014 A 
BRANCH  28  31
ATOM     31  N   UNL     1     -11.888   0.827   0.502  0.00  0.00    +0.056 N 
ATOM     32  O   UNL     1     -12.199   2.005   0.484  0.00  0.00    -0.126 OA
ATOM     33  O   UNL     1     -12.751  -0.029   0.576  0.00  0.00    -0.126 OA
ENDBRANCH  28  31
ENDBRANCH  23  25
ENDBRANCH   2  20
TORSDOF 6
