REMARK  Name = ZINC08833306
REMARK  7 active torsions:
REMARK  status: ('A' for Active; 'I' for Inactive)
REMARK    1  A    between atoms: C_3  and  N_11
REMARK    2  A    between atoms: C_6  and  N_7
REMARK    3  A    between atoms: N_11  and  C_12
REMARK    4  A    between atoms: C_12  and  N_14
REMARK    5  A    between atoms: C_15  and  C_17
REMARK    6  A    between atoms: C_18  and  C_19
REMARK    7  A    between atoms: C_22  and  C_24
REMARK                            x       y       z     vdW  Elec       q    Type
REMARK                         _______ _______ _______ _____ _____    ______ ____
ROOT
ATOM      1  N   UNL     1      -0.000   0.909  -0.224  0.00  0.00    -0.264 N 
ATOM      2  C   UNL     1      -1.175   1.525  -0.463  0.00  0.00    +0.242 C 
ATOM      3  O   UNL     1      -1.200   2.720  -0.695  0.00  0.00    -0.270 OA
ATOM      4  H   UNL     1       0.019  -0.043  -0.039  0.00  0.00    +0.157 HD
ENDROOT
BRANCH   1   5
ATOM      5  C   UNL     1       1.148   1.615  -0.248  0.00  0.00    +0.141 C 
ATOM      6  S   UNL     1       1.113   3.295  -0.575  0.00  0.00    -0.018 S 
BRANCH   5   7
ATOM      7  N   UNL     1       2.323   0.998  -0.015  0.00  0.00    -0.295 N 
ATOM      8  H   UNL     1       2.338   0.059   0.232  0.00  0.00    +0.154 HD
BRANCH   7  11
ATOM      9  C   UNL     1       4.834   3.658   0.355  0.00  0.00    +0.034 A 
ATOM     10  C   UNL     1       3.649   2.957   0.469  0.00  0.00    +0.027 A 
ATOM     11  C   UNL     1       3.522   1.710  -0.128  0.00  0.00    +0.051 A 
ATOM     12  C   UNL     1       4.590   1.169  -0.833  0.00  0.00    +0.064 A 
ATOM     13  C   UNL     1       5.771   1.877  -0.947  0.00  0.00    +0.054 A 
ATOM     14  C   UNL     1       5.894   3.119  -0.351  0.00  0.00    +0.128 A 
ATOM     15 CL   UNL     1       4.439  -0.393  -1.576  0.00  0.00    -0.082 Cl
BRANCH  14  16
ATOM     16  N   UNL     1       7.162   3.873  -0.469  0.00  0.00    +0.056 N 
ATOM     17  O   UNL     1       7.271   4.967   0.055  0.00  0.00    -0.126 OA
ATOM     18  O   UNL     1       8.096   3.400  -1.092  0.00  0.00    -0.126 OA
ENDBRANCH  14  16
ENDBRANCH   7  11
ENDBRANCH   5   7
ENDBRANCH   1   5
BRANCH   2  19
ATOM     19  C   UNL     1      -2.378   0.784  -0.444  0.00  0.00    +0.071 C 
ATOM     20  C   UNL     1      -3.562   1.405  -0.685  0.00  0.00    +0.051 C 
BRANCH  20  21
ATOM     21  C   UNL     1      -4.766   0.664  -0.666  0.00  0.00    +0.129 A 
ATOM     22  C   UNL     1      -6.033   1.170  -0.887  0.00  0.00    +0.050 A 
ATOM     23  C   UNL     1      -6.921   0.098  -0.777  0.00  0.00    +0.050 A 
ATOM     24  C   UNL     1      -6.170  -1.018  -0.485  0.00  0.00    +0.136 A 
ATOM     25  O   UNL     1      -4.876  -0.659  -0.422  0.00  0.00    -0.455 OA
BRANCH  24  26
ATOM     26  C   UNL     1      -6.697  -2.381  -0.277  0.00  0.00    +0.020 A 
ATOM     27  C   UNL     1      -8.070  -2.624  -0.365  0.00  0.00    +0.031 A 
ATOM     28  C   UNL     1      -8.556  -3.902  -0.174  0.00  0.00    +0.043 A 
ATOM     29  C   UNL     1      -7.686  -4.940   0.115  0.00  0.00    +0.040 A 
ATOM     30  C   UNL     1      -6.325  -4.706   0.209  0.00  0.00    +0.043 A 
ATOM     31  C   UNL     1      -5.826  -3.433   0.015  0.00  0.00    +0.031 A 
ATOM     32 CL   UNL     1      -5.244  -6.014   0.573  0.00  0.00    -0.083 Cl
ATOM     33 CL   UNL     1     -10.261  -4.207  -0.289  0.00  0.00    -0.083 Cl
ENDBRANCH  24  26
ENDBRANCH  20  21
ENDBRANCH   2  19
TORSDOF 7
