REMARK  Name = ZINC20356287
REMARK  8 active torsions:
REMARK  status: ('A' for Active; 'I' for Inactive)
REMARK    1  A    between atoms: C_1  and  C_2
REMARK    2  A    between atoms: C_4  and  C_35
REMARK    3  A    between atoms: C_6  and  O_8
REMARK    4  A    between atoms: O_8  and  C_9
REMARK    5  A    between atoms: C_9  and  C_10
REMARK    6  A    between atoms: C_10  and  O_11
REMARK    7  A    between atoms: O_11  and  C_12
REMARK    8  A    between atoms: C_15  and  C_18
REMARK                            x       y       z     vdW  Elec       q    Type
REMARK                         _______ _______ _______ _____ _____    ______ ____
ROOT
ATOM      1  C   UNL     1       1.700  -4.650   5.847  0.00  0.00    +0.121 A 
ATOM      2  C   UNL     1       0.813  -4.626   6.919  0.00  0.00    +0.046 A 
ATOM      3  C   UNL     1       0.919  -5.552   7.918  0.00  0.00    +0.011 A 
ATOM      4  C   UNL     1       1.924  -6.528   7.861  0.00  0.00    -0.024 A 
ATOM      5  C   UNL     1       2.815  -6.548   6.778  0.00  0.00    +0.011 A 
ATOM      6  C   UNL     1       2.696  -5.620   5.783  0.00  0.00    +0.046 A 
ENDROOT
BRANCH   4   7
ATOM      7  C   UNL     1       2.043  -7.524   8.929  0.00  0.00    +0.024 C 
ATOM      8  C   UNL     1       0.916  -7.974   9.579  0.00  0.00    +0.081 C 
ATOM      9  C   UNL     1      -0.454  -7.620   9.112  0.00  0.00    +0.153 C 
ATOM     10  N   UNL     1      -0.760  -7.444   7.854  0.00  0.00    -0.283 NA
ATOM     11  N   UNL     1      -1.388  -7.493  10.161  0.00  0.00    -0.150 N 
ATOM     12  C   UNL     1      -1.116  -8.153  11.338  0.00  0.00    +0.182 C 
ATOM     13  N   UNL     1      -0.032  -8.822  11.647  0.00  0.00    -0.152 NA
ATOM     14  C   UNL     1       1.000  -8.844  10.779  0.00  0.00    +0.273 C 
ATOM     15  O   UNL     1       1.974  -9.553  10.974  0.00  0.00    -0.268 OA
ATOM     16  S   UNL     1      -2.578  -7.839  12.291  0.00  0.00    -0.018 S 
ATOM     17  C   UNL     1      -3.402  -6.777  11.114  0.00  0.00    +0.182 C 
ATOM     18  N   UNL     1      -2.561  -6.771  10.110  0.00  0.00    -0.149 NA
ATOM     19  N   UNL     1      -4.620  -6.126  11.232  0.00  0.00    -0.308 N 
ATOM     20  C   UNL     1      -5.237  -5.269  10.209  0.00  0.00    +0.107 C 
ATOM     21  C   UNL     1      -6.566  -4.746  10.791  0.00  0.00    +0.020 C 
ATOM     22  C   UNL     1      -6.353  -4.881  12.322  0.00  0.00    +0.020 C 
ATOM     23  C   UNL     1      -5.514  -6.183  12.403  0.00  0.00    +0.107 C 
ATOM     24  H   UNL     1      -1.669  -7.215   7.603  0.00  0.00    +0.188 HD
ENDBRANCH   4   7
BRANCH   1  25
ATOM     25  O   UNL     1       1.590  -3.728   4.858  0.00  0.00    -0.489 OA
BRANCH  25  26
ATOM     26  C   UNL     1       0.546  -2.761   4.986  0.00  0.00    +0.270 C 
BRANCH  26  27
ATOM     27  C   UNL     1       0.579  -1.813   3.786  0.00  0.00    +0.270 C 
BRANCH  27  28
ATOM     28  O   UNL     1       0.276  -2.542   2.595  0.00  0.00    -0.489 OA
BRANCH  28  34
ATOM     29  C   UNL     1       0.822   1.704   0.249  0.00  0.00    +0.044 C 
ATOM     30  C   UNL     1       0.524   0.226   0.247  0.00  0.00    -0.047 A 
ATOM     31  C   UNL     1       0.237  -0.418  -0.942  0.00  0.00    +0.007 A 
ATOM     32  C   UNL     1      -0.036  -1.774  -0.948  0.00  0.00    -0.047 A 
ATOM     33  C   UNL     1      -0.024  -2.487   0.235  0.00  0.00    +0.049 A 
ATOM     34  C   UNL     1       0.263  -1.842   1.429  0.00  0.00    +0.121 A 
ATOM     35  C   UNL     1       0.543  -0.483   1.432  0.00  0.00    +0.049 A 
ATOM     36  C   UNL     1      -0.348  -2.473  -2.246  0.00  0.00    +0.044 C 
ENDBRANCH  28  34
ENDBRANCH  27  28
ENDBRANCH  26  27
ENDBRANCH  25  26
ENDBRANCH   1  25
TORSDOF 6
