REMARK  Name = ZINC32999499
REMARK  3 active torsions:
REMARK  status: ('A' for Active; 'I' for Inactive)
REMARK    1  A    between atoms: C_6  and  C_7
REMARK    2  A    between atoms: N_9  and  N_10
REMARK    3  A    between atoms: N_10  and  C_11
REMARK                            x       y       z     vdW  Elec       q    Type
REMARK                         _______ _______ _______ _____ _____    ______ ____
ROOT
ATOM      1  C   UNL     1       5.076  -0.664   2.265  0.00  0.00    +0.260 C 
ATOM      2  O   UNL     1       5.817   0.300   2.264  0.00  0.00    -0.269 OA
ATOM      3  N   UNL     1       5.489  -1.831   2.796  0.00  0.00    -0.232 N 
ATOM      4  H   UNL     1       4.819  -2.703   2.797  0.00  0.00    +0.173 HD
ENDROOT
BRANCH   1  10
ATOM      5  C   UNL     1       2.871  -1.661   1.682  0.00  0.00    +0.017 A 
ATOM      6  C   UNL     1       1.609  -1.558   1.138  0.00  0.00    +0.050 A 
ATOM      7  C   UNL     1       1.181  -0.357   0.590  0.00  0.00    +0.166 A 
ATOM      8  C   UNL     1       2.028   0.753   0.588  0.00  0.00    +0.167 A 
ATOM      9  C   UNL     1       3.294   0.655   1.131  0.00  0.00    +0.062 A 
ATOM     10  C   UNL     1       3.724  -0.555   1.683  0.00  0.00    +0.042 A 
ATOM     11  O   UNL     1       1.376   1.797  -0.001  0.00  0.00    -0.453 OA
ATOM     12  C   UNL     1      -0.017   1.435   0.010  0.00  0.00    +0.466 C 
ATOM     13  O   UNL     1       0.002  -0.004   0.002  0.00  0.00    -0.453 OA
ENDBRANCH   1  10
BRANCH   3  14
ATOM     14  N   UNL     1       6.772  -1.935   3.349  0.00  0.00    -0.264 N 
ATOM     15  H   UNL     1       7.443  -1.062   3.349  0.00  0.00    +0.170 HD
BRANCH  14  16
ATOM     16  C   UNL     1       7.200  -3.145   3.900  0.00  0.00    +0.046 A 
ATOM     17  C   UNL     1       6.352  -4.245   3.906  0.00  0.00    +0.026 A 
ATOM     18  C   UNL     1       6.779  -5.442   4.447  0.00  0.00    +0.023 A 
ATOM     19  C   UNL     1       8.047  -5.544   4.993  0.00  0.00    +0.059 A 
ATOM     20  C   UNL     1       8.893  -4.447   4.993  0.00  0.00    +0.061 A 
ATOM     21  C   UNL     1       8.472  -3.249   4.448  0.00  0.00    +0.046 A 
ATOM     22 CL   UNL     1      10.482  -4.578   5.679  0.00  0.00    -0.082 Cl
ATOM     23 CL   UNL     1       8.578  -7.048   5.677  0.00  0.00    -0.082 Cl
ENDBRANCH  14  16
ENDBRANCH   3  14
TORSDOF 3
