REMARK  Name = ZINC35554769
REMARK  9 active torsions:
REMARK  status: ('A' for Active; 'I' for Inactive)
REMARK    1  A    between atoms: C_1  and  C_2
REMARK    2  A    between atoms: C_2  and  C_3
REMARK    3  A    between atoms: C_2  and  N_4
REMARK    4  A    between atoms: C_5  and  C_7
REMARK    5  A    between atoms: C_7  and  N_8
REMARK    6  A    between atoms: C_19  and  C_24
REMARK    7  A    between atoms: N_26  and  C_27
REMARK    8  A    between atoms: C_27  and  C_28
REMARK    9  A    between atoms: C_28  and  C_29
REMARK                            x       y       z     vdW  Elec       q    Type
REMARK                         _______ _______ _______ _____ _____    ______ ____
ROOT
ATOM      1  N   UNL     1      -3.979  -1.213  -2.509  0.00  0.00    +0.388 N 
ATOM      2  C   UNL     1      -4.086   0.153  -3.044  0.00  0.00    -0.059 C 
ATOM      3  C   UNL     1      -4.408   0.065  -4.534  0.00  0.00    +0.087 C 
ATOM      4  N   UNL     1      -5.577  -0.789  -4.757  0.00  0.00    -0.329 N 
ATOM      5  C   UNL     1      -6.406  -0.478  -5.847  0.00  0.00    +0.033 A 
ATOM      6  C   UNL     1      -6.053   0.587  -6.670  0.00  0.00    +0.023 A 
ATOM      7  C   UNL     1      -6.845   0.915  -7.752  0.00  0.00    +0.002 A 
ATOM      8  C   UNL     1      -7.990   0.185  -8.018  0.00  0.00    +0.000 A 
ATOM      9  C   UNL     1      -8.343  -0.872  -7.200  0.00  0.00    +0.005 A 
ATOM     10  C   UNL     1      -7.554  -1.203  -6.112  0.00  0.00    -0.026 A 
ATOM     11  C   UNL     1      -7.966  -2.350  -5.226  0.00  0.00    +0.051 C 
ATOM     12  C   UNL     1      -7.391  -2.141  -3.826  0.00  0.00    +0.098 C 
ATOM     13  C   UNL     1      -5.875  -1.941  -3.920  0.00  0.00    +0.069 C 
ATOM     14  C   UNL     1      -5.305  -1.829  -2.514  0.00  0.00    -0.055 C 
ATOM     15  H   UNL     1      -3.352  -1.755  -3.085  0.00  0.00    -0.081 HD
ENDROOT
BRANCH  12  16
ATOM     16  C   UNL     1      -8.021  -0.922  -3.201  0.00  0.00    +0.218 C 
ATOM     17  O   UNL     1      -7.327   0.013  -2.865  0.00  0.00    -0.275 OA
ATOM     18  N   UNL     1      -9.355  -0.873  -3.017  0.00  0.00    -0.315 N 
ATOM     19  H   UNL     1      -9.910  -1.621  -3.286  0.00  0.00    +0.149 HD
BRANCH  18  20
ATOM     20  C   UNL     1      -9.967   0.312  -2.409  0.00  0.00    +0.109 C 
BRANCH  20  21
ATOM     21  C   UNL     1     -11.481   0.112  -2.315  0.00  0.00    +0.061 C 
BRANCH  21  22
ATOM     22  C   UNL     1     -12.110   1.330  -1.691  0.00  0.00    -0.009 A 
ATOM     23  C   UNL     1     -12.588   2.447  -2.292  0.00  0.00    +0.011 A 
ATOM     24  C   UNL     1     -13.130   3.450  -1.510  0.00  0.00    +0.008 A 
ATOM     25  C   UNL     1     -13.167   3.287  -0.164  0.00  0.00    +0.045 A 
ATOM     26  S   UNL     1     -12.428   1.674   0.032  0.00  0.00    -0.102 S 
ENDBRANCH  21  22
ENDBRANCH  20  21
ENDBRANCH  18  20
ENDBRANCH  12  16
BRANCH   1  27
ATOM     27  C   UNL     1      -3.465  -1.164  -1.134  0.00  0.00    +0.019 C 
BRANCH  27  29
ATOM     28  N   UNL     1      -1.372  -0.511   0.012  0.00  0.00    -0.315 N 
ATOM     29  C   UNL     1      -2.051  -0.643  -1.145  0.00  0.00    +0.197 C 
ATOM     30  O   UNL     1      -1.524  -0.341  -2.194  0.00  0.00    -0.278 OA
ATOM     31  H   UNL     1      -1.794  -0.752   0.852  0.00  0.00    +0.149 HD
BRANCH  28  33
ATOM     32  C   UNL     1      -0.019   1.526   0.010  0.00  0.00    +0.027 C 
ATOM     33  C   UNL     1       0.002  -0.004   0.002  0.00  0.00    +0.067 C 
ATOM     34  C   UNL     1       0.742  -0.511   1.242  0.00  0.00    +0.027 C 
ENDBRANCH  28  33
ENDBRANCH  27  29
ENDBRANCH   1  27
TORSDOF 7
