REMARK  Name = ZINC04171949
REMARK  8 active torsions:
REMARK  status: ('A' for Active; 'I' for Inactive)
REMARK    1  A    between atoms: C_1  and  C_2
REMARK    2  A    between atoms: C_2  and  C_36
REMARK    3  A    between atoms: C_6  and  C_16
REMARK    4  A    between atoms: C_19  and  O_31
REMARK    5  A    between atoms: C_20  and  C_22
REMARK    6  A    between atoms: C_22  and  N_23
REMARK    7  A    between atoms: C_25  and  N_28
REMARK    8  A    between atoms: O_31  and  C_32
REMARK                            x       y       z     vdW  Elec       q    Type
REMARK                         _______ _______ _______ _____ _____    ______ ____
ROOT
ATOM      1  C   UNL     1      -0.691  -3.541   5.077  0.00  0.00    +0.011 C 
ATOM      2  C   UNL     1      -0.568  -3.690   6.595  0.00  0.00    -0.023 C 
ATOM      3  C   UNL     1       0.906  -3.747   6.992  0.00  0.00    +0.058 C 
ATOM      4  C   UNL     1       1.610  -2.471   6.562  0.00  0.00    +0.017 C 
ATOM      5  C   UNL     1       0.950  -1.304   6.531  0.00  0.00    +0.036 C 
ATOM      6  C   UNL     1       1.526   0.035   6.140  0.00  0.00    +0.136 C 
ATOM      7  N   UNL     1       2.969   0.056   6.025  0.00  0.00    -0.331 N 
ATOM      8  C   UNL     1       3.622  -0.698   5.051  0.00  0.00    +0.049 A 
ATOM      9  C   UNL     1       4.337  -0.097   4.028  0.00  0.00    +0.025 A 
ATOM     10  C   UNL     1       4.928  -0.886   3.057  0.00  0.00    +0.002 A 
ATOM     11  C   UNL     1       4.806  -2.263   3.104  0.00  0.00    +0.002 A 
ATOM     12  C   UNL     1       4.107  -2.868   4.136  0.00  0.00    +0.025 A 
ATOM     13  C   UNL     1       3.534  -2.080   5.119  0.00  0.00    +0.052 A 
ATOM     14  N   UNL     1       2.920  -2.623   6.241  0.00  0.00    -0.316 N 
ATOM     15  C   UNL     1      -0.421  -1.250   6.890  0.00  0.00    +0.163 C 
ATOM     16  O   UNL     1      -0.992  -0.177   6.873  0.00  0.00    -0.292 OA
ATOM     17  C   UNL     1      -1.192  -2.473   7.289  0.00  0.00    +0.086 C 
ATOM     18  C   UNL     1      -1.278  -4.966   7.051  0.00  0.00    +0.011 C 
ATOM     19  H   UNL     1       3.566   0.674   6.712  0.00  0.00    +0.147 HD
ATOM     20  H   UNL     1       3.580  -3.214   6.893  0.00  0.00    +0.152 HD
ENDROOT
BRANCH   6  21
ATOM     21  C   UNL     1       0.935   0.440   4.814  0.00  0.00    -0.022 A 
ATOM     22  C   UNL     1       1.218  -0.297   3.679  0.00  0.00    +0.009 A 
ATOM     23  C   UNL     1       0.678   0.071   2.462  0.00  0.00    +0.046 A 
ATOM     24  C   UNL     1      -0.149   1.182   2.380  0.00  0.00    +0.125 A 
ATOM     25  C   UNL     1      -0.426   1.923   3.519  0.00  0.00    +0.016 A 
ATOM     26  C   UNL     1       0.112   1.547   4.734  0.00  0.00    +0.014 A 
BRANCH  24  27
ATOM     27  O   UNL     1      -0.682   1.547   1.184  0.00  0.00    -0.495 OA
ATOM     28  C   UNL     1      -0.348   0.741   0.052  0.00  0.00    +0.277 C 
ENDBRANCH  24  27
BRANCH  25  29
ATOM     29  C   UNL     1      -1.319   3.135   3.432  0.00  0.00    +0.182 C 
BRANCH  29  30
ATOM     30  N   UNL     1      -0.549   4.273   2.923  0.00  0.00    -0.265 N 
ATOM     31  C   UNL     1      -0.861   5.024   1.846  0.00  0.00    +0.141 A 
ATOM     32  C   UNL     1       0.095   5.972   1.714  0.00  0.00    +0.163 A 
ATOM     33  C   UNL     1       1.028   5.788   2.740  0.00  0.00    +0.167 A 
ATOM     34  N   UNL     1       0.643   4.770   3.465  0.00  0.00    -0.177 NA
BRANCH  32  35
ATOM     35  N   UNL     1       0.148   7.016   0.665  0.00  0.00    +0.059 N 
ATOM     36  O   UNL     1       1.067   7.814   0.647  0.00  0.00    -0.126 OA
ATOM     37  O   UNL     1      -0.728   7.076  -0.178  0.00  0.00    -0.126 OA
ENDBRANCH  32  35
ENDBRANCH  29  30
ENDBRANCH  25  29
ENDBRANCH   6  21
TORSDOF 5
