REMARK  Name = ZINC19830853
REMARK  6 active torsions:
REMARK  status: ('A' for Active; 'I' for Inactive)
REMARK    1  A    between atoms: C_1  and  C_2
REMARK    2  A    between atoms: C_3  and  C_30
REMARK    3  A    between atoms: C_4  and  C_23
REMARK    4  A    between atoms: C_10  and  C_15
REMARK    5  A    between atoms: C_18  and  O_21
REMARK    6  A    between atoms: O_21  and  C_22
REMARK                            x       y       z     vdW  Elec       q    Type
REMARK                         _______ _______ _______ _____ _____    ______ ____
ROOT
ATOM      1  C   UNL     1       1.043  -3.847  -2.827  0.00  0.00    +0.061 C 
ATOM      2  C   UNL     1       1.242  -2.372  -2.588  0.00  0.00    +0.019 C 
ATOM      3  C   UNL     1       2.260  -1.732  -3.184  0.00  0.00    +0.058 C 
ATOM      4  C   UNL     1       2.487  -0.264  -2.975  0.00  0.00    +0.096 C 
ATOM      5  C   UNL     1       1.751   0.230  -1.755  0.00  0.00    +0.024 C 
ATOM      6  C   UNL     1       0.746  -0.494  -1.216  0.00  0.00    +0.016 C 
ATOM      7  N   UNL     1       0.383  -1.693  -1.764  0.00  0.00    -0.320 N 
ATOM      8  C   UNL     1       0.002  -0.004   0.002  0.00  0.00    +0.059 C 
ATOM      9  C   UNL     1      -0.019   1.526   0.010  0.00  0.00    +0.032 C 
ATOM     10  C   UNL     1       1.428   2.031  -0.001  0.00  0.00    +0.088 C 
ATOM     11  C   UNL     1       2.136   1.462  -1.200  0.00  0.00    +0.162 C 
ATOM     12  O   UNL     1       3.057   2.079  -1.698  0.00  0.00    -0.292 OA
ATOM     13  H   UNL     1      -0.609  -2.112  -1.538  0.00  0.00    +0.152 HD
ENDROOT
BRANCH   4  14
ATOM     14  C   UNL     1       1.999   0.489  -4.186  0.00  0.00    -0.032 A 
ATOM     15  C   UNL     1       2.885   1.241  -4.935  0.00  0.00    +0.005 A 
ATOM     16  C   UNL     1       2.439   1.932  -6.046  0.00  0.00    +0.003 A 
ATOM     17  C   UNL     1       1.107   1.871  -6.409  0.00  0.00    +0.038 A 
ATOM     18  C   UNL     1       0.219   1.119  -5.659  0.00  0.00    +0.124 A 
ATOM     19  C   UNL     1       0.668   0.423  -4.550  0.00  0.00    +0.043 A 
ATOM     20  F   UNL     1      -1.084   1.059  -6.013  0.00  0.00    -0.205 F 
ENDBRANCH   4  14
BRANCH   9  21
ATOM     21  C   UNL     1      -0.717   2.016   1.253  0.00  0.00    -0.043 A 
ATOM     22  C   UNL     1      -0.224   1.679   2.500  0.00  0.00    +0.007 A 
ATOM     23  C   UNL     1      -0.859   2.132   3.640  0.00  0.00    +0.046 A 
ATOM     24  C   UNL     1      -1.999   2.916   3.533  0.00  0.00    +0.120 A 
ATOM     25  C   UNL     1      -2.494   3.248   2.281  0.00  0.00    +0.046 A 
ATOM     26  C   UNL     1      -1.852   2.798   1.144  0.00  0.00    +0.007 A 
BRANCH  24  27
ATOM     27  O   UNL     1      -2.629   3.357   4.654  0.00  0.00    -0.495 OA
ATOM     28  C   UNL     1      -2.062   2.976   5.909  0.00  0.00    +0.277 C 
ENDBRANCH  24  27
ENDBRANCH   9  21
BRANCH   3  29
ATOM     29  C   UNL     1       3.147  -2.465  -4.038  0.00  0.00    +0.097 C 
ATOM     30  N   UNL     1       3.850  -3.046  -4.715  0.00  0.00    -0.191 NA
ENDBRANCH   3  29
TORSDOF 4
