REMARK  Name = ZINC43236977
REMARK  6 active torsions:
REMARK  status: ('A' for Active; 'I' for Inactive)
REMARK    1  A    between atoms: C_1  and  C_2
REMARK    2  A    between atoms: C_2  and  C_4
REMARK    3  A    between atoms: C_2  and  N_14
REMARK    4  A    between atoms: N_17  and  N_18
REMARK    5  A    between atoms: N_18  and  C_19
REMARK    6  A    between atoms: C_19  and  C_26
REMARK                            x       y       z     vdW  Elec       q    Type
REMARK                         _______ _______ _______ _____ _____    ______ ____
ROOT
ATOM      1  N   UNL     1       0.764  -0.483  -1.154  0.00  0.00    -0.292 N 
ATOM      2  C   UNL     1       2.096  -0.661  -1.056  0.00  0.00    +0.314 C 
ATOM      3  O   UNL     1       2.666  -0.423  -0.009  0.00  0.00    -0.252 OA
ATOM      4  N   UNL     1       2.797  -1.102  -2.119  0.00  0.00    -0.234 N 
ATOM      5  H   UNL     1       0.309  -0.673  -1.989  0.00  0.00    +0.151 HD
ATOM      6  H   UNL     1       3.756  -1.230  -2.049  0.00  0.00    +0.171 HD
ENDROOT
BRANCH   1   8
ATOM      7  C   UNL     1       0.007   1.526   0.017  0.00  0.00    +0.033 C 
ATOM      8  C   UNL     1       0.002  -0.004   0.002  0.00  0.00    +0.102 C 
BRANCH   8   9
ATOM      9  C   UNL     1      -1.418  -0.500  -0.091  0.00  0.00    -0.020 A 
ATOM     10  C   UNL     1      -1.970  -0.769  -1.306  0.00  0.00    +0.006 A 
ATOM     11  C   UNL     1      -3.281  -1.229  -1.412  0.00  0.00    +0.001 A 
ATOM     12  C   UNL     1      -4.048  -1.422  -0.304  0.00  0.00    +0.008 A 
ATOM     13  C   UNL     1      -3.512  -1.155   0.967  0.00  0.00    -0.018 A 
ATOM     14  C   UNL     1      -2.176  -0.694   1.075  0.00  0.00    -0.013 A 
ATOM     15  C   UNL     1      -1.639  -0.432   2.348  0.00  0.00    +0.009 A 
ATOM     16  C   UNL     1      -2.404  -0.631   3.455  0.00  0.00    +0.001 A 
ATOM     17  C   UNL     1      -3.715  -1.091   3.349  0.00  0.00    +0.001 A 
ATOM     18  C   UNL     1      -4.273  -1.342   2.134  0.00  0.00    +0.008 A 
ENDBRANCH   8   9
ENDBRANCH   1   8
BRANCH   4  19
ATOM     19  N   UNL     1       2.157  -1.369  -3.296  0.00  0.00    -0.232 NA
ATOM     20  H   UNL     1       1.414  -2.038  -3.160  0.00  0.00    +0.145 HD
BRANCH  19  21
ATOM     21  C   UNL     1       3.105  -1.836  -4.317  0.00  0.00    +0.054 C 
ATOM     22  C   UNL     1       3.850  -3.054  -3.773  0.00  0.00    +0.047 C 
ATOM     23  C   UNL     1       3.090  -4.359  -4.140  0.00  0.00    +0.168 C 
ATOM     24  S   UNL     1       2.557  -3.932  -5.856  0.00  0.00    -0.029 S 
ATOM     25  O   UNL     1       3.638  -4.154  -6.750  0.00  0.00    -0.174 OA
ATOM     26  O   UNL     1       1.295  -4.532  -6.116  0.00  0.00    -0.174 OA
ATOM     27  C   UNL     1       2.329  -2.120  -5.618  0.00  0.00    +0.189 C 
ATOM     28  C   UNL     1       4.121  -0.723  -4.585  0.00  0.00    +0.031 C 
ENDBRANCH  19  21
ENDBRANCH   4  19
TORSDOF 4
