REMARK  Name = ZINC59503653
REMARK  9 active torsions:
REMARK  status: ('A' for Active; 'I' for Inactive)
REMARK    1  A    between atoms: C_1  and  C_2
REMARK    2  A    between atoms: C_2  and  N_3
REMARK    3  A    between atoms: N_3  and  N_4
REMARK    4  A    between atoms: C_5  and  C_7
REMARK    5  A    between atoms: C_10  and  C_11
REMARK    6  A    between atoms: C_10  and  C_17
REMARK    7  A    between atoms: C_23  and  C_24
REMARK    8  A    between atoms: N_26  and  C_27
REMARK    9  A    between atoms: C_30  and  N_33
REMARK                            x       y       z     vdW  Elec       q    Type
REMARK                         _______ _______ _______ _____ _____    ______ ____
ROOT
ATOM      1  N   UNL     1      -0.095   1.328  -2.995  0.00  0.00    -0.237 N 
ATOM      2  C   UNL     1       0.371   1.338  -4.260  0.00  0.00    +0.233 C 
ATOM      3  O   UNL     1       1.565   1.386  -4.465  0.00  0.00    -0.274 OA
ATOM      4  H   UNL     1      -1.050   1.290  -2.830  0.00  0.00    +0.173 HD
ENDROOT
BRANCH   2   5
ATOM      5  C   UNL     1      -0.592   1.291  -5.418  0.00  0.00    +0.092 C 
ATOM      6  C   UNL     1      -0.491   0.099  -6.372  0.00  0.00    +0.031 C 
ATOM      7  C   UNL     1      -0.017   1.483  -6.823  0.00  0.00    +0.033 C 
BRANCH   7   8
ATOM      8  C   UNL     1       1.469   1.706  -6.942  0.00  0.00    -0.036 A 
ATOM      9  C   UNL     1       2.283   0.693  -7.413  0.00  0.00    +0.004 A 
ATOM     10  C   UNL     1       3.646   0.897  -7.523  0.00  0.00    +0.000 A 
ATOM     11  C   UNL     1       4.194   2.113  -7.162  0.00  0.00    +0.000 A 
ATOM     12  C   UNL     1       3.379   3.126  -6.692  0.00  0.00    +0.000 A 
ATOM     13  C   UNL     1       2.016   2.924  -6.586  0.00  0.00    +0.004 A 
ENDBRANCH   7   8
BRANCH   7  14
ATOM     14  C   UNL     1      -0.867   2.216  -7.828  0.00  0.00    -0.036 A 
ATOM     15  C   UNL     1      -2.053   2.806  -7.431  0.00  0.00    +0.004 A 
ATOM     16  C   UNL     1      -2.833   3.479  -8.354  0.00  0.00    +0.000 A 
ATOM     17  C   UNL     1      -2.426   3.562  -9.672  0.00  0.00    +0.000 A 
ATOM     18  C   UNL     1      -1.240   2.973 -10.069  0.00  0.00    +0.000 A 
ATOM     19  C   UNL     1      -0.459   2.304  -9.146  0.00  0.00    +0.004 A 
ENDBRANCH   7  14
ENDBRANCH   2   5
BRANCH   1  20
ATOM     20  N   UNL     1       0.800   1.372  -1.918  0.00  0.00    -0.269 N 
ATOM     21  H   UNL     1       1.755   1.410  -2.083  0.00  0.00    +0.170 HD
BRANCH  20  23
ATOM     22  C   UNL     1       1.290   1.409   0.523  0.00  0.00    +0.062 C 
ATOM     23  C   UNL     1       0.327   1.361  -0.636  0.00  0.00    +0.024 C 
ATOM     24  C   UNL     1      -1.002   1.308  -0.407  0.00  0.00    +0.087 C 
BRANCH  24  25
ATOM     25  C   UNL     1      -1.485   1.086   0.903  0.00  0.00    +0.243 C 
ATOM     26  O   UNL     1      -0.707   0.830   1.804  0.00  0.00    -0.270 OA
ATOM     27  N   UNL     1      -2.807   1.160   1.155  0.00  0.00    -0.282 N 
ATOM     28  H   UNL     1      -3.434   1.275   0.424  0.00  0.00    +0.155 HD
BRANCH  27  29
ATOM     29  C   UNL     1      -3.274   1.070   2.470  0.00  0.00    +0.034 A 
ATOM     30  C   UNL     1      -2.506   1.563   3.517  0.00  0.00    +0.025 A 
ATOM     31  C   UNL     1      -2.970   1.472   4.815  0.00  0.00    +0.034 A 
ATOM     32  C   UNL     1      -4.199   0.892   5.072  0.00  0.00    +0.126 A 
ATOM     33  C   UNL     1      -4.966   0.400   4.032  0.00  0.00    +0.034 A 
ATOM     34  C   UNL     1      -4.510   0.492   2.732  0.00  0.00    +0.025 A 
BRANCH  32  35
ATOM     35  N   UNL     1      -4.693   0.796   6.464  0.00  0.00    +0.056 N 
ATOM     36  O   UNL     1      -4.024   1.226   7.374  0.00  0.00    -0.126 OA
ATOM     37  O   UNL     1      -5.767   0.289   6.691  0.00  0.00    -0.126 OA
ENDBRANCH  32  35
ENDBRANCH  27  29
ENDBRANCH  24  25
ENDBRANCH  20  23
ENDBRANCH   1  20
TORSDOF 8
