REMARK  Name = ZINC39756987
REMARK  11 active torsions:
REMARK  status: ('A' for Active; 'I' for Inactive)
REMARK    1  A    between atoms: C_1  and  C_2
REMARK    2  A    between atoms: C_2  and  C_4
REMARK    3  A    between atoms: C_2  and  S_15
REMARK    4  A    between atoms: C_10  and  C_12
REMARK    5  A    between atoms: S_15  and  C_16
REMARK    6  A    between atoms: C_19  and  C_22
REMARK    7  A    between atoms: N_20  and  C_21
REMARK    8  A    between atoms: C_25  and  C_28
REMARK    9  A    between atoms: C_28  and  C_29
REMARK   10  A    between atoms: C_28  and  C_30
REMARK   11  A    between atoms: C_28  and  C_31
REMARK                            x       y       z     vdW  Elec       q    Type
REMARK                         _______ _______ _______ _____ _____    ______ ____
ROOT
ATOM      1  C   UNL     1      -2.351  -0.183  -1.568  0.00  0.00    +0.192 A 
ATOM      2  N   UNL     1      -1.761   0.659  -2.387  0.00  0.00    -0.122 NA
ATOM      3  N   UNL     1      -2.546   0.948  -3.363  0.00  0.00    -0.128 NA
ATOM      4  C   UNL     1      -3.684   0.309  -3.227  0.00  0.00    +0.165 A 
ATOM      5  N   UNL     1      -3.592  -0.440  -2.077  0.00  0.00    -0.305 N 
ATOM      6  C   UNL     1      -4.614  -1.326  -1.513  0.00  0.00    +0.153 C 
ENDROOT
BRANCH   4   7
ATOM      7  C   UNL     1      -4.844   0.376  -4.141  0.00  0.00    +0.019 A 
ATOM      8  C   UNL     1      -6.104  -0.036  -3.706  0.00  0.00    +0.012 A 
ATOM      9  C   UNL     1      -7.182   0.029  -4.564  0.00  0.00    +0.005 A 
ATOM     10  C   UNL     1      -7.016   0.502  -5.854  0.00  0.00    -0.042 A 
ATOM     11  C   UNL     1      -5.769   0.911  -6.292  0.00  0.00    +0.005 A 
ATOM     12  C   UNL     1      -4.684   0.857  -5.442  0.00  0.00    +0.012 A 
BRANCH  10  13
ATOM     13  C   UNL     1      -8.199   0.571  -6.786  0.00  0.00    -0.013 C 
ATOM     14  C   UNL     1      -9.266   1.489  -6.188  0.00  0.00    +0.015 C 
ATOM     15  C   UNL     1      -7.750   1.125  -8.139  0.00  0.00    +0.015 C 
ATOM     16  C   UNL     1      -8.780  -0.831  -6.976  0.00  0.00    +0.015 C 
ENDBRANCH  10  13
ENDBRANCH   4   7
BRANCH   1  17
ATOM     17  S   UNL     1      -1.665  -0.861  -0.093  0.00  0.00    -0.074 S 
BRANCH  17  19
ATOM     18  C   UNL     1      -0.141   1.392   0.198  0.00  0.00    +0.029 C 
ATOM     19  C   UNL     1      -0.012  -0.120   0.003  0.00  0.00    +0.137 C 
BRANCH  19  20
ATOM     20  C   UNL     1       0.738  -0.714   1.167  0.00  0.00    +0.232 C 
ATOM     21  O   UNL     1       0.132  -1.260   2.064  0.00  0.00    -0.274 OA
ATOM     22  N   UNL     1       2.083  -0.639   1.211  0.00  0.00    -0.262 N 
ATOM     23  C   UNL     1       2.775  -1.187   2.285  0.00  0.00    +0.188 A 
ATOM     24  N   UNL     1       2.305  -1.819   3.342  0.00  0.00    -0.126 NA
ATOM     25  N   UNL     1       3.066  -2.267   4.247  0.00  0.00    -0.144 NA
ATOM     26  C   UNL     1       4.368  -2.097   4.131  0.00  0.00    +0.107 A 
ATOM     27  S   UNL     1       4.436  -1.224   2.573  0.00  0.00    -0.035 S 
ATOM     28  H   UNL     1       2.568  -0.202   0.494  0.00  0.00    +0.157 HD
BRANCH  26  29
ATOM     29  C   UNL     1       5.483  -2.524   5.049  0.00  0.00    +0.047 C 
ATOM     30  C   UNL     1       5.123  -3.445   6.218  0.00  0.00    +0.011 C 
ATOM     31  C   UNL     1       5.470  -1.977   6.478  0.00  0.00    +0.011 C 
ENDBRANCH  26  29
ENDBRANCH  19  20
ENDBRANCH  17  19
ENDBRANCH   1  17
TORSDOF 6
