REMARK  Name = ZINC25598378
REMARK  5 active torsions:
REMARK  status: ('A' for Active; 'I' for Inactive)
REMARK    1  A    between atoms: N_13  and  C_17
REMARK    2  A    between atoms: C_17  and  C_18
REMARK    3  A    between atoms: N_20  and  C_21
REMARK    4  A    between atoms: C_21  and  C_22
REMARK    5  A    between atoms: C_25  and  C_27
REMARK                            x       y       z     vdW  Elec       q    Type
REMARK                         _______ _______ _______ _____ _____    ______ ____
ROOT
ATOM      1  C   UNL     1       6.420   0.467  -2.338  0.00  0.00    +0.213 C 
ENDROOT
BRANCH   1  14
ATOM      2  C   UNL     1      -0.017   1.375   0.010  0.00  0.00    +0.000 A 
ATOM      3  C   UNL     1       1.174   2.078   0.002  0.00  0.00    +0.000 A 
ATOM      4  C   UNL     1       2.373   1.395  -0.016  0.00  0.00    +0.006 A 
ATOM      5  C   UNL     1       2.394   0.006  -0.026  0.00  0.00    -0.012 A 
ATOM      6  C   UNL     1       1.207  -0.694  -0.013  0.00  0.00    -0.042 A 
ATOM      7  C   UNL     1       0.002  -0.004   0.002  0.00  0.00    +0.004 A 
ATOM      8  C   UNL     1       1.157  -2.199  -0.006  0.00  0.00    +0.035 C 
ATOM      9  C   UNL     1       2.490  -2.786  -0.467  0.00  0.00    +0.008 C 
ATOM     10  C   UNL     1       3.614  -2.143   0.354  0.00  0.00    +0.040 C 
ATOM     11  C   UNL     1       3.731  -0.680  -0.054  0.00  0.00    +0.138 C 
ATOM     12  C   UNL     1       4.347  -0.566  -1.430  0.00  0.00    +0.251 C 
ATOM     13  O   UNL     1       3.905  -1.003  -2.470  0.00  0.00    -0.272 OA
ATOM     14  N   UNL     1       5.493   0.123  -1.256  0.00  0.00    -0.215 N 
ATOM     15  C   UNL     1       5.679   0.456   0.027  0.00  0.00    +0.310 C 
ATOM     16  O   UNL     1       6.641   1.080   0.431  0.00  0.00    -0.252 OA
ATOM     17  N   UNL     1       4.682   0.021   0.820  0.00  0.00    -0.281 N 
ATOM     18  H   UNL     1       4.484   0.097   1.899  0.00  0.00    +0.152 HD
ENDBRANCH   1  14
BRANCH   1  19
ATOM     19  C   UNL     1       6.037   1.802  -2.922  0.00  0.00    +0.231 C 
ATOM     20  O   UNL     1       5.084   2.407  -2.479  0.00  0.00    -0.274 OA
ATOM     21  N   UNL     1       6.753   2.324  -3.938  0.00  0.00    -0.307 N 
ATOM     22  H   UNL     1       7.617   1.774  -4.340  0.00  0.00    +0.149 HD
BRANCH  21  23
ATOM     23  C   UNL     1       6.381   3.622  -4.506  0.00  0.00    +0.178 C 
BRANCH  23  24
ATOM     24  C   UNL     1       7.334   3.975  -5.619  0.00  0.00    +0.123 A 
ATOM     25  C   UNL     1       7.179   3.652  -6.918  0.00  0.00    +0.047 A 
ATOM     26  C   UNL     1       8.290   4.176  -7.609  0.00  0.00    +0.050 A 
ATOM     27  C   UNL     1       9.074   4.789  -6.683  0.00  0.00    +0.135 A 
ATOM     28  O   UNL     1       8.482   4.659  -5.480  0.00  0.00    -0.458 OA
BRANCH  27  29
ATOM     29  C   UNL     1      10.354   5.478  -6.949  0.00  0.00    +0.017 A 
ATOM     30  C   UNL     1      10.861   5.535  -8.248  0.00  0.00    +0.014 A 
ATOM     31  C   UNL     1      12.054   6.185  -8.492  0.00  0.00    +0.039 A 
ATOM     32  C   UNL     1      12.753   6.770  -7.448  0.00  0.00    +0.123 A 
ATOM     33  C   UNL     1      12.256   6.711  -6.156  0.00  0.00    +0.039 A 
ATOM     34  C   UNL     1      11.062   6.069  -5.901  0.00  0.00    +0.014 A 
ATOM     35  F   UNL     1      13.923   7.399  -7.691  0.00  0.00    -0.205 F 
ENDBRANCH  27  29
ENDBRANCH  23  24
ENDBRANCH  21  23
ENDBRANCH   1  19
TORSDOF 5
