REMARK  Name = ZINC36888241
REMARK  3 active torsions:
REMARK  status: ('A' for Active; 'I' for Inactive)
REMARK    1  A    between atoms: C_6  and  C_7
REMARK    2  A    between atoms: C_9  and  C_12
REMARK    3  A    between atoms: C_12  and  C_13
REMARK                            x       y       z     vdW  Elec       q    Type
REMARK                         _______ _______ _______ _____ _____    ______ ____
ROOT
ATOM      1  C   UNL     1      -1.272  -0.765   0.011  0.00  0.00    +0.202 A 
ATOM      2  N   UNL     1      -1.385  -2.106   0.010  0.00  0.00    -0.191 NA
ATOM      3  C   UNL     1      -2.642  -2.447   0.020  0.00  0.00    +0.234 A 
ATOM      4  O   UNL     1      -3.384  -1.333   0.027  0.00  0.00    -0.337 OA
ATOM      5  N   UNL     1      -2.474  -0.244   0.026  0.00  0.00    -0.056 NA
ENDROOT
BRANCH   1  11
ATOM      6  C   UNL     1      -0.017   1.389   0.010  0.00  0.00    +0.014 A 
ATOM      7  C   UNL     1       1.169   2.094   0.002  0.00  0.00    +0.042 A 
ATOM      8  C   UNL     1       2.379   1.420  -0.013  0.00  0.00    +0.158 A 
ATOM      9  C   UNL     1       2.404   0.032  -0.021  0.00  0.00    +0.159 A 
ATOM     10  C   UNL     1       1.220  -0.681  -0.014  0.00  0.00    +0.053 A 
ATOM     11  C   UNL     1       0.002  -0.004   0.002  0.00  0.00    +0.025 A 
ATOM     12  F   UNL     1       3.586  -0.622  -0.035  0.00  0.00    -0.202 F 
ATOM     13  F   UNL     1       3.538   2.114  -0.021  0.00  0.00    -0.202 F 
ENDBRANCH   1  11
BRANCH   3  14
ATOM     14  C   UNL     1      -3.171  -3.858   0.022  0.00  0.00    +0.154 C 
BRANCH  14  15
ATOM     15  C   UNL     1      -3.336  -4.330   1.444  0.00  0.00    +0.059 A 
ATOM     16  C   UNL     1      -4.519  -4.809   1.897  0.00  0.00    +0.072 A 
ATOM     17  S   UNL     1      -4.097  -5.192   3.589  0.00  0.00    -0.061 S 
ATOM     18  C   UNL     1      -2.485  -4.711   3.543  0.00  0.00    +0.156 A 
ATOM     19  N   UNL     1      -2.331  -4.301   2.302  0.00  0.00    -0.230 NA
ATOM     20  N   UNL     1      -1.547  -4.743   4.562  0.00  0.00    -0.338 N 
ATOM     21  H   UNL     1      -1.794  -5.077   5.439  0.00  0.00    +0.144 HD
ATOM     22  H   UNL     1      -0.643  -4.431   4.399  0.00  0.00    +0.144 HD
ENDBRANCH  14  15
ENDBRANCH   3  14
TORSDOF 3
