REMARK  Name = ZINC28822263
REMARK  5 active torsions:
REMARK  status: ('A' for Active; 'I' for Inactive)
REMARK    1  A    between atoms: C_4  and  C_7
REMARK    2  A    between atoms: C_7  and  C_8
REMARK    3  A    between atoms: C_8  and  N_9
REMARK    4  A    between atoms: N_9  and  C_10
REMARK    5  A    between atoms: C_24  and  C_26
REMARK                            x       y       z     vdW  Elec       q    Type
REMARK                         _______ _______ _______ _____ _____    ______ ____
ROOT
ATOM      1  N   UNL     1       1.403  -2.046  -0.022  0.00  0.00    -0.283 N 
ATOM      2  C   UNL     1       1.306  -0.670  -0.006  0.00  0.00    +0.157 A 
ATOM      3  C   UNL     1       1.236   0.099  -1.249  0.00  0.00    +0.148 A 
ATOM      4  C   UNL     1       1.137   1.509  -1.151  0.00  0.00    +0.184 A 
ATOM      5  N   UNL     1       1.065   2.241  -2.266  0.00  0.00    -0.233 NA
ATOM      6  C   UNL     1       1.097   1.643  -3.438  0.00  0.00    +0.133 A 
ATOM      7  C   UNL     1       1.195   0.255  -3.529  0.00  0.00    +0.131 A 
ATOM      8  N   UNL     1       1.262  -0.486  -2.443  0.00  0.00    -0.247 NA
ATOM      9  N   UNL     1       1.113   2.068   0.065  0.00  0.00    -0.206 NA
ATOM     10  C   UNL     1       1.179   1.328   1.155  0.00  0.00    +0.167 A 
ATOM     11  N   UNL     1       1.273   0.001   1.137  0.00  0.00    -0.210 NA
ENDROOT
BRANCH  10  12
ATOM     12  C   UNL     1       1.147   2.012   2.469  0.00  0.00    +0.055 A 
ATOM     13  C   UNL     1       1.209   1.268   3.647  0.00  0.00    +0.029 A 
ATOM     14  C   UNL     1       1.184   1.910   4.868  0.00  0.00    +0.019 A 
ATOM     15  C   UNL     1       1.087   3.290   4.927  0.00  0.00    +0.018 A 
ATOM     16  C   UNL     1       1.020   4.034   3.764  0.00  0.00    +0.040 A 
ATOM     17  C   UNL     1       1.049   3.403   2.534  0.00  0.00    +0.134 A 
ATOM     18  F   UNL     1       0.984   4.131   1.398  0.00  0.00    -0.205 F 
ATOM     19 BR   UNL     1       1.276   0.902   6.466  0.00  0.00    -0.050 Br
ENDBRANCH  10  12
BRANCH   1  20
ATOM     20  C   UNL     1       0.255  -2.827   0.090  0.00  0.00    +0.038 A 
ATOM     21  C   UNL     1       0.340  -4.216   0.183  0.00  0.00    +0.041 A 
ATOM     22  C   UNL     1      -0.820  -4.953   0.298  0.00  0.00    +0.084 A 
ATOM     23  N   UNL     1      -1.999  -4.360   0.311  0.00  0.00    -0.367 N 
ATOM     24  C   UNL     1      -2.122  -3.049   0.221  0.00  0.00    +0.084 A 
ATOM     25  C   UNL     1      -1.010  -2.241   0.108  0.00  0.00    +0.041 A 
ATOM     26  H   UNL     1      -2.916  -4.961   0.399  0.00  0.00    +0.165 HD
ENDBRANCH   1  20
BRANCH   1  27
ATOM     27  C   UNL     1       2.714  -2.687  -0.157  0.00  0.00    +0.117 C 
BRANCH  27  28
ATOM     28  C   UNL     1       3.316  -2.916   1.231  0.00  0.00    +0.054 C 
BRANCH  28  32
ATOM     29  C   UNL     1       7.137  -4.783   0.836  0.00  0.00    +0.000 A 
ATOM     30  C   UNL     1       7.040  -3.405   0.852  0.00  0.00    +0.000 A 
ATOM     31  C   UNL     1       5.803  -2.800   0.980  0.00  0.00    +0.004 A 
ATOM     32  C   UNL     1       4.664  -3.575   1.091  0.00  0.00    -0.046 A 
ATOM     33  C   UNL     1       4.762  -4.954   1.081  0.00  0.00    +0.004 A 
ATOM     34  C   UNL     1       5.998  -5.558   0.948  0.00  0.00    +0.000 A 
ENDBRANCH  28  32
ENDBRANCH  27  28
ENDBRANCH   1  27
TORSDOF 5
