REMARK  Name = ZINC08876202
REMARK  9 active torsions:
REMARK  status: ('A' for Active; 'I' for Inactive)
REMARK    1  A    between atoms: C_1  and  C_2
REMARK    2  A    between atoms: C_2  and  N_61
REMARK    3  A    between atoms: C_6  and  C_8
REMARK    4  A    between atoms: C_8  and  N_9
REMARK    5  A    between atoms: C_10  and  C_12
REMARK    6  A    between atoms: C_15  and  C_18
REMARK    7  A    between atoms: C_18  and  N_19
REMARK    8  A    between atoms: N_19  and  S_20
REMARK    9  A    between atoms: S_20  and  C_23
REMARK                            x       y       z     vdW  Elec       q    Type
REMARK                         _______ _______ _______ _____ _____    ______ ____
ROOT
ATOM      1  C   UNL     1      -3.673   2.333   5.410  0.00  0.00    +0.075 C 
ATOM      2  C   UNL     1      -4.056   0.862   5.583  0.00  0.00    +0.013 C 
ATOM      3  C   UNL     1      -3.975   0.485   7.063  0.00  0.00    +0.005 C 
ATOM      4  C   UNL     1      -4.940   1.360   7.866  0.00  0.00    +0.005 C 
ATOM      5  C   UNL     1      -4.557   2.832   7.693  0.00  0.00    +0.005 C 
ATOM      6  C   UNL     1      -4.637   3.209   6.212  0.00  0.00    +0.013 C 
ENDROOT
BRANCH   1   8
ATOM      7  N   UNL     1      -2.985   2.061   3.050  0.00  0.00    -0.317 N 
ATOM      8  C   UNL     1      -3.752   2.705   3.952  0.00  0.00    +0.216 C 
ATOM      9  O   UNL     1      -4.505   3.584   3.590  0.00  0.00    -0.276 OA
ATOM     10  H   UNL     1      -2.382   1.358   3.339  0.00  0.00    +0.149 HD
BRANCH   7  11
ATOM     11  C   UNL     1      -3.062   2.422   1.632  0.00  0.00    +0.089 C 
BRANCH  11  15
ATOM     12  C   UNL     1      -1.843   0.572  -1.326  0.00  0.00    -0.078 C 
ATOM     13  C   UNL     1      -2.533  -0.556  -0.529  0.00  0.00    -0.020 C 
ATOM     14  C   UNL     1      -2.763   0.032   0.879  0.00  0.00    -0.016 C 
ATOM     15  C   UNL     1      -2.193   1.465   0.814  0.00  0.00    -0.051 C 
ATOM     16  N   UNL     1      -2.240   1.786  -0.619  0.00  0.00    +0.382 N 
ATOM     17  H   UNL     1      -3.195   2.053  -0.888  0.00  0.00    -0.081 HD
BRANCH  16  19
ATOM     18  C   UNL     1      -1.574   3.434  -2.350  0.00  0.00    -0.017 C 
ATOM     19  C   UNL     1      -1.306   2.915  -0.936  0.00  0.00    -0.082 C 
ENDBRANCH  16  19
ENDBRANCH  11  15
ENDBRANCH   7  11
ENDBRANCH   1   8
BRANCH   4  20
ATOM     20  C   UNL     1      -4.860   0.983   9.346  0.00  0.00    +0.109 C 
BRANCH  20  21
ATOM     21  N   UNL     1      -5.340  -0.389   9.527  0.00  0.00    -0.190 NA
ATOM     22  H   UNL     1      -5.840  -0.825   8.819  0.00  0.00    +0.148 HD
BRANCH  21  23
ATOM     23  S   UNL     1      -5.029  -1.196  10.939  0.00  0.00    +0.058 S 
ATOM     24  O   UNL     1      -5.639  -2.474  10.820  0.00  0.00    -0.153 OA
ATOM     25  O   UNL     1      -3.642  -1.036  11.202  0.00  0.00    -0.153 OA
BRANCH  23  26
ATOM     26  C   UNL     1      -5.886  -0.347  12.224  0.00  0.00    +0.105 A 
ATOM     27  C   UNL     1      -5.260   0.673  12.915  0.00  0.00    +0.030 A 
ATOM     28  C   UNL     1      -5.934   1.343  13.918  0.00  0.00    +0.022 A 
ATOM     29  C   UNL     1      -7.231   0.985  14.239  0.00  0.00    +0.041 A 
ATOM     30  C   UNL     1      -7.856  -0.040  13.551  0.00  0.00    +0.022 A 
ATOM     31  C   UNL     1      -7.183  -0.706  12.544  0.00  0.00    +0.030 A 
ATOM     32 CL   UNL     1      -8.076   1.822  15.504  0.00  0.00    -0.084 Cl
ENDBRANCH  23  26
ENDBRANCH  21  23
ENDBRANCH  20  21
ENDBRANCH   4  20
TORSDOF 8
