REMARK  Name = ZINC00518318
REMARK  8 active torsions:
REMARK  status: ('A' for Active; 'I' for Inactive)
REMARK    1  A    between atoms: C_1  and  C_2
REMARK    2  A    between atoms: C_5  and  C_28
REMARK    3  A    between atoms: C_8  and  C_27
REMARK    4  A    between atoms: C_10  and  C_16
REMARK    5  A    between atoms: C_13  and  C_15
REMARK    6  A    between atoms: C_16  and  O_17
REMARK    7  A    between atoms: O_17  and  C_18
REMARK    8  A    between atoms: N_20  and  C_21
REMARK                            x       y       z     vdW  Elec       q    Type
REMARK                         _______ _______ _______ _____ _____    ______ ____
ROOT
ATOM      1  C   UNL     1       0.074   1.425  -0.075  0.00  0.00    +0.012 C 
ATOM      2  C   UNL     1       0.166  -0.092   0.063  0.00  0.00    +0.020 C 
ATOM      3  C   UNL     1      -1.214  -0.674   0.104  0.00  0.00    -0.024 C 
ATOM      4  C   UNL     1      -1.662  -1.483   1.008  0.00  0.00    -0.070 C 
ATOM      5  C   UNL     1      -0.797  -1.928   2.175  0.00  0.00    +0.046 C 
ATOM      6  C   UNL     1       0.639  -1.926   1.656  0.00  0.00    +0.008 C 
ATOM      7  C   UNL     1       1.005  -0.486   1.270  0.00  0.00    +0.037 C 
ATOM      8  C   UNL     1       0.817   0.423   2.471  0.00  0.00    +0.171 C 
ATOM      9  O   UNL     1      -0.518   0.370   2.949  0.00  0.00    -0.376 OA
ATOM     10  C   UNL     1      -1.035  -0.909   3.287  0.00  0.00    +0.123 C 
ATOM     11  C   UNL     1      -0.527  -1.384   4.644  0.00  0.00    +0.038 C 
ATOM     12  C   UNL     1       1.641  -2.518   2.632  0.00  0.00    +0.009 C 
ATOM     13  C   UNL     1      -3.066  -2.008   0.907  0.00  0.00    +0.039 C 
ENDROOT
BRANCH   7  14
ATOM     14  C   UNL     1       2.483  -0.460   0.864  0.00  0.00    +0.243 C 
BRANCH  14  15
ATOM     15  O   UNL     1       2.836   0.857   0.433  0.00  0.00    -0.450 OA
BRANCH  15  16
ATOM     16  C   UNL     1       4.109   1.050   0.040  0.00  0.00    +0.405 C 
ATOM     17  O   UNL     1       4.899   0.127   0.062  0.00  0.00    -0.226 OA
ATOM     18  N   UNL     1       4.507   2.268  -0.377  0.00  0.00    -0.251 N 
ATOM     19  H   UNL     1       3.899   3.022  -0.323  0.00  0.00    +0.158 HD
BRANCH  18  20
ATOM     20  C   UNL     1       5.797   2.445  -0.889  0.00  0.00    +0.036 A 
ATOM     21  C   UNL     1       6.471   3.641  -0.681  0.00  0.00    +0.023 A 
ATOM     22  C   UNL     1       7.744   3.813  -1.187  0.00  0.00    +0.002 A 
ATOM     23  C   UNL     1       8.348   2.795  -1.902  0.00  0.00    +0.000 A 
ATOM     24  C   UNL     1       7.680   1.602  -2.112  0.00  0.00    +0.002 A 
ATOM     25  C   UNL     1       6.409   1.423  -1.603  0.00  0.00    +0.023 A 
ENDBRANCH  18  20
ENDBRANCH  15  16
ENDBRANCH  14  15
ENDBRANCH   7  14
TORSDOF 4
