REMARK  Name = ZINC13246379
REMARK  9 active torsions:
REMARK  status: ('A' for Active; 'I' for Inactive)
REMARK    1  A    between atoms: C_1  and  C_2
REMARK    2  A    between atoms: C_4  and  C_30
REMARK    3  A    between atoms: C_6  and  S_9
REMARK    4  A    between atoms: C_7  and  C_8
REMARK    5  A    between atoms: S_9  and  N_12
REMARK    6  A    between atoms: N_12  and  C_13
REMARK    7  A    between atoms: C_13  and  C_14
REMARK    8  A    between atoms: C_14  and  N_15
REMARK    9  A    between atoms: C_19  and  C_20
REMARK                            x       y       z     vdW  Elec       q    Type
REMARK                         _______ _______ _______ _____ _____    ______ ____
ROOT
ATOM      1  C   UNL     1       1.196   1.811  -0.347  0.00  0.00    +0.125 C 
ENDROOT
BRANCH   1   2
ATOM      2  N   UNL     1      -0.190   1.348  -0.236  0.00  0.00    -0.188 NA
ATOM      3  H   UNL     1      -0.380   0.401  -0.152  0.00  0.00    +0.148 HD
BRANCH   2   4
ATOM      4  S   UNL     1      -1.433   2.443  -0.259  0.00  0.00    +0.059 S 
ATOM      5  O   UNL     1      -2.637   1.691  -0.201  0.00  0.00    -0.153 OA
ATOM      6  O   UNL     1      -1.111   3.443   0.698  0.00  0.00    -0.153 OA
BRANCH   4  12
ATOM      7  C   UNL     1      -1.909   2.285  -5.462  0.00  0.00    +0.044 C 
ATOM      8  C   UNL     1      -1.636   3.098  -4.222  0.00  0.00    -0.045 A 
ATOM      9  C   UNL     1      -1.367   4.447  -4.329  0.00  0.00    +0.018 A 
ATOM     10  C   UNL     1      -1.113   5.198  -3.179  0.00  0.00    +0.065 A 
ATOM     11  C   UNL     1      -1.140   4.578  -1.928  0.00  0.00    +0.044 A 
ATOM     12  C   UNL     1      -1.405   3.228  -1.836  0.00  0.00    +0.109 A 
ATOM     13  C   UNL     1      -1.655   2.490  -2.980  0.00  0.00    -0.021 A 
ATOM     14  C   UNL     1      -1.951   1.016  -2.871  0.00  0.00    +0.046 C 
BRANCH  10  15
ATOM     15  C   UNL     1      -0.825   6.643  -3.286  0.00  0.00    +0.387 C 
ATOM     16  O   UNL     1      -0.605   7.294  -2.284  0.00  0.00    -0.241 OA
ATOM     17  O   UNL     1      -0.805   7.239  -4.494  0.00  0.00    -0.241 OA
ENDBRANCH  10  15
ENDBRANCH   4  12
ENDBRANCH   2   4
ENDBRANCH   1   2
BRANCH   1  18
ATOM     18  C   UNL     1       2.144   0.686   0.074  0.00  0.00    +0.134 C 
BRANCH  18  19
ATOM     19  N   UNL     1       3.530   1.149  -0.038  0.00  0.00    -0.227 N 
ATOM     20  C   UNL     1       4.103   1.730   1.002  0.00  0.00    +0.260 C 
ATOM     21  O   UNL     1       3.509   1.891   2.052  0.00  0.00    -0.269 OA
ATOM     22  C   UNL     1       5.501   2.173   0.825  0.00  0.00    +0.080 C 
ATOM     23  C   UNL     1       6.331   2.788   1.704  0.00  0.00    +0.031 C 
ATOM     24  S   UNL     1       5.798   1.675  -0.866  0.00  0.00    -0.026 S 
ATOM     25  C   UNL     1       4.193   0.968  -1.198  0.00  0.00    +0.286 C 
ATOM     26  O   UNL     1       3.794   0.449  -2.223  0.00  0.00    -0.262 OA
BRANCH  23  27
ATOM     27  C   UNL     1       7.645   3.271   1.259  0.00  0.00    +0.011 A 
ATOM     28  C   UNL     1       7.906   3.444  -0.105  0.00  0.00    +0.011 A 
ATOM     29  C   UNL     1       9.140   3.902  -0.514  0.00  0.00    +0.001 A 
ATOM     30  C   UNL     1      10.125   4.181   0.418  0.00  0.00    +0.003 A 
ATOM     31  C   UNL     1       9.879   4.009   1.768  0.00  0.00    +0.039 A 
ATOM     32  C   UNL     1       8.647   3.555   2.197  0.00  0.00    +0.131 A 
ATOM     33  F   UNL     1       8.408   3.386   3.516  0.00  0.00    -0.205 F 
ENDBRANCH  23  27
ENDBRANCH  18  19
ENDBRANCH   1  18
TORSDOF 7
