REMARK  Name = ZINC63807379
REMARK  3 active torsions:
REMARK  status: ('A' for Active; 'I' for Inactive)
REMARK    1  A    between atoms: C_1  and  C_2
REMARK    2  A    between atoms: C_3  and  C_7
REMARK    3  A    between atoms: C_11  and  C_16
REMARK                            x       y       z     vdW  Elec       q    Type
REMARK                         _______ _______ _______ _____ _____    ______ ____
ROOT
ATOM      1  C   UNL     1      -2.530  -0.346   0.013  0.00  0.00    +0.182 C 
ATOM      2  N   UNL     1      -3.274  -0.952   1.149  0.00  0.00    -0.263 N 
ATOM      3  N   UNL     1      -4.564  -1.299   0.874  0.00  0.00    -0.220 N 
ATOM      4  C   UNL     1      -5.730  -1.549   1.591  0.00  0.00    +0.183 A 
ATOM      5  N   UNL     1      -6.658  -1.894   0.733  0.00  0.00    -0.127 NA
ATOM      6  N   UNL     1      -6.183  -1.869  -0.462  0.00  0.00    -0.120 NA
ATOM      7  C   UNL     1      -4.939  -1.501  -0.430  0.00  0.00    +0.211 A 
ATOM      8  S   UNL     1      -3.477  -1.114  -1.373  0.00  0.00    -0.056 S 
ATOM      9  H   UNL     1      -2.765  -1.730   1.541  0.00  0.00    +0.168 HD
ENDROOT
BRANCH   4  10
ATOM     10  C   UNL     1      -5.893  -1.443   3.056  0.00  0.00    +0.040 A 
ATOM     11  C   UNL     1      -4.815  -1.057   3.855  0.00  0.00    +0.013 A 
ATOM     12  C   UNL     1      -4.973  -0.960   5.222  0.00  0.00    +0.002 A 
ATOM     13  C   UNL     1      -6.196  -1.245   5.803  0.00  0.00    +0.021 A 
ATOM     14  C   UNL     1      -7.269  -1.629   5.018  0.00  0.00    +0.060 A 
ATOM     15  C   UNL     1      -7.127  -1.724   3.647  0.00  0.00    +0.070 A 
ATOM     16 CL   UNL     1      -8.476  -2.198   2.662  0.00  0.00    -0.081 Cl
ATOM     17 CL   UNL     1      -8.799  -1.986   5.757  0.00  0.00    -0.082 Cl
ENDBRANCH   4  10
BRANCH   1  20
ATOM     18  C   UNL     1      -0.018   1.503   0.010  0.00  0.00    +0.067 C 
ATOM     19  C   UNL     1       0.002  -0.004   0.002  0.00  0.00    +0.064 C 
ATOM     20  C   UNL     1      -1.086  -0.777   0.003  0.00  0.00    +0.008 C 
ATOM     21  C   UNL     1      -0.531  -2.190  -0.007  0.00  0.00    +0.201 C 
ATOM     22  N   UNL     1       0.926  -1.973  -0.013  0.00  0.00    -0.183 NA
ATOM     23  N   UNL     1       1.125  -0.756  -0.013  0.00  0.00    -0.159 NA
ENDBRANCH   1  20
TORSDOF 2
