REMARK  Name = ZINC08722391
REMARK  4 active torsions:
REMARK  status: ('A' for Active; 'I' for Inactive)
REMARK    1  A    between atoms: C_4  and  C_7
REMARK    2  A    between atoms: C_7  and  N_49
REMARK    3  A    between atoms: C_18  and  C_21
REMARK    4  A    between atoms: C_24  and  O_28
REMARK                            x       y       z     vdW  Elec       q    Type
REMARK                         _______ _______ _______ _____ _____    ______ ____
ROOT
ATOM      1  C   UNL     1       4.221   4.740  -1.445  0.00  0.00    -0.073 C 
ATOM      2  C   UNL     1       4.766   4.651  -2.873  0.00  0.00    +0.018 C 
ATOM      3  C   UNL     1       3.742   5.278  -3.813  0.00  0.00    -0.027 A 
ATOM      4  C   UNL     1       2.467   5.460  -3.399  0.00  0.00    -0.021 A 
ATOM      5  S   UNL     1       1.640   6.202  -4.780  0.00  0.00    -0.080 S 
ATOM      6  C   UNL     1       2.954   6.266  -5.876  0.00  0.00    +0.080 A 
ATOM      7  C   UNL     1       4.034   5.716  -5.167  0.00  0.00    +0.068 A 
ATOM      8  C   UNL     1       5.337   5.632  -5.864  0.00  0.00    +0.248 C 
ATOM      9  O   UNL     1       6.287   5.057  -5.365  0.00  0.00    -0.270 OA
ATOM     10  N   UNL     1       5.429   6.217  -7.077  0.00  0.00    -0.289 N 
ATOM     11  C   UNL     1       4.409   7.109  -7.620  0.00  0.00    +0.190 C 
ATOM     12  N   UNL     1       3.062   6.719  -7.165  0.00  0.00    -0.316 N 
ATOM     13  C   UNL     1       1.906   5.099  -2.060  0.00  0.00    -0.035 C 
ATOM     14  H   UNL     1       6.214   6.035  -7.616  0.00  0.00    +0.151 HD
ATOM     15  H   UNL     1       2.290   6.779  -7.750  0.00  0.00    +0.149 HD
ATOM     16  N   UNL     1       2.859   4.171  -1.403  0.00  0.00    +0.386 N 
ATOM     17  H   UNL     1       2.854   3.276  -1.906  0.00  0.00    -0.081 HD
ENDROOT
BRANCH  11  18
ATOM     18  C   UNL     1       4.693   8.518  -7.166  0.00  0.00    -0.008 A 
ATOM     19  C   UNL     1       5.996   8.917  -6.928  0.00  0.00    +0.011 A 
ATOM     20  C   UNL     1       6.259  10.208  -6.513  0.00  0.00    +0.047 A 
ATOM     21  C   UNL     1       5.216  11.104  -6.334  0.00  0.00    +0.130 A 
ATOM     22  C   UNL     1       3.909  10.701  -6.572  0.00  0.00    +0.055 A 
ATOM     23  C   UNL     1       3.652   9.410  -6.993  0.00  0.00    +0.025 A 
ATOM     24  I   UNL     1       2.330  12.051  -6.304  0.00  0.00    -0.040 I 
BRANCH  21  25
ATOM     25  O   UNL     1       5.472  12.375  -5.925  0.00  0.00    -0.506 OA
ATOM     26  H   UNL     1       5.622  12.998  -6.649  0.00  0.00    +0.292 HD
ENDBRANCH  21  25
ENDBRANCH  11  18
BRANCH  16  27
ATOM     27  C   UNL     1       2.451   3.937  -0.001  0.00  0.00    -0.043 C 
BRANCH  27  31
ATOM     28  C   UNL     1      -1.219   1.751   0.017  0.00  0.00    +0.000 A 
ATOM     29  C   UNL     1      -0.013   1.076   0.008  0.00  0.00    +0.000 A 
ATOM     30  C   UNL     1       1.175   1.783   0.000  0.00  0.00    +0.002 A 
ATOM     31  C   UNL     1       1.156   3.165   0.008  0.00  0.00    -0.064 A 
ATOM     32  C   UNL     1      -0.050   3.840   0.022  0.00  0.00    +0.002 A 
ATOM     33  C   UNL     1      -1.238   3.133   0.030  0.00  0.00    +0.000 A 
ENDBRANCH  27  31
ENDBRANCH  16  27
TORSDOF 4
