REMARK  Name = ZINC09781788
REMARK  12 active torsions:
REMARK  status: ('A' for Active; 'I' for Inactive)
REMARK    1  A    between atoms: C_1  and  C_2
REMARK    2  A    between atoms: C_5  and  C_35
REMARK    3  A    between atoms: C_6  and  O_8
REMARK    4  A    between atoms: O_8  and  C_9
REMARK    5  A    between atoms: C_9  and  C_10
REMARK    6  A    between atoms: C_10  and  C_12
REMARK    7  A    between atoms: C_10  and  O_34
REMARK    8  A    between atoms: C_12  and  N_73
REMARK    9  A    between atoms: C_15  and  C_18
REMARK   10  A    between atoms: C_18  and  N_19
REMARK   11  A    between atoms: C_35  and  C_36
REMARK   12  A    between atoms: C_35  and  C_37
REMARK                            x       y       z     vdW  Elec       q    Type
REMARK                         _______ _______ _______ _____ _____    ______ ____
ROOT
ATOM      1  C   UNL     1       5.639   7.589   1.309  0.00  0.00    -0.078 C 
ATOM      2  C   UNL     1       7.080   8.092   1.193  0.00  0.00    -0.014 C 
ATOM      3  C   UNL     1       7.075   9.618   1.072  0.00  0.00    +0.003 C 
ATOM      4  C   UNL     1       6.237  10.023  -0.144  0.00  0.00    -0.014 C 
ATOM      5  C   UNL     1       4.821   9.464   0.010  0.00  0.00    -0.078 C 
ATOM      6  N   UNL     1       4.893   7.990   0.097  0.00  0.00    +0.381 N 
ATOM      7  H   UNL     1       5.384   7.631  -0.730  0.00  0.00    -0.082 HD
ENDROOT
BRANCH   6   8
ATOM      8  C   UNL     1       3.531   7.419   0.132  0.00  0.00    -0.044 C 
BRANCH   8   9
ATOM      9  C   UNL     1       3.630   5.898  -0.003  0.00  0.00    +0.135 C 
BRANCH   9  10
ATOM     10  O   UNL     1       4.281   5.570  -1.232  0.00  0.00    -0.390 OA
ATOM     11  H   UNL     1       3.824   5.897  -2.019  0.00  0.00    +0.210 HD
ENDBRANCH   9  10
BRANCH   9  12
ATOM     12  C   UNL     1       2.226   5.292   0.008  0.00  0.00    +0.258 C 
BRANCH  12  13
ATOM     13  O   UNL     1       2.322   3.866  -0.000  0.00  0.00    -0.489 OA
BRANCH  13  19
ATOM     14  C   UNL     1      -2.559   3.865   0.045  0.00  0.00    +0.044 C 
ATOM     15  C   UNL     1      -1.242   3.133   0.030  0.00  0.00    -0.047 A 
ATOM     16  C   UNL     1      -1.219   1.750   0.017  0.00  0.00    +0.004 A 
ATOM     17  C   UNL     1      -0.013   1.076   0.008  0.00  0.00    +0.008 A 
ATOM     18  C   UNL     1       1.175   1.782   0.000  0.00  0.00    -0.003 A 
ATOM     19  C   UNL     1       1.155   3.169   0.008  0.00  0.00    +0.124 A 
ATOM     20  C   UNL     1      -0.057   3.844   0.022  0.00  0.00    +0.049 A 
BRANCH  18  21
ATOM     21  C   UNL     1       2.490   1.047  -0.015  0.00  0.00    +0.016 C 
ATOM     22  C   UNL     1       2.594   0.162   1.229  0.00  0.00    +0.012 C 
ATOM     23  C   UNL     1       2.571   0.174  -1.269  0.00  0.00    +0.012 C 
ENDBRANCH  18  21
ENDBRANCH  13  19
ENDBRANCH  12  13
ENDBRANCH   9  12
ENDBRANCH   8   9
ENDBRANCH   6   8
BRANCH   3  24
ATOM     24  C   UNL     1       8.509  10.122   0.895  0.00  0.00    +0.120 C 
BRANCH  24  25
ATOM     25  N   UNL     1       9.279   9.839   2.109  0.00  0.00    -0.234 N 
ATOM     26  C   UNL     1       9.310  10.765   3.087  0.00  0.00    +0.254 C 
ATOM     27  O   UNL     1       8.705  11.810   2.950  0.00  0.00    -0.270 OA
ATOM     28  C   UNL     1      10.069  10.516   4.322  0.00  0.00    +0.046 A 
ATOM     29  C   UNL     1      10.123  11.438   5.356  0.00  0.00    +0.014 A 
ATOM     30  C   UNL     1      10.857  11.158   6.503  0.00  0.00    +0.001 A 
ATOM     31  C   UNL     1      11.538   9.984   6.648  0.00  0.00    +0.008 A 
ATOM     32  C   UNL     1      11.508   9.022   5.623  0.00  0.00    -0.016 A 
ATOM     33  C   UNL     1      10.767   9.294   4.454  0.00  0.00    +0.006 A 
ATOM     34  C   UNL     1      10.717   8.347   3.406  0.00  0.00    +0.046 A 
ATOM     35  C   UNL     1      11.405   7.151   3.546  0.00  0.00    +0.014 A 
ATOM     36  C   UNL     1      12.132   6.895   4.703  0.00  0.00    +0.001 A 
ATOM     37  C   UNL     1      12.192   7.798   5.725  0.00  0.00    +0.008 A 
ATOM     38  C   UNL     1       9.933   8.666   2.204  0.00  0.00    +0.254 C 
ATOM     39  O   UNL     1       9.876   7.867   1.289  0.00  0.00    -0.270 OA
ENDBRANCH  24  25
ENDBRANCH   3  24
TORSDOF 9
