REMARK  Name = ZINC36146389
REMARK  12 active torsions:
REMARK  status: ('A' for Active; 'I' for Inactive)
REMARK    1  A    between atoms: C_4  and  C_7
REMARK    2  A    between atoms: C_7  and  O_8
REMARK    3  A    between atoms: O_8  and  C_9
REMARK    4  A    between atoms: C_9  and  C_10
REMARK    5  A    between atoms: C_10  and  C_12
REMARK    6  A    between atoms: C_10  and  O_37
REMARK    7  A    between atoms: C_12  and  N_13
REMARK    8  A    between atoms: N_13  and  C_14
REMARK    9  A    between atoms: N_13  and  C_22
REMARK   10  A    between atoms: C_14  and  C_15
REMARK   11  A    between atoms: C_22  and  C_23
REMARK   12  A    between atoms: C_26  and  C_29
REMARK                            x       y       z     vdW  Elec       q    Type
REMARK                         _______ _______ _______ _____ _____    ______ ____
ROOT
ATOM      1  N   UNL     1       6.993  -2.775   4.889  0.00  0.00    +0.387 N 
ATOM      2  H   UNL     1       6.613  -2.057   5.487  0.00  0.00    -0.081 HD
ENDROOT
BRANCH   1   3
ATOM      3  C   UNL     1       7.085  -2.268   3.513  0.00  0.00    -0.044 C 
BRANCH   3   4
ATOM      4  C   UNL     1       5.804  -1.507   3.164  0.00  0.00    +0.124 C 
BRANCH   4   5
ATOM      5  O   UNL     1       4.721  -2.430   3.037  0.00  0.00    -0.391 OA
ATOM      6  H   UNL     1       4.831  -3.070   2.321  0.00  0.00    +0.210 HD
ENDBRANCH   4   5
BRANCH   4   7
ATOM      7  C   UNL     1       5.998  -0.763   1.841  0.00  0.00    +0.189 C 
BRANCH   7   8
ATOM      8  O   UNL     1       4.846   0.040   1.572  0.00  0.00    -0.373 OA
BRANCH   8   9
ATOM      9  C   UNL     1       4.925   0.780   0.353  0.00  0.00    +0.195 C 
BRANCH   9  13
ATOM     10  C   UNL     1       1.354   3.066  -0.162  0.00  0.00    +0.000 A 
ATOM     11  C   UNL     1       2.432   3.611   0.510  0.00  0.00    +0.000 A 
ATOM     12  C   UNL     1       3.588   2.871   0.676  0.00  0.00    +0.006 A 
ATOM     13  C   UNL     1       3.665   1.586   0.172  0.00  0.00    -0.022 A 
ATOM     14  C   UNL     1       2.586   1.041  -0.499  0.00  0.00    +0.006 A 
ATOM     15  C   UNL     1       1.431   1.782  -0.667  0.00  0.00    +0.000 A 
ENDBRANCH   9  13
ENDBRANCH   8   9
ENDBRANCH   7   8
ENDBRANCH   4   7
ENDBRANCH   3   4
ENDBRANCH   1   3
BRANCH   1  16
ATOM     16  C   UNL     1       6.114  -3.952   4.919  0.00  0.00    -0.043 C 
BRANCH  16  17
ATOM     17  C   UNL     1       6.676  -5.021   4.017  0.00  0.00    -0.061 A 
ATOM     18  C   UNL     1       6.280  -5.088   2.694  0.00  0.00    +0.002 A 
ATOM     19  C   UNL     1       6.795  -6.067   1.866  0.00  0.00    +0.003 A 
ATOM     20  C   UNL     1       7.705  -6.982   2.360  0.00  0.00    +0.038 A 
ATOM     21  C   UNL     1       8.102  -6.917   3.684  0.00  0.00    +0.124 A 
ATOM     22  C   UNL     1       7.591  -5.931   4.512  0.00  0.00    +0.040 A 
ATOM     23  F   UNL     1       8.992  -7.811   4.168  0.00  0.00    -0.205 F 
ENDBRANCH  16  17
ENDBRANCH   1  16
BRANCH   1  24
ATOM     24  C   UNL     1       8.331  -3.151   5.362  0.00  0.00    -0.030 C 
BRANCH  24  25
ATOM     25  C   UNL     1       8.282  -3.422   6.867  0.00  0.00    +0.194 C 
ATOM     26  C   UNL     1       9.663  -3.881   7.393  0.00  0.00    +0.104 C 
ATOM     27  C   UNL     1       9.292  -4.930   8.424  0.00  0.00    +0.091 C 
ATOM     28  N   UNL     1       8.058  -5.262   8.237  0.00  0.00    -0.089 NA
ATOM     29  O   UNL     1       7.460  -4.571   7.158  0.00  0.00    -0.392 OA
BRANCH  27  30
ATOM     30  C   UNL     1      10.187  -5.476   9.463  0.00  0.00    +0.001 A 
ATOM     31  C   UNL     1      11.505  -5.025   9.561  0.00  0.00    +0.011 A 
ATOM     32  C   UNL     1      12.337  -5.539  10.533  0.00  0.00    +0.022 A 
ATOM     33  C   UNL     1      11.868  -6.501  11.412  0.00  0.00    +0.059 A 
ATOM     34  C   UNL     1      10.561  -6.953  11.321  0.00  0.00    +0.060 A 
ATOM     35  C   UNL     1       9.718  -6.442  10.355  0.00  0.00    +0.031 A 
ATOM     36 CL   UNL     1       9.982  -8.159  12.427  0.00  0.00    -0.082 Cl
ATOM     37 CL   UNL     1      12.922  -7.144  12.633  0.00  0.00    -0.082 Cl
ENDBRANCH  27  30
ENDBRANCH  24  25
ENDBRANCH   1  24
TORSDOF 12
