REMARK  Name = ZINC25162218
REMARK  13 active torsions:
REMARK  status: ('A' for Active; 'I' for Inactive)
REMARK    1  A    between atoms: C_1  and  C_2
REMARK    2  A    between atoms: C_2  and  C_3
REMARK    3  A    between atoms: C_2  and  C_4
REMARK    4  A    between atoms: C_4  and  C_6
REMARK    5  A    between atoms: C_4  and  N_27
REMARK    6  A    between atoms: N_8  and  C_9
REMARK    7  A    between atoms: C_9  and  C_10
REMARK    8  A    between atoms: C_10  and  C_11
REMARK    9  A    between atoms: C_11  and  C_12
REMARK   10  A    between atoms: C_13  and  C_25
REMARK   11  A    between atoms: C_14  and  N_24
REMARK   12  A    between atoms: N_15  and  C_17
REMARK   13  A    between atoms: C_28  and  C_30
REMARK                            x       y       z     vdW  Elec       q    Type
REMARK                         _______ _______ _______ _____ _____    ______ ____
ROOT
ATOM      1  C   UNL     1      -0.583   2.352  -1.304  0.00  0.00    +0.025 C 
ENDROOT
BRANCH   1   2
ATOM      2  C   UNL     1      -0.011   1.545  -2.472  0.00  0.00    +0.104 C 
BRANCH   2   5
ATOM      3  C   UNL     1      -0.336   1.361  -4.880  0.00  0.00    +0.234 C 
ATOM      4  O   UNL     1       0.583   0.570  -4.915  0.00  0.00    -0.274 OA
ATOM      5  N   UNL     1      -0.679   1.943  -3.714  0.00  0.00    -0.314 N 
ATOM      6  H   UNL     1      -1.461   2.716  -3.694  0.00  0.00    +0.149 HD
BRANCH   3   7
ATOM      7  C   UNL     1      -1.094   1.693  -6.139  0.00  0.00    +0.162 C 
BRANCH   7   8
ATOM      8  N   UNL     1      -0.215   1.517  -7.298  0.00  0.00    -0.299 N 
ATOM      9  C   UNL     1      -0.456   2.199  -8.436  0.00  0.00    +0.251 C 
ATOM     10  O   UNL     1      -1.403   2.960  -8.500  0.00  0.00    -0.270 OA
ATOM     11  H   UNL     1       0.641   0.829  -7.240  0.00  0.00    +0.150 HD
BRANCH   9  12
ATOM     12  C   UNL     1       0.423   2.023  -9.596  0.00  0.00    +0.074 A 
ATOM     13  C   UNL     1       0.352   2.621 -10.844  0.00  0.00    +0.021 A 
ATOM     14  C   UNL     1       1.315   2.274 -11.759  0.00  0.00    +0.008 A 
ATOM     15  C   UNL     1       2.274   1.378 -11.405  0.00  0.00    +0.046 A 
ATOM     16  S   UNL     1       1.867   0.989  -9.766  0.00  0.00    -0.092 S 
ENDBRANCH   9  12
ENDBRANCH   7   8
BRANCH   7  18
ATOM     17  C   UNL     1      -3.244   0.983  -5.084  0.00  0.00    +0.009 C 
ATOM     18  C   UNL     1      -2.301   0.762  -6.268  0.00  0.00    +0.012 C 
ATOM     19  C   UNL     1      -3.041   1.064  -7.573  0.00  0.00    +0.009 C 
ENDBRANCH   7  18
ENDBRANCH   3   7
ENDBRANCH   2   5
ENDBRANCH   1   2
BRANCH   1  20
ATOM     20  C   UNL     1       0.115   1.937  -0.008  0.00  0.00    +0.060 C 
BRANCH  20  21
ATOM     21  C   UNL     1      -0.448   2.732   1.143  0.00  0.00    +0.083 A 
ATOM     22  C   UNL     1      -1.552   2.361   1.944  0.00  0.00    +0.114 A 
ATOM     23  C   UNL     1      -1.732   3.373   2.884  0.00  0.00    +0.138 A 
ATOM     24  N   UNL     1      -0.778   4.303   2.653  0.00  0.00    -0.217 N 
ATOM     25  N   UNL     1       0.003   3.877   1.573  0.00  0.00    -0.168 NA
BRANCH  24  26
ATOM     26  C   UNL     1      -0.600   5.491   3.375  0.00  0.00    +0.068 A 
ATOM     27  C   UNL     1      -1.702   6.177   3.868  0.00  0.00    +0.030 A 
ATOM     28  C   UNL     1      -1.524   7.345   4.582  0.00  0.00    +0.040 A 
ATOM     29  C   UNL     1      -0.249   7.838   4.800  0.00  0.00    +0.124 A 
ATOM     30  C   UNL     1       0.852   7.158   4.305  0.00  0.00    +0.040 A 
ATOM     31  C   UNL     1       0.678   5.987   3.594  0.00  0.00    +0.030 A 
ATOM     32  F   UNL     1      -0.077   8.984   5.494  0.00  0.00    -0.205 F 
ENDBRANCH  24  26
BRANCH  23  33
ATOM     33  N   UNL     1      -2.701   3.417   3.868  0.00  0.00    -0.342 N 
ATOM     34  H   UNL     1      -2.745   4.273   4.557  0.00  0.00    +0.144 HD
ATOM     35  H   UNL     1      -3.428   2.597   3.961  0.00  0.00    +0.144 HD
ENDBRANCH  23  33
BRANCH  22  36
ATOM     36  C   UNL     1      -2.337   1.170   1.814  0.00  0.00    +0.104 C 
ATOM     37  N   UNL     1      -2.960   0.226   1.712  0.00  0.00    -0.191 NA
ENDBRANCH  22  36
ENDBRANCH  20  21
ENDBRANCH   1  20
TORSDOF 11
