REMARK  Name = ZINC02635957
REMARK  6 active torsions:
REMARK  status: ('A' for Active; 'I' for Inactive)
REMARK    1  A    between atoms: C_6  and  N_11
REMARK    2  A    between atoms: C_7  and  C_8
REMARK    3  A    between atoms: C_12  and  C_14
REMARK    4  A    between atoms: C_14  and  O_15
REMARK    5  A    between atoms: O_15  and  C_16
REMARK    6  A    between atoms: C_16  and  C_18
REMARK                            x       y       z     vdW  Elec       q    Type
REMARK                         _______ _______ _______ _____ _____    ______ ____
ROOT
ATOM      1  N   UNL     1      -1.640  -1.854   0.008  0.00  0.00    -0.277 N 
ATOM      2  C   UNL     1      -1.412  -0.526   0.013  0.00  0.00    +0.255 C 
ATOM      3  O   UNL     1      -2.344   0.250   0.026  0.00  0.00    -0.272 OA
ATOM      4  H   UNL     1      -0.894  -2.474  -0.003  0.00  0.00    +0.155 HD
ENDROOT
BRANCH   1  10
ATOM      5  C   UNL     1      -7.112  -4.588   0.487  0.00  0.00    +0.010 C 
ATOM      6  C   UNL     1      -5.736  -5.110   0.028  0.00  0.00    +0.037 C 
ATOM      7  C   UNL     1      -4.815  -3.888   0.027  0.00  0.00    -0.023 A 
ATOM      8  C   UNL     1      -5.578  -2.780   0.041  0.00  0.00    -0.004 A 
ATOM      9  S   UNL     1      -4.419  -1.434   0.036  0.00  0.00    -0.077 S 
ATOM     10  C   UNL     1      -2.941  -2.334   0.018  0.00  0.00    +0.084 A 
ATOM     11  C   UNL     1      -3.373  -3.649   0.009  0.00  0.00    +0.068 A 
ATOM     12  C   UNL     1      -7.047  -3.107   0.056  0.00  0.00    +0.043 C 
BRANCH  11  13
ATOM     13  C   UNL     1      -2.418  -4.762  -0.013  0.00  0.00    +0.244 C 
ATOM     14  O   UNL     1      -2.011  -5.235   1.032  0.00  0.00    -0.270 OA
ATOM     15  N   UNL     1      -1.992  -5.261  -1.190  0.00  0.00    -0.325 N 
ATOM     16  H   UNL     1      -2.317  -4.884  -2.023  0.00  0.00    +0.145 HD
ATOM     17  H   UNL     1      -1.361  -5.997  -1.205  0.00  0.00    +0.145 HD
ENDBRANCH  11  13
ENDBRANCH   1  10
BRANCH   2  18
ATOM     18  C   UNL     1       0.002  -0.004   0.002  0.00  0.00    +0.328 C 
BRANCH  18  19
ATOM     19  O   UNL     1      -0.018   1.448   0.010  0.00  0.00    -0.451 OA
BRANCH  19  20
ATOM     20  C   UNL     1       1.174   2.076   0.002  0.00  0.00    +0.360 C 
ATOM     21  O   UNL     1       2.201   1.428  -0.011  0.00  0.00    -0.243 OA
BRANCH  20  22
ATOM     22  C   UNL     1       1.232   3.554   0.009  0.00  0.00    +0.169 A 
ATOM     23  C   UNL     1       2.469   4.197   0.007  0.00  0.00    +0.093 A 
ATOM     24  C   UNL     1       2.506   5.586   0.009  0.00  0.00    +0.083 A 
ATOM     25  C   UNL     1       1.305   6.280   0.024  0.00  0.00    +0.097 A 
ATOM     26  C   UNL     1       0.110   5.572   0.031  0.00  0.00    +0.150 A 
ATOM     27  N   UNL     1       0.104   4.256   0.024  0.00  0.00    -0.226 NA
ATOM     28 CL   UNL     1      -1.396   6.435   0.050  0.00  0.00    -0.060 Cl
ATOM     29 CL   UNL     1       1.296   8.016   0.035  0.00  0.00    -0.079 Cl
ATOM     30 CL   UNL     1       4.021   6.433  -0.000  0.00  0.00    -0.080 Cl
ATOM     31 CL   UNL     1       3.940   3.276  -0.005  0.00  0.00    -0.080 Cl
ENDBRANCH  20  22
ENDBRANCH  19  20
ENDBRANCH  18  19
ENDBRANCH   2  18
TORSDOF 6
