REMARK  Name = ZINC12751432
REMARK  9 active torsions:
REMARK  status: ('A' for Active; 'I' for Inactive)
REMARK    1  A    between atoms: C_1  and  C_2
REMARK    2  A    between atoms: C_2  and  C_4
REMARK    3  A    between atoms: C_2  and  N_10
REMARK    4  A    between atoms: C_11  and  C_13
REMARK    5  A    between atoms: C_18  and  N_19
REMARK    6  A    between atoms: C_20  and  C_22
REMARK    7  A    between atoms: C_22  and  N_23
REMARK    8  A    between atoms: C_26  and  C_30
REMARK    9  A    between atoms: C_26  and  C_31
REMARK                            x       y       z     vdW  Elec       q    Type
REMARK                         _______ _______ _______ _____ _____    ______ ____
ROOT
ATOM      1  N   UNL     1       2.374  -3.449  -1.708  0.00  0.00    -0.284 N 
ATOM      2  C   UNL     1       2.543  -2.147  -1.403  0.00  0.00    +0.235 C 
ATOM      3  O   UNL     1       2.827  -1.352  -2.273  0.00  0.00    -0.274 OA
ATOM      4  H   UNL     1       2.225  -4.097  -1.002  0.00  0.00    +0.155 HD
ENDROOT
BRANCH   1  10
ATOM      5  C   UNL     1       2.771  -5.182  -3.354  0.00  0.00    +0.058 A 
ATOM      6  C   UNL     1       2.800  -5.586  -4.691  0.00  0.00    +0.015 A 
ATOM      7  C   UNL     1       2.487  -4.688  -5.688  0.00  0.00    +0.001 A 
ATOM      8  C   UNL     1       2.139  -3.385  -5.372  0.00  0.00    +0.002 A 
ATOM      9  C   UNL     1       2.101  -2.972  -4.055  0.00  0.00    +0.024 A 
ATOM     10  C   UNL     1       2.412  -3.863  -3.037  0.00  0.00    +0.046 A 
BRANCH   5  12
ATOM     11  N   UNL     1       3.550  -7.372  -2.595  0.00  0.00    -0.305 N 
ATOM     12  C   UNL     1       3.110  -6.137  -2.283  0.00  0.00    +0.246 C 
ATOM     13  O   UNL     1       2.992  -5.810  -1.117  0.00  0.00    -0.270 OA
ATOM     14  H   UNL     1       3.644  -7.633  -3.525  0.00  0.00    +0.150 HD
BRANCH  11  16
ATOM     15  C   UNL     1       2.620  -9.047  -1.075  0.00  0.00    +0.033 C 
ATOM     16  C   UNL     1       3.887  -8.320  -1.531  0.00  0.00    +0.100 C 
BRANCH  16  17
ATOM     17  C   UNL     1       4.883  -9.325  -2.050  0.00  0.00    -0.027 A 
ATOM     18  C   UNL     1       4.750  -9.833  -3.329  0.00  0.00    +0.005 A 
ATOM     19  C   UNL     1       5.666 -10.751  -3.806  0.00  0.00    +0.000 A 
ATOM     20  C   UNL     1       6.710 -11.169  -3.002  0.00  0.00    +0.000 A 
ATOM     21  C   UNL     1       6.841 -10.664  -1.722  0.00  0.00    +0.000 A 
ATOM     22  C   UNL     1       5.927  -9.743  -1.245  0.00  0.00    +0.005 A 
ENDBRANCH  16  17
ENDBRANCH  11  16
ENDBRANCH   5  12
ENDBRANCH   1  10
BRANCH   2  23
ATOM     23  C   UNL     1       2.378  -1.679   0.020  0.00  0.00    +0.214 C 
BRANCH  23  24
ATOM     24  N   UNL     1       2.611  -0.235   0.090  0.00  0.00    -0.215 N 
ATOM     25  C   UNL     1       1.648   0.696  -0.061  0.00  0.00    +0.251 C 
ATOM     26  O   UNL     1       0.470   0.503  -0.270  0.00  0.00    -0.272 OA
ATOM     27  C   UNL     1       2.345   2.034   0.087  0.00  0.00    +0.135 C 
ATOM     28  N   UNL     1       3.752   1.667   0.325  0.00  0.00    -0.281 N 
ATOM     29  C   UNL     1       3.807   0.323   0.309  0.00  0.00    +0.310 C 
ATOM     30  O   UNL     1       4.830  -0.313   0.475  0.00  0.00    -0.252 OA
ATOM     31  C   UNL     1       1.780   2.807   1.280  0.00  0.00    +0.047 C 
ATOM     32  H   UNL     1       4.494   2.276   0.466  0.00  0.00    +0.152 HD
BRANCH  27  33
ATOM     33  C   UNL     1       2.215   2.842  -1.179  0.00  0.00    -0.015 A 
ATOM     34  C   UNL     1       1.108   2.680  -1.991  0.00  0.00    +0.009 A 
ATOM     35  C   UNL     1       0.986   3.424  -3.149  0.00  0.00    +0.039 A 
ATOM     36  C   UNL     1       1.978   4.324  -3.502  0.00  0.00    +0.123 A 
ATOM     37  C   UNL     1       3.088   4.481  -2.691  0.00  0.00    +0.039 A 
ATOM     38  C   UNL     1       3.206   3.740  -1.530  0.00  0.00    +0.009 A 
ATOM     39  F   UNL     1       1.861   5.048  -4.636  0.00  0.00    -0.205 F 
ENDBRANCH  27  33
ENDBRANCH  23  24
ENDBRANCH   2  23
TORSDOF 7
