REMARK  Name = ZINC13123270
REMARK  5 active torsions:
REMARK  status: ('A' for Active; 'I' for Inactive)
REMARK    1  A    between atoms: N_8  and  N_9
REMARK    2  A    between atoms: C_10  and  C_12
REMARK    3  A    between atoms: C_12  and  S_13
REMARK    4  A    between atoms: S_13  and  C_14
REMARK    5  A    between atoms: C_14  and  C_15
REMARK                            x       y       z     vdW  Elec       q    Type
REMARK                         _______ _______ _______ _____ _____    ______ ____
ROOT
ATOM      1  N   UNL     1       1.292  -4.444  -0.035  0.00  0.00    -0.206 N 
ATOM      2  C   UNL     1       0.458  -5.503  -0.032  0.00  0.00    +0.242 C 
ATOM      3  O   UNL     1      -0.742  -5.329  -0.020  0.00  0.00    -0.273 OA
ATOM      4  H   UNL     1       2.252  -4.582  -0.044  0.00  0.00    +0.177 HD
ENDROOT
BRANCH   1  12
ATOM      5  C   UNL     1      -0.017   1.376   0.010  0.00  0.00    +0.001 A 
ATOM      6  C   UNL     1       1.172   2.086   0.002  0.00  0.00    +0.002 A 
ATOM      7  C   UNL     1       2.385   1.427  -0.013  0.00  0.00    +0.024 A 
ATOM      8  C   UNL     1       2.424   0.037  -0.021  0.00  0.00    +0.043 A 
ATOM      9  C   UNL     1       1.219  -0.677  -0.014  0.00  0.00    +0.028 A 
ATOM     10  C   UNL     1       0.002  -0.004   0.002  0.00  0.00    +0.012 A 
ATOM     11  C   UNL     1       1.583  -2.113  -0.025  0.00  0.00    +0.152 C 
ATOM     12  N   UNL     1       0.772  -3.143  -0.023  0.00  0.00    -0.175 NA
ATOM     13  C   UNL     1       3.060  -2.131  -0.039  0.00  0.00    +0.269 C 
ATOM     14  O   UNL     1       3.764  -3.123  -0.051  0.00  0.00    -0.268 OA
ATOM     15  N   UNL     1       3.488  -0.857  -0.036  0.00  0.00    -0.280 N 
ATOM     16  H   UNL     1       4.422  -0.595  -0.044  0.00  0.00    +0.155 HD
ENDBRANCH   1  12
BRANCH   2  17
ATOM     17  C   UNL     1       1.017  -6.902  -0.045  0.00  0.00    +0.166 C 
BRANCH  17  18
ATOM     18  S   UNL     1      -0.347  -8.098  -0.038  0.00  0.00    -0.147 S 
BRANCH  18  19
ATOM     19  C   UNL     1       0.484  -9.711  -0.055  0.00  0.00    +0.104 C 
BRANCH  19  20
ATOM     20  C   UNL     1      -0.549 -10.808  -0.051  0.00  0.00    -0.037 A 
ATOM     21  C   UNL     1      -1.016 -11.313   1.148  0.00  0.00    +0.005 A 
ATOM     22  C   UNL     1      -1.964 -12.319   1.152  0.00  0.00    +0.015 A 
ATOM     23  C   UNL     1      -2.446 -12.820  -0.044  0.00  0.00    +0.018 A 
ATOM     24  C   UNL     1      -1.979 -12.314  -1.243  0.00  0.00    +0.015 A 
ATOM     25  C   UNL     1      -1.035 -11.304  -1.246  0.00  0.00    +0.005 A 
ATOM     26 BR   UNL     1      -3.742 -14.197  -0.039  0.00  0.00    -0.050 Br
ENDBRANCH  19  20
ENDBRANCH  18  19
ENDBRANCH  17  18
ENDBRANCH   2  17
TORSDOF 5
