REMARK  Name = ZINC63281124
REMARK  7 active torsions:
REMARK  status: ('A' for Active; 'I' for Inactive)
REMARK    1  A    between atoms: C_1  and  S_2
REMARK    2  A    between atoms: S_2  and  N_5
REMARK    3  A    between atoms: N_5  and  C_6
REMARK    4  A    between atoms: C_12  and  C_16
REMARK    5  A    between atoms: N_18  and  C_19
REMARK    6  A    between atoms: C_19  and  C_20
REMARK    7  A    between atoms: C_20  and  C_21
REMARK                            x       y       z     vdW  Elec       q    Type
REMARK                         _______ _______ _______ _____ _____    ______ ____
ROOT
ATOM      1  C   UNL     1       6.462  -3.575  -4.884  0.00  0.00    +0.244 C 
ATOM      2  O   UNL     1       6.936  -4.389  -4.115  0.00  0.00    -0.270 OA
ATOM      3  N   UNL     1       6.865  -3.548  -6.170  0.00  0.00    -0.311 N 
ATOM      4  H   UNL     1       6.487  -2.899  -6.783  0.00  0.00    +0.149 HD
ENDROOT
BRANCH   1  10
ATOM      5  C   UNL     1       2.207  -0.061  -1.563  0.00  0.00    +0.224 C 
ATOM      6  N   UNL     1       2.549   0.085  -2.984  0.00  0.00    -0.318 N 
ATOM      7  C   UNL     1       3.498  -0.779  -3.511  0.00  0.00    +0.043 A 
ATOM      8  C   UNL     1       3.947  -0.783  -4.848  0.00  0.00    +0.025 A 
ATOM      9  C   UNL     1       4.891  -1.675  -5.282  0.00  0.00    +0.015 A 
ATOM     10  C   UNL     1       5.445  -2.617  -4.410  0.00  0.00    +0.038 A 
ATOM     11  C   UNL     1       5.015  -2.632  -3.077  0.00  0.00    +0.029 A 
ATOM     12  C   UNL     1       4.069  -1.733  -2.657  0.00  0.00    +0.033 A 
ATOM     13  S   UNL     1       3.297  -1.458  -1.076  0.00  0.00    -0.084 S 
ATOM     14  H   UNL     1       2.126   0.761  -3.535  0.00  0.00    +0.148 HD
BRANCH   5  15
ATOM     15  N   UNL     1       0.795  -0.411  -1.394  0.00  0.00    -0.165 NA
ATOM     16  H   UNL     1       0.324  -0.881  -2.099  0.00  0.00    +0.151 HD
BRANCH  15  18
ATOM     17  C   UNL     1      -0.022   1.810   0.012  0.00  0.00    +0.214 C 
ATOM     18  S   UNL     1       0.002  -0.004   0.002  0.00  0.00    +0.029 S 
ATOM     19  O   UNL     1       0.835  -0.488   1.046  0.00  0.00    -0.158 OA
ATOM     20  O   UNL     1      -1.315  -0.510  -0.168  0.00  0.00    -0.158 OA
ENDBRANCH  15  18
ENDBRANCH   5  15
ENDBRANCH   1  10
BRANCH   3  21
ATOM     21  C   UNL     1       7.875  -4.500  -6.640  0.00  0.00    +0.109 C 
BRANCH  21  22
ATOM     22  C   UNL     1       8.151  -4.257  -8.125  0.00  0.00    +0.052 C 
BRANCH  22  23
ATOM     23  C   UNL     1       9.190  -5.236  -8.610  0.00  0.00    -0.040 C 
ATOM     24  C   UNL     1       8.967  -6.422  -9.221  0.00  0.00    +0.002 A 
ATOM     25  C   UNL     1       7.738  -7.128  -9.602  0.00  0.00    +0.048 A 
ATOM     26  C   UNL     1       7.836  -8.330 -10.217  0.00  0.00    +0.124 A 
ATOM     27  C   UNL     1       9.081  -8.917 -10.496  0.00  0.00    +0.040 A 
ATOM     28  C   UNL     1      10.252  -8.328 -10.175  0.00  0.00    +0.029 A 
ATOM     29  C   UNL     1      10.267  -7.062  -9.527  0.00  0.00    +0.043 A 
ATOM     30  N   UNL     1      11.254  -6.301  -9.121  0.00  0.00    -0.380 N 
ATOM     31  C   UNL     1      10.692  -5.088  -8.516  0.00  0.00    +0.144 C 
ATOM     32  F   UNL     1       6.707  -8.983 -10.569  0.00  0.00    -0.205 F 
ATOM     33  H   UNL     1      12.198  -6.504  -9.209  0.00  0.00    +0.160 HD
ENDBRANCH  22  23
ENDBRANCH  21  22
ENDBRANCH   3  21
TORSDOF 6
