REMARK  Name = ZINC14753513
REMARK  9 active torsions:
REMARK  status: ('A' for Active; 'I' for Inactive)
REMARK    1  A    between atoms: C_1  and  N_2
REMARK    2  A    between atoms: C_10  and  C_11
REMARK    3  A    between atoms: C_10  and  N_66
REMARK    4  A    between atoms: C_16  and  C_17
REMARK    5  A    between atoms: N_24  and  C_27
REMARK    6  A    between atoms: C_27  and  C_28
REMARK    7  A    between atoms: C_28  and  C_29
REMARK    8  A    between atoms: C_32  and  O_35
REMARK    9  A    between atoms: O_35  and  C_36
REMARK                            x       y       z     vdW  Elec       q    Type
REMARK                         _______ _______ _______ _____ _____    ______ ____
ROOT
ATOM      1  C   UNL     1      -4.086   0.477   4.373  0.00  0.00    +0.143 C 
ATOM      2  N   UNL     1      -3.311   0.468   3.131  0.00  0.00    -0.227 N 
ATOM      3  C   UNL     1      -2.902   1.579   2.484  0.00  0.00    +0.246 C 
ATOM      4  O   UNL     1      -3.099   2.731   2.807  0.00  0.00    -0.273 OA
ATOM      5  C   UNL     1      -2.147   1.085   1.272  0.00  0.00    +0.112 C 
ATOM      6  C   UNL     1      -0.696   1.554   1.319  0.00  0.00    +0.017 C 
ATOM      7  C   UNL     1       0.036   1.062   0.067  0.00  0.00    -0.076 C 
ATOM      8  C   UNL     1      -2.020   1.071  -1.218  0.00  0.00    -0.076 C 
ATOM      9  C   UNL     1      -2.821   1.563  -0.010  0.00  0.00    +0.017 C 
ATOM     10  N   UNL     1      -2.219  -0.378   1.377  0.00  0.00    -0.271 N 
ATOM     11  C   UNL     1      -2.919  -0.644   2.496  0.00  0.00    +0.312 C 
ATOM     12  O   UNL     1      -3.168  -1.768   2.886  0.00  0.00    -0.252 OA
ATOM     13  N   UNL     1      -0.644   1.605  -1.129  0.00  0.00    +0.383 N 
ATOM     14  H   UNL     1      -0.688   2.628  -1.051  0.00  0.00    -0.081 HD
ENDROOT
BRANCH  13  15
ATOM     15  C   UNL     1       0.115   1.249  -2.345  0.00  0.00    -0.039 C 
BRANCH  15  16
ATOM     16  C   UNL     1      -0.720   1.567  -3.559  0.00  0.00    -0.019 A 
ATOM     17  C   UNL     1      -1.423   0.679  -4.296  0.00  0.00    +0.107 A 
ATOM     18  N   UNL     1      -2.034   1.356  -5.292  0.00  0.00    -0.284 N 
ATOM     19  H   UNL     1      -2.623   0.959  -5.995  0.00  0.00    +0.188 HD
ATOM     20  N   UNL     1      -1.699   2.710  -5.169  0.00  0.00    -0.174 NA
ATOM     21  C   UNL     1      -0.912   2.844  -4.122  0.00  0.00    +0.094 A 
BRANCH  21  22
ATOM     22  C   UNL     1      -0.327   4.114  -3.626  0.00  0.00    +0.002 A 
ATOM     23  C   UNL     1      -0.159   4.319  -2.258  0.00  0.00    +0.013 A 
ATOM     24  C   UNL     1       0.390   5.499  -1.802  0.00  0.00    +0.039 A 
ATOM     25  C   UNL     1       0.765   6.485  -2.700  0.00  0.00    +0.123 A 
ATOM     26  C   UNL     1       0.595   6.288  -4.061  0.00  0.00    +0.039 A 
ATOM     27  C   UNL     1       0.051   5.108  -4.527  0.00  0.00    +0.013 A 
ATOM     28  F   UNL     1       1.298   7.641  -2.249  0.00  0.00    -0.205 F 
ENDBRANCH  21  22
ENDBRANCH  15  16
ENDBRANCH  13  15
BRANCH  10  29
ATOM     29  C   UNL     1      -1.643  -1.354   0.449  0.00  0.00    +0.115 C 
BRANCH  29  30
ATOM     30  C   UNL     1      -0.523  -2.126   1.150  0.00  0.00    +0.054 C 
BRANCH  30  31
ATOM     31  C   UNL     1       0.149  -3.043   0.162  0.00  0.00    -0.046 A 
ATOM     32  C   UNL     1      -0.314  -4.335  -0.007  0.00  0.00    +0.007 A 
ATOM     33  C   UNL     1       0.298  -5.176  -0.916  0.00  0.00    +0.046 A 
ATOM     34  C   UNL     1       1.385  -4.728  -1.652  0.00  0.00    +0.120 A 
ATOM     35  C   UNL     1       1.852  -3.433  -1.477  0.00  0.00    +0.046 A 
ATOM     36  C   UNL     1       1.233  -2.594  -0.570  0.00  0.00    +0.007 A 
BRANCH  34  37
ATOM     37  O   UNL     1       1.991  -5.555  -2.543  0.00  0.00    -0.495 OA
ATOM     38  C   UNL     1       1.457  -6.874  -2.672  0.00  0.00    +0.277 C 
ENDBRANCH  34  37
ENDBRANCH  30  31
ENDBRANCH  29  30
ENDBRANCH  10  29
TORSDOF 7
