REMARK  Name = ZINC12367113
REMARK  10 active torsions:
REMARK  status: ('A' for Active; 'I' for Inactive)
REMARK    1  A    between atoms: C_1  and  C_2
REMARK    2  A    between atoms: C_8  and  C_9
REMARK    3  A    between atoms: C_8  and  N_56
REMARK    4  A    between atoms: C_9  and  C_10
REMARK    5  A    between atoms: C_10  and  N_11
REMARK    6  A    between atoms: N_11  and  S_12
REMARK    7  A    between atoms: S_12  and  C_15
REMARK    8  A    between atoms: C_18  and  S_20
REMARK    9  A    between atoms: S_20  and  C_23
REMARK   10  A    between atoms: C_26  and  C_29
REMARK                            x       y       z     vdW  Elec       q    Type
REMARK                         _______ _______ _______ _____ _____    ______ ____
ROOT
ATOM      1  C   UNL     1      -2.825   7.927   4.901  0.00  0.00    +0.144 A 
ATOM      2  C   UNL     1      -3.932   7.475   4.263  0.00  0.00    +0.038 A 
ATOM      3  C   UNL     1      -4.133   6.112   4.154  0.00  0.00    +0.037 A 
ATOM      4  C   UNL     1      -3.223   5.267   4.697  0.00  0.00    +0.134 A 
ATOM      5  S   UNL     1      -2.026   6.403   5.379  0.00  0.00    -0.050 S 
ENDROOT
BRANCH   1   6
ATOM      6  S   UNL     1      -2.307   9.587   5.184  0.00  0.00    +0.065 S 
ATOM      7  O   UNL     1      -0.898   9.548   5.365  0.00  0.00    -0.153 OA
ATOM      8  O   UNL     1      -2.925  10.382   4.181  0.00  0.00    -0.153 OA
BRANCH   6   9
ATOM      9  N   UNL     1      -2.957  10.062   6.631  0.00  0.00    -0.190 NA
ATOM     10  H   UNL     1      -3.614  10.775   6.657  0.00  0.00    +0.148 HD
BRANCH   9  11
ATOM     11  C   UNL     1      -2.538   9.406   7.873  0.00  0.00    +0.104 C 
BRANCH  11  12
ATOM     12  C   UNL     1      -2.980  10.250   9.070  0.00  0.00    -0.002 C 
BRANCH  12  13
ATOM     13  C   UNL     1      -2.544   9.565  10.366  0.00  0.00    -0.077 C 
BRANCH  13  20
ATOM     14  C   UNL     1      -3.670   8.304  12.615  0.00  0.00    -0.013 C 
ATOM     15  C   UNL     1      -2.881   9.606  12.763  0.00  0.00    -0.072 C 
ATOM     16  C   UNL     1      -3.465  10.429  13.914  0.00  0.00    -0.016 C 
ATOM     17  C   UNL     1      -2.684  11.740  14.045  0.00  0.00    -0.003 C 
ATOM     18  C   UNL     1      -2.751  12.499  12.717  0.00  0.00    -0.019 C 
ATOM     19  C   UNL     1      -2.187  11.616  11.601  0.00  0.00    -0.078 C 
ATOM     20  N   UNL     1      -2.997  10.383  11.510  0.00  0.00    +0.381 N 
ATOM     21  H   UNL     1      -3.980  10.640  11.368  0.00  0.00    -0.081 HD
ENDBRANCH  13  20
ENDBRANCH  12  13
ENDBRANCH  11  12
ENDBRANCH   9  11
ENDBRANCH   6   9
ENDBRANCH   1   6
BRANCH   4  22
ATOM     22  S   UNL     1      -3.218   3.505   4.718  0.00  0.00    +0.048 S 
ATOM     23  O   UNL     1      -4.570   3.094   4.574  0.00  0.00    -0.162 OA
ATOM     24  O   UNL     1      -2.416   3.115   5.824  0.00  0.00    -0.162 OA
BRANCH  22  25
ATOM     25  C   UNL     1      -2.371   2.970   3.268  0.00  0.00    +0.182 A 
ATOM     26  C   UNL     1      -1.004   2.772   3.309  0.00  0.00    +0.048 A 
ATOM     27  C   UNL     1      -0.348   2.350   2.163  0.00  0.00    +0.017 A 
ATOM     28  C   UNL     1      -1.095   2.142   1.014  0.00  0.00    +0.073 A 
ATOM     29  C   UNL     1      -2.458   2.366   1.047  0.00  0.00    +0.125 A 
ATOM     30  N   UNL     1      -3.050   2.762   2.157  0.00  0.00    -0.236 NA
BRANCH  28  31
ATOM     31  C   UNL     1      -0.427   1.683  -0.257  0.00  0.00    +0.419 C 
ATOM     32  F   UNL     1      -0.413   0.285  -0.298  0.00  0.00    -0.166 F 
ATOM     33  F   UNL     1       0.886   2.165  -0.294  0.00  0.00    -0.166 F 
ATOM     34  F   UNL     1      -1.135   2.175  -1.359  0.00  0.00    -0.166 F 
ENDBRANCH  28  31
ENDBRANCH  22  25
ENDBRANCH   4  22
TORSDOF 9
