REMARK  Name = ZINC01444451
REMARK  10 active torsions:
REMARK  status: ('A' for Active; 'I' for Inactive)
REMARK    1  A    between atoms: C_1  and  C_2
REMARK    2  A    between atoms: C_2  and  C_3
REMARK    3  A    between atoms: C_3  and  C_27
REMARK    4  A    between atoms: C_4  and  C_25
REMARK    5  A    between atoms: C_4  and  O_26
REMARK    6  A    between atoms: N_5  and  C_9
REMARK    7  A    between atoms: C_9  and  C_10
REMARK    8  A    between atoms: C_10  and  C_11
REMARK    9  A    between atoms: C_12  and  C_24
REMARK   10  A    between atoms: C_18  and  N_21
REMARK                            x       y       z     vdW  Elec       q    Type
REMARK                         _______ _______ _______ _____ _____    ______ ____
ROOT
ATOM      1  C   UNL     1      -1.760   4.206   0.039  0.00  0.00    +0.056 C 
ENDROOT
BRANCH   1   2
ATOM      2  C   UNL     1      -0.809   3.037   0.025  0.00  0.00    -0.018 A 
ATOM      3  C   UNL     1      -1.142   1.737   0.016  0.00  0.00    +0.017 A 
ATOM      4  N   UNL     1      -0.011   0.966   0.007  0.00  0.00    -0.358 N 
ATOM      5  H   UNL     1       0.002  -0.004   0.002  0.00  0.00    +0.166 HD
ATOM      6  C   UNL     1       1.105   1.772   0.001  0.00  0.00    +0.047 A 
ATOM      7  C   UNL     1       0.654   3.105   0.012  0.00  0.00    +0.005 A 
ATOM      8  C   UNL     1       1.577   4.152   0.008  0.00  0.00    +0.043 A 
ATOM      9  C   UNL     1       2.916   3.877  -0.005  0.00  0.00    +0.127 A 
ATOM     10  C   UNL     1       3.365   2.564  -0.016  0.00  0.00    +0.035 A 
ATOM     11  C   UNL     1       2.472   1.515  -0.013  0.00  0.00    +0.028 A 
ATOM     12  C   UNL     1      -2.551   1.204   0.019  0.00  0.00    +0.063 C 
BRANCH   9  13
ATOM     13  N   UNL     1       3.893   4.988  -0.009  0.00  0.00    +0.056 N 
ATOM     14  O   UNL     1       3.504   6.142  -0.001  0.00  0.00    -0.126 OA
ATOM     15  O   UNL     1       5.088   4.748  -0.022  0.00  0.00    -0.126 OA
ENDBRANCH   9  13
ENDBRANCH   1   2
BRANCH   1  16
ATOM     16  C   UNL     1      -2.096   4.608  -1.398  0.00  0.00    +0.119 C 
BRANCH  16  19
ATOM     17  C   UNL     1      -3.980   7.912  -1.366  0.00  0.00    +0.157 C 
ATOM     18  C   UNL     1      -2.633   7.163  -1.381  0.00  0.00    +0.175 C 
ATOM     19  N   UNL     1      -3.021   5.744  -1.384  0.00  0.00    -0.235 N 
ATOM     20  C   UNL     1      -4.358   5.660  -1.378  0.00  0.00    +0.406 C 
ATOM     21  O   UNL     1      -4.956   4.602  -1.384  0.00  0.00    -0.226 OA
ATOM     22  O   UNL     1      -4.975   6.847  -1.362  0.00  0.00    -0.439 OA
ATOM     23  C   UNL     1      -1.841   7.507  -2.644  0.00  0.00    +0.068 C 
ATOM     24  C   UNL     1      -4.126   8.778  -2.618  0.00  0.00    +0.060 C 
BRANCH  17  26
ATOM     25  C   UNL     1      -5.448   9.498  -0.112  0.00  0.00    +0.008 C 
ATOM     26  C   UNL     1      -4.104   8.766  -0.103  0.00  0.00    +0.049 C 
ENDBRANCH  17  26
BRANCH  18  27
ATOM     27  O   UNL     1      -1.873   7.473  -0.211  0.00  0.00    -0.368 OA
ATOM     28  H   UNL     1      -1.044   6.980  -0.138  0.00  0.00    +0.212 HD
ENDBRANCH  18  27
ENDBRANCH  16  19
ENDBRANCH   1  16
TORSDOF 6
