REMARK  Name = ZINC09267124
REMARK  10 active torsions:
REMARK  status: ('A' for Active; 'I' for Inactive)
REMARK    1  A    between atoms: C_1  and  C_2
REMARK    2  A    between atoms: C_2  and  C_4
REMARK    3  A    between atoms: C_5  and  N_31
REMARK    4  A    between atoms: C_12  and  C_14
REMARK    5  A    between atoms: C_16  and  O_24
REMARK    6  A    between atoms: C_17  and  O_22
REMARK    7  A    between atoms: C_18  and  O_20
REMARK    8  A    between atoms: O_20  and  C_21
REMARK    9  A    between atoms: O_22  and  C_23
REMARK   10  A    between atoms: O_24  and  C_25
REMARK                            x       y       z     vdW  Elec       q    Type
REMARK                         _______ _______ _______ _____ _____    ______ ____
ROOT
ATOM      1  C   UNL     1       4.158   7.667   0.967  0.00  0.00    +0.077 A 
ATOM      2  C   UNL     1       4.210   6.500   0.193  0.00  0.00    +0.048 A 
ATOM      3  C   UNL     1       4.845   5.384   0.701  0.00  0.00    +0.014 A 
ATOM      4  C   UNL     1       5.399   5.510   1.971  0.00  0.00    +0.076 A 
ATOM      5  S   UNL     1       5.028   7.171   2.447  0.00  0.00    -0.068 S 
ATOM      6  N   UNL     1       6.069   4.514   2.626  0.00  0.00    -0.312 N 
ATOM      7  C   UNL     1       6.484   3.428   1.890  0.00  0.00    +0.016 C 
ATOM      8  C   UNL     1       6.002   3.182   0.654  0.00  0.00    +0.024 C 
ATOM      9  C   UNL     1       4.973   4.055  -0.024  0.00  0.00    +0.088 C 
ATOM     10  C   UNL     1       6.452   2.064  -0.077  0.00  0.00    +0.162 C 
ATOM     11  O   UNL     1       6.022   1.877  -1.198  0.00  0.00    -0.292 OA
ATOM     12  C   UNL     1       7.452   1.099   0.494  0.00  0.00    +0.080 C 
ATOM     13  C   UNL     1       7.318   1.090   2.021  0.00  0.00    +0.014 C 
ATOM     14  C   UNL     1       7.511   2.522   2.525  0.00  0.00    +0.051 C 
ATOM     15  H   UNL     1       6.245   4.571   3.579  0.00  0.00    +0.152 HD
ENDROOT
BRANCH   9  16
ATOM     16  C   UNL     1       3.639   3.352  -0.015  0.00  0.00    -0.028 A 
ATOM     17  C   UNL     1       3.018   3.037  -1.209  0.00  0.00    +0.054 A 
ATOM     18  C   UNL     1       1.792   2.390  -1.205  0.00  0.00    +0.165 A 
ATOM     19  C   UNL     1       1.187   2.059   0.002  0.00  0.00    +0.204 A 
ATOM     20  C   UNL     1       1.812   2.382   1.200  0.00  0.00    +0.165 A 
ATOM     21  C   UNL     1       3.041   3.025   1.188  0.00  0.00    +0.054 A 
BRANCH  20  22
ATOM     22  O   UNL     1       1.222   2.065   2.384  0.00  0.00    -0.491 OA
ATOM     23  C   UNL     1       1.921   2.428   3.575  0.00  0.00    +0.277 C 
ENDBRANCH  20  22
BRANCH  19  24
ATOM     24  O   UNL     1      -0.017   1.425   0.010  0.00  0.00    -0.488 OA
ATOM     25  C   UNL     1       0.002  -0.004   0.002  0.00  0.00    +0.277 C 
ENDBRANCH  19  24
BRANCH  18  26
ATOM     26  O   UNL     1       1.182   2.080  -2.380  0.00  0.00    -0.491 OA
ATOM     27  C   UNL     1       1.861   2.451  -3.581  0.00  0.00    +0.277 C 
ENDBRANCH  18  26
ENDBRANCH   9  16
BRANCH   1  29
ATOM     28  C   UNL     1       3.639  10.030   1.656  0.00  0.00    +0.092 C 
ATOM     29  C   UNL     1       3.575   8.899   0.662  0.00  0.00    +0.168 C 
ATOM     30  O   UNL     1       3.016   9.059  -0.407  0.00  0.00    -0.292 OA
ENDBRANCH   1  29
BRANCH   2  31
ATOM     31  N   UNL     1       3.631   6.467  -1.069  0.00  0.00    -0.357 N 
ATOM     32  H   UNL     1       3.671   5.656  -1.600  0.00  0.00    +0.142 HD
ATOM     33  H   UNL     1       3.186   7.254  -1.420  0.00  0.00    +0.142 HD
ENDBRANCH   2  31
TORSDOF 6
