REMARK  Name = ZINC66527752
REMARK  8 active torsions:
REMARK  status: ('A' for Active; 'I' for Inactive)
REMARK    1  A    between atoms: C_1  and  C_2
REMARK    2  A    between atoms: C_2  and  C_23
REMARK    3  A    between atoms: N_5  and  C_9
REMARK    4  A    between atoms: C_9  and  C_10
REMARK    5  A    between atoms: N_12  and  C_13
REMARK    6  A    between atoms: C_13  and  C_14
REMARK    7  A    between atoms: C_13  and  C_15
REMARK    8  A    between atoms: C_13  and  C_16
REMARK                            x       y       z     vdW  Elec       q    Type
REMARK                         _______ _______ _______ _____ _____    ______ ____
ROOT
ATOM      1  C   UNL     1      -0.257   1.609  -0.185  0.00  0.00    +0.047 C 
ATOM      2  C   UNL     1      -0.203   0.080  -0.202  0.00  0.00    +0.135 C 
ATOM      3  C   UNL     1      -1.583  -0.505   0.024  0.00  0.00    +0.251 C 
ATOM      4  O   UNL     1      -2.563  -0.359  -0.674  0.00  0.00    -0.272 OA
ATOM      5  N   UNL     1      -1.492  -1.224   1.160  0.00  0.00    -0.215 N 
ATOM      6  C   UNL     1      -0.260  -1.174   1.679  0.00  0.00    +0.310 C 
ATOM      7  O   UNL     1       0.067  -1.744   2.702  0.00  0.00    -0.252 OA
ATOM      8  N   UNL     1       0.578  -0.424   0.941  0.00  0.00    -0.281 N 
ATOM      9  H   UNL     1       1.514  -0.249   1.125  0.00  0.00    +0.152 HD
ENDROOT
BRANCH   2  10
ATOM     10  C   UNL     1       0.380  -0.413  -1.501  0.00  0.00    -0.016 A 
ATOM     11  C   UNL     1      -0.450  -0.682  -2.574  0.00  0.00    +0.006 A 
ATOM     12  C   UNL     1       0.084  -1.135  -3.765  0.00  0.00    +0.000 A 
ATOM     13  C   UNL     1       1.449  -1.319  -3.885  0.00  0.00    +0.000 A 
ATOM     14  C   UNL     1       2.280  -1.049  -2.813  0.00  0.00    +0.000 A 
ATOM     15  C   UNL     1       1.745  -0.592  -1.623  0.00  0.00    +0.006 A 
ENDBRANCH   2  10
BRANCH   5  16
ATOM     16  C   UNL     1      -2.606  -1.967   1.755  0.00  0.00    +0.213 C 
BRANCH  16  17
ATOM     17  C   UNL     1      -2.625  -3.369   1.205  0.00  0.00    +0.232 C 
ATOM     18  O   UNL     1      -1.790  -3.715   0.395  0.00  0.00    -0.274 OA
ATOM     19  N   UNL     1      -3.569  -4.240   1.612  0.00  0.00    -0.305 N 
ATOM     20  H   UNL     1      -4.237  -3.964   2.260  0.00  0.00    +0.150 HD
BRANCH  19  21
ATOM     21  C   UNL     1      -3.588  -5.604   1.077  0.00  0.00    +0.054 C 
ATOM     22  C   UNL     1      -3.791  -5.555  -0.438  0.00  0.00    +0.036 C 
ATOM     23  C   UNL     1      -2.259  -6.294   1.392  0.00  0.00    +0.036 C 
BRANCH  21  24
ATOM     24  C   UNL     1      -4.717  -6.377   1.710  0.00  0.00    -0.025 A 
ATOM     25  C   UNL     1      -5.264  -7.463   1.053  0.00  0.00    +0.007 A 
ATOM     26  C   UNL     1      -6.299  -8.171   1.633  0.00  0.00    +0.020 A 
ATOM     27  C   UNL     1      -6.788  -7.794   2.871  0.00  0.00    +0.041 A 
ATOM     28  C   UNL     1      -6.239  -6.707   3.528  0.00  0.00    +0.020 A 
ATOM     29  C   UNL     1      -5.200  -6.002   2.950  0.00  0.00    +0.007 A 
ATOM     30 CL   UNL     1      -8.088  -8.684   3.599  0.00  0.00    -0.084 Cl
ENDBRANCH  21  24
ENDBRANCH  19  21
ENDBRANCH  16  17
ENDBRANCH   5  16
TORSDOF 5
