REMARK  Name = ZINC51042017
REMARK  2 active torsions:
REMARK  status: ('A' for Active; 'I' for Inactive)
REMARK    1  A    between atoms: C_1  and  C_2
REMARK    2  A    between atoms: CA_16  and  C_18
REMARK                            x       y       z     vdW  Elec       q    Type
REMARK                         _______ _______ _______ _____ _____    ______ ____
ROOT
ATOM      1  C   UNL     1      -0.019   1.526   0.010  0.00  0.00    +0.029 C 
ATOM      2  C   UNL     1       0.002  -0.004   0.002  0.00  0.00    +0.082 C 
ATOM      3  C   UNL     1       0.778  -0.520  -1.221  0.00  0.00    +0.059 C 
ATOM      4  C   UNL     1       1.931  -1.304  -0.636  0.00  0.00    -0.024 A 
ATOM      5  C   UNL     1       2.960  -1.995  -1.247  0.00  0.00    +0.005 A 
ATOM      6  C   UNL     1       3.911  -2.644  -0.482  0.00  0.00    +0.000 A 
ATOM      7  C   UNL     1       3.832  -2.600   0.898  0.00  0.00    +0.002 A 
ATOM      8  C   UNL     1       2.808  -1.911   1.512  0.00  0.00    +0.024 A 
ATOM      9  C   UNL     1       1.843  -1.253   0.746  0.00  0.00    +0.039 A 
ATOM     10  N   UNL     1       0.735  -0.509   1.166  0.00  0.00    -0.282 N 
ATOM     11  C   UNL     1       0.382  -0.280   2.491  0.00  0.00    +0.127 A 
ATOM     12  C   UNL     1      -0.809   0.387   2.782  0.00  0.00    +0.044 A 
ATOM     13  C   UNL     1      -1.154   0.611   4.102  0.00  0.00    +0.006 A 
ATOM     14  C   UNL     1      -0.298   0.159   5.098  0.00  0.00    +0.035 A 
ATOM     15  CA  UNL     1       0.874  -0.500   4.739  0.00  0.00    +0.154 A 
ATOM     16  N   UNL     1       1.173  -0.702   3.460  0.00  0.00    -0.225 NA
ENDROOT
BRANCH  15  17
ATOM     17  C   UNL     1       1.793  -0.985   5.792  0.00  0.00    +0.405 C 
ATOM     18  O   UNL     1       1.522  -0.805   6.970  0.00  0.00    -0.239 OA
ATOM     19  OXT UNL     1       2.825  -1.564   5.483  0.00  0.00    -0.239 OA
ENDBRANCH  15  17
TORSDOF 1
