REMARK  Name = ZINC21317638
REMARK  8 active torsions:
REMARK  status: ('A' for Active; 'I' for Inactive)
REMARK    1  A    between atoms: C_4  and  C_7
REMARK    2  A    between atoms: C_8  and  C_9
REMARK    3  A    between atoms: N_10  and  N_11
REMARK    4  A    between atoms: C_15  and  S_18
REMARK    5  A    between atoms: N_16  and  N_17
REMARK    6  A    between atoms: S_18  and  C_19
REMARK    7  A    between atoms: C_19  and  C_20
REMARK    8  A    between atoms: N_22  and  C_23
REMARK                            x       y       z     vdW  Elec       q    Type
REMARK                         _______ _______ _______ _____ _____    ______ ____
ROOT
ATOM      1  N   UNL     1       4.797   1.155  -4.573  0.00  0.00    -0.204 N 
ATOM      2  C   UNL     1       3.989   1.164  -3.446  0.00  0.00    +0.254 A 
ATOM      3  N   UNL     1       3.403   0.128  -2.900  0.00  0.00    -0.109 NA
ATOM      4  N   UNL     1       2.735   0.494  -1.865  0.00  0.00    -0.119 NA
ATOM      5  C   UNL     1       2.847   1.789  -1.693  0.00  0.00    +0.210 A 
ATOM      6  N   UNL     1       3.654   2.261  -2.694  0.00  0.00    -0.211 N 
ATOM      7  H   UNL     1       5.238   2.092  -4.942  0.00  0.00    +0.177 HD
ENDROOT
BRANCH   6   8
ATOM      8  N   UNL     1       4.044   3.554  -2.900  0.00  0.00    -0.294 N 
ATOM      9  H   UNL     1       3.702   4.346  -2.217  0.00  0.00    +0.163 HD
ATOM     10  H   UNL     1       4.699   3.803  -3.748  0.00  0.00    +0.163 HD
ENDBRANCH   6   8
BRANCH   1  12
ATOM     11  C   UNL     1       5.812  -0.059  -6.301  0.00  0.00    +0.130 C 
ATOM     12  N   UNL     1       5.052  -0.050  -5.242  0.00  0.00    -0.188 NA
BRANCH  11  14
ATOM     13  C   UNL     1       6.856  -1.287  -8.074  0.00  0.00    +0.009 C 
ATOM     14  C   UNL     1       6.069  -1.277  -6.978  0.00  0.00    +0.022 C 
BRANCH  13  18
ATOM     15  C   UNL     1       7.628  -4.934 -10.098  0.00  0.00    +0.000 A 
ATOM     16  C   UNL     1       8.184  -3.755 -10.566  0.00  0.00    +0.001 A 
ATOM     17  C   UNL     1       7.938  -2.566  -9.914  0.00  0.00    +0.008 A 
ATOM     18  C   UNL     1       7.123  -2.552  -8.777  0.00  0.00    -0.025 A 
ATOM     19  C   UNL     1       6.569  -3.747  -8.308  0.00  0.00    +0.008 A 
ATOM     20  C   UNL     1       6.821  -4.928  -8.974  0.00  0.00    +0.001 A 
ENDBRANCH  13  18
ENDBRANCH  11  14
ENDBRANCH   1  12
BRANCH   5  21
ATOM     21  S   UNL     1       2.104   2.742  -0.410  0.00  0.00    -0.075 S 
BRANCH  21  22
ATOM     22  C   UNL     1       1.220   1.436   0.480  0.00  0.00    +0.173 C 
BRANCH  22  23
ATOM     23  C   UNL     1       0.489   2.035   1.654  0.00  0.00    +0.228 C 
ATOM     24  O   UNL     1       0.559   3.227   1.868  0.00  0.00    -0.275 OA
ATOM     25  N   UNL     1      -0.242   1.246   2.466  0.00  0.00    -0.280 N 
ATOM     26  H   UNL     1      -0.373   0.181   2.225  0.00  0.00    +0.155 HD
BRANCH  25  27
ATOM     27  C   UNL     1      -0.834   1.783   3.617  0.00  0.00    +0.105 A 
ATOM     28  C   UNL     1      -0.135   1.798   4.818  0.00  0.00    +0.147 A 
ATOM     29  C   UNL     1      -0.722   2.334   5.951  0.00  0.00    +0.040 A 
ATOM     30  C   UNL     1      -2.006   2.844   5.891  0.00  0.00    +0.006 A 
ATOM     31  C   UNL     1      -2.707   2.825   4.700  0.00  0.00    +0.040 A 
ATOM     32  C   UNL     1      -2.125   2.296   3.562  0.00  0.00    +0.147 A 
ATOM     33  F   UNL     1      -2.811   2.277   2.398  0.00  0.00    -0.203 F 
ATOM     34  F   UNL     1       1.117   1.296   4.878  0.00  0.00    -0.203 F 
ENDBRANCH  25  27
ENDBRANCH  22  23
ENDBRANCH  21  22
ENDBRANCH   5  21
TORSDOF 8
