REMARK  Name = ZINC36828042
REMARK  6 active torsions:
REMARK  status: ('A' for Active; 'I' for Inactive)
REMARK    1  A    between atoms: C_1  and  C_2
REMARK    2  A    between atoms: C_8  and  N_10
REMARK    3  A    between atoms: C_14  and  C_16
REMARK    4  A    between atoms: C_16  and  N_17
REMARK    5  A    between atoms: C_20  and  C_24
REMARK    6  A    between atoms: C_20  and  C_25
REMARK                            x       y       z     vdW  Elec       q    Type
REMARK                         _______ _______ _______ _____ _____    ______ ____
ROOT
ATOM      1  N   UNL     1       6.665   1.296   4.896  0.00  0.00    -0.215 N 
ATOM      2  C   UNL     1       6.542   2.361   5.713  0.00  0.00    +0.251 C 
ATOM      3  O   UNL     1       6.006   3.419   5.462  0.00  0.00    -0.272 OA
ATOM      4  C   UNL     1       7.212   1.960   7.013  0.00  0.00    +0.136 C 
ATOM      5  N   UNL     1       7.678   0.587   6.753  0.00  0.00    -0.281 N 
ATOM      6  C   UNL     1       7.308   0.287   5.495  0.00  0.00    +0.310 C 
ATOM      7  O   UNL     1       7.536  -0.780   4.960  0.00  0.00    -0.252 OA
ATOM      8  C   UNL     1       8.394   2.882   7.315  0.00  0.00    +0.047 C 
ATOM      9  H   UNL     1       8.156   0.011   7.369  0.00  0.00    +0.152 HD
ENDROOT
BRANCH   4  10
ATOM     10  C   UNL     1       6.220   1.977   8.148  0.00  0.00    +0.003 A 
ATOM     11  C   UNL     1       5.969   0.821   8.863  0.00  0.00    +0.009 A 
ATOM     12  C   UNL     1       5.060   0.836   9.904  0.00  0.00    +0.020 A 
ATOM     13  C   UNL     1       4.401   2.008  10.231  0.00  0.00    +0.042 A 
ATOM     14  C   UNL     1       4.652   3.165   9.515  0.00  0.00    +0.040 A 
ATOM     15  C   UNL     1       5.566   3.151   8.477  0.00  0.00    +0.048 A 
ATOM     16 CL   UNL     1       5.886   4.604   7.582  0.00  0.00    -0.083 Cl
ATOM     17 CL   UNL     1       3.259   2.027  11.538  0.00  0.00    -0.083 Cl
ENDBRANCH   4  10
BRANCH   1  18
ATOM     18  C   UNL     1       6.152   1.247   3.525  0.00  0.00    +0.214 C 
BRANCH  18  23
ATOM     19  N   UNL     1       2.116  -0.004   1.231  0.00  0.00    -0.296 N 
ATOM     20  C   UNL     1       2.795   0.128   2.388  0.00  0.00    +0.306 C 
ATOM     21  O   UNL     1       2.267  -0.174   3.440  0.00  0.00    -0.252 OA
ATOM     22  N   UNL     1       4.059   0.594   2.379  0.00  0.00    -0.239 N 
ATOM     23  C   UNL     1       4.738   0.726   3.536  0.00  0.00    +0.238 C 
ATOM     24  O   UNL     1       4.211   0.424   4.585  0.00  0.00    -0.274 OA
ATOM     25  H   UNL     1       2.538   0.237   0.392  0.00  0.00    +0.151 HD
ATOM     26  H   UNL     1       4.481   0.835   1.539  0.00  0.00    +0.159 HD
BRANCH  19  33
ATOM     27  C   UNL     1      -0.019   1.526   0.010  0.00  0.00    +0.009 C 
ATOM     28  C   UNL     1       0.002  -0.004   0.002  0.00  0.00    +0.006 C 
ATOM     29  C   UNL     1       0.718  -0.497  -1.257  0.00  0.00    +0.005 C 
ATOM     30  C   UNL     1       0.739  -2.027  -1.265  0.00  0.00    +0.000 C 
ATOM     31  C   UNL     1       1.479  -2.534  -0.026  0.00  0.00    +0.002 C 
ATOM     32  C   UNL     1       0.763  -2.041   1.233  0.00  0.00    +0.022 C 
ATOM     33  C   UNL     1       0.742  -0.511   1.242  0.00  0.00    +0.077 C 
ENDBRANCH  19  33
ENDBRANCH  18  23
ENDBRANCH   1  18
TORSDOF 4
