REMARK  Name = ZINC35518987
REMARK  7 active torsions:
REMARK  status: ('A' for Active; 'I' for Inactive)
REMARK    1  A    between atoms: C_3  and  C_11
REMARK    2  A    between atoms: C_6  and  N_7
REMARK    3  A    between atoms: C_14  and  C_16
REMARK    4  A    between atoms: N_20  and  N_24
REMARK    5  A    between atoms: C_25  and  C_27
REMARK    6  A    between atoms: C_27  and  C_28
REMARK    7  A    between atoms: C_28  and  N_29
REMARK                            x       y       z     vdW  Elec       q    Type
REMARK                         _______ _______ _______ _____ _____    ______ ____
ROOT
ATOM      1  C   UNL     1       5.826   4.667  -1.232  0.00  0.00    +0.066 C 
ATOM      2  C   UNL     1       5.236   5.278  -2.351  0.00  0.00    +0.082 C 
ATOM      3  C   UNL     1       3.886   5.047  -2.938  0.00  0.00    +0.275 C 
ATOM      4  O   UNL     1       3.108   4.245  -2.464  0.00  0.00    -0.267 OA
ATOM      5  N   UNL     1       3.584   5.770  -4.006  0.00  0.00    -0.170 N 
ATOM      6  C   UNL     1       4.495   6.643  -4.480  0.00  0.00    +0.138 C 
ATOM      7  S   UNL     1       4.359   7.686  -5.830  0.00  0.00    -0.026 S 
ATOM      8  S   UNL     1       5.873   6.461  -3.364  0.00  0.00    -0.059 S 
ENDROOT
BRANCH   1  12
ATOM      9  C   UNL     1       3.839   1.899  -0.269  0.00  0.00    +0.137 A 
ATOM     10  C   UNL     1       4.765   1.881   0.795  0.00  0.00    +0.050 A 
ATOM     11  C   UNL     1       5.639   2.905   0.596  0.00  0.00    +0.050 A 
ATOM     12  C   UNL     1       5.221   3.568  -0.643  0.00  0.00    +0.130 A 
ATOM     13  O   UNL     1       4.138   2.905  -1.107  0.00  0.00    -0.455 OA
BRANCH   9  16
ATOM     14  C   UNL     1       0.400   0.559  -0.848  0.00  0.00    +0.033 A 
ATOM     15  C   UNL     1       1.432   1.440  -0.692  0.00  0.00    +0.015 A 
ATOM     16  C   UNL     1       2.729   0.962  -0.437  0.00  0.00    +0.036 A 
ATOM     17  C   UNL     1       2.951  -0.425  -0.345  0.00  0.00    +0.054 A 
ATOM     18  C   UNL     1       1.895  -1.296  -0.506  0.00  0.00    +0.053 A 
ATOM     19  C   UNL     1       0.623  -0.807  -0.757  0.00  0.00    +0.128 A 
ATOM     20 CL   UNL     1       4.546  -1.036  -0.031  0.00  0.00    -0.083 Cl
BRANCH  19  21
ATOM     21  N   UNL     1      -0.506  -1.749  -0.928  0.00  0.00    +0.056 N 
ATOM     22  O   UNL     1      -1.717  -1.289  -1.167  0.00  0.00    -0.126 OA
ATOM     23  O   UNL     1      -0.300  -3.047  -0.843  0.00  0.00    -0.126 OA
ENDBRANCH  19  21
ENDBRANCH   9  16
ENDBRANCH   1  12
BRANCH   5  24
ATOM     24  N   UNL     1       2.339   5.628  -4.634  0.00  0.00    -0.226 N 
ATOM     25  C   UNL     1       1.393   6.574  -4.474  0.00  0.00    +0.228 C 
ATOM     26  O   UNL     1       1.618   7.548  -3.787  0.00  0.00    -0.274 OA
ATOM     27  H   UNL     1       2.159   4.850  -5.183  0.00  0.00    +0.173 HD
BRANCH  25  28
ATOM     28  C   UNL     1       0.054   6.422  -5.149  0.00  0.00    +0.079 C 
BRANCH  28  29
ATOM     29  C   UNL     1      -0.829   7.624  -4.807  0.00  0.00    -0.070 C 
BRANCH  29  30
ATOM     30  N   UNL     1      -2.134   7.476  -5.465  0.00  0.00    +0.380 N 
ATOM     31  C   UNL     1      -1.954   7.517  -6.921  0.00  0.00    -0.079 C 
ATOM     32  C   UNL     1      -3.299   7.282  -7.613  0.00  0.00    -0.019 C 
ATOM     33  C   UNL     1      -4.283   8.375  -7.187  0.00  0.00    -0.004 C 
ATOM     34  C   UNL     1      -4.407   8.371  -5.661  0.00  0.00    -0.019 C 
ATOM     35  C   UNL     1      -3.021   8.566  -5.042  0.00  0.00    -0.079 C 
ATOM     36  H   UNL     1      -2.543   6.591  -5.204  0.00  0.00    -0.082 HD
ENDBRANCH  29  30
ENDBRANCH  28  29
ENDBRANCH  25  28
ENDBRANCH   5  24
TORSDOF 7
