REMARK  Name = ZINC15017733
REMARK  7 active torsions:
REMARK  status: ('A' for Active; 'I' for Inactive)
REMARK    1  A    between atoms: C_4  and  C_7
REMARK    2  A    between atoms: C_7  and  C_8
REMARK    3  A    between atoms: N_11  and  C_14
REMARK    4  A    between atoms: C_14  and  C_16
REMARK    5  A    between atoms: C_14  and  C_23
REMARK    6  A    between atoms: C_23  and  C_25
REMARK    7  A    between atoms: C_25  and  C_27
REMARK                            x       y       z     vdW  Elec       q    Type
REMARK                         _______ _______ _______ _____ _____    ______ ____
ROOT
ATOM      1  C   UNL     1       6.748  -0.963   4.909  0.00  0.00    +0.003 C 
ENDROOT
BRANCH   1   5
ATOM      2  C   UNL     1       4.454   0.309   1.551  0.00  0.00    -0.010 C 
ATOM      3  C   UNL     1       4.918   1.343   2.581  0.00  0.00    -0.015 C 
ATOM      4  C   UNL     1       5.276   0.629   3.886  0.00  0.00    -0.078 C 
ATOM      5  N   UNL     1       6.354  -0.336   3.640  0.00  0.00    +0.386 N 
ATOM      6  C   UNL     1       5.893  -1.372   2.708  0.00  0.00    -0.078 C 
ATOM      7  C   UNL     1       5.558  -0.735   1.357  0.00  0.00    -0.015 C 
ATOM      8  H   UNL     1       7.149   0.142   3.243  0.00  0.00    -0.081 HD
BRANCH   2   9
ATOM      9  C   UNL     1       4.170   1.006   0.219  0.00  0.00    +0.038 C 
BRANCH   9  13
ATOM     10  C   UNL     1       0.860   3.666   0.679  0.00  0.00    +0.000 A 
ATOM     11  C   UNL     1       2.146   4.118   0.907  0.00  0.00    +0.000 A 
ATOM     12  C   UNL     1       3.217   3.257   0.758  0.00  0.00    +0.003 A 
ATOM     13  C   UNL     1       3.002   1.944   0.382  0.00  0.00    -0.047 A 
ATOM     14  C   UNL     1       1.716   1.492   0.154  0.00  0.00    +0.003 A 
ATOM     15  C   UNL     1       0.644   2.354   0.302  0.00  0.00    +0.000 A 
ENDBRANCH   9  13
ENDBRANCH   2   9
ENDBRANCH   1   5
BRANCH   1  16
ATOM     16  C   UNL     1       7.042   0.108   5.928  0.00  0.00    -0.058 A 
ATOM     17  C   UNL     1       7.711   1.257   5.549  0.00  0.00    +0.003 A 
ATOM     18  C   UNL     1       7.981   2.240   6.483  0.00  0.00    +0.020 A 
ATOM     19  C   UNL     1       7.581   2.073   7.797  0.00  0.00    +0.041 A 
ATOM     20  C   UNL     1       6.912   0.923   8.176  0.00  0.00    +0.020 A 
ATOM     21  C   UNL     1       6.637  -0.056   7.240  0.00  0.00    +0.003 A 
ATOM     22 CL   UNL     1       7.921   3.306   8.971  0.00  0.00    -0.084 Cl
ENDBRANCH   1  16
BRANCH   1  23
ATOM     23  C   UNL     1       7.999  -1.816   4.691  0.00  0.00    +0.218 C 
ATOM     24  O   UNL     1       8.967  -1.062   3.959  0.00  0.00    -0.224 OA
BRANCH  23  25
ATOM     25  C   UNL     1       7.633  -3.054   3.913  0.00  0.00    +0.195 C 
ATOM     26  O   UNL     1       8.109  -3.242   2.812  0.00  0.00    -0.289 OA
BRANCH  25  27
ATOM     27  C   UNL     1       6.732  -3.998   4.466  0.00  0.00    +0.045 A 
ATOM     28  C   UNL     1       6.107  -3.926   5.692  0.00  0.00    +0.095 A 
ATOM     29  N   UNL     1       5.326  -5.009   5.867  0.00  0.00    -0.360 N 
ATOM     30  H   UNL     1       4.786  -5.179   6.655  0.00  0.00    +0.165 HD
ATOM     31  C   UNL     1       5.398  -5.844   4.770  0.00  0.00    +0.047 A 
ATOM     32  C   UNL     1       6.271  -5.254   3.843  0.00  0.00    +0.010 A 
ATOM     33  C   UNL     1       6.530  -5.883   2.628  0.00  0.00    +0.011 A 
ATOM     34  C   UNL     1       5.922  -7.085   2.339  0.00  0.00    +0.001 A 
ATOM     35  C   UNL     1       5.056  -7.668   3.252  0.00  0.00    +0.002 A 
ATOM     36  C   UNL     1       4.797  -7.060   4.462  0.00  0.00    +0.026 A 
ENDBRANCH  25  27
ENDBRANCH  23  25
ENDBRANCH   1  23
TORSDOF 7
