REMARK  Name = ZINC39557916
REMARK  5 active torsions:
REMARK  status: ('A' for Active; 'I' for Inactive)
REMARK    1  A    between atoms: C_1  and  C_2
REMARK    2  A    between atoms: C_2  and  C_4
REMARK    3  A    between atoms: C_2  and  N_14
REMARK    4  A    between atoms: N_17  and  C_18
REMARK    5  A    between atoms: C_22  and  C_25
REMARK                            x       y       z     vdW  Elec       q    Type
REMARK                         _______ _______ _______ _____ _____    ______ ____
ROOT
ATOM      1  N   UNL     1      -1.372  -0.511   0.012  0.00  0.00    -0.293 N 
ATOM      2  C   UNL     1      -2.051  -0.643  -1.145  0.00  0.00    +0.302 C 
ATOM      3  O   UNL     1      -1.522  -0.341  -2.197  0.00  0.00    -0.253 OA
ATOM      4  N   UNL     1      -3.315  -1.109  -1.135  0.00  0.00    -0.274 N 
ATOM      5  H   UNL     1      -1.794  -0.752   0.852  0.00  0.00    +0.151 HD
ATOM      6  H   UNL     1      -3.737  -1.350  -0.295  0.00  0.00    +0.153 HD
ENDROOT
BRANCH   4   7
ATOM      7  C   UNL     1      -4.053  -1.252  -2.393  0.00  0.00    +0.218 C 
ATOM      8  N   UNL     1      -5.500  -1.542  -2.151  0.00  0.00    -0.226 NA
ATOM      9  N   UNL     1      -6.123  -2.203  -3.279  0.00  0.00    -0.236 NA
ATOM     10  C   UNL     1      -5.243  -3.110  -4.056  0.00  0.00    +0.166 C 
ATOM     11  S   UNL     1      -3.599  -2.814  -3.273  0.00  0.00    -0.097 S 
ATOM     12  H   UNL     1      -5.625  -2.077  -1.305  0.00  0.00    +0.143 HD
ATOM     13  H   UNL     1      -6.971  -2.673  -3.000  0.00  0.00    +0.142 HD
BRANCH  10  14
ATOM     14  C   UNL     1      -5.670  -4.546  -3.888  0.00  0.00    +0.018 A 
ATOM     15  C   UNL     1      -5.548  -5.579  -4.757  0.00  0.00    +0.013 A 
ATOM     16  C   UNL     1      -6.015  -6.826  -4.386  0.00  0.00    +0.008 A 
ATOM     17  C   UNL     1      -6.581  -6.979  -3.163  0.00  0.00    +0.045 A 
ATOM     18  S   UNL     1      -6.459  -5.329  -2.491  0.00  0.00    -0.099 S 
ENDBRANCH  10  14
ENDBRANCH   4   7
BRANCH   1  20
ATOM     19  C   UNL     1      -0.019   1.526   0.010  0.00  0.00    +0.033 C 
ATOM     20  C   UNL     1       0.002  -0.004   0.002  0.00  0.00    +0.102 C 
BRANCH  20  21
ATOM     21  C   UNL     1       0.731  -0.503   1.223  0.00  0.00    -0.027 C 
ATOM     22  C   UNL     1       1.910  -1.181   1.085  0.00  0.00    +0.011 C 
ATOM     23  C   UNL     1       2.533  -1.549   2.291  0.00  0.00    -0.018 C 
ATOM     24  C   UNL     1       3.319  -2.581   2.638  0.00  0.00    +0.025 C 
ATOM     25  C   UNL     1       3.428  -2.634   4.046  0.00  0.00    +0.106 C 
ATOM     26  N   UNL     1       2.853  -1.616   4.620  0.00  0.00    -0.279 NA
ATOM     27  C   UNL     1       2.349  -0.745   3.569  0.00  0.00    +0.158 C 
ATOM     28  C   UNL     1       0.896  -0.391   3.673  0.00  0.00    +0.004 C 
ATOM     29  C   UNL     1       0.180  -0.257   2.552  0.00  0.00    +0.003 C 
ENDBRANCH  20  21
ENDBRANCH   1  20
TORSDOF 4
