REMARK  Name = ZINC15947524
REMARK  6 active torsions:
REMARK  status: ('A' for Active; 'I' for Inactive)
REMARK    1  A    between atoms: C_1  and  C_2
REMARK    2  A    between atoms: C_11  and  O_34
REMARK    3  A    between atoms: C_13  and  C_16
REMARK    4  A    between atoms: C_20  and  O_22
REMARK    5  A    between atoms: O_22  and  C_23
REMARK    6  A    between atoms: C_23  and  C_25
REMARK                            x       y       z     vdW  Elec       q    Type
REMARK                         _______ _______ _______ _____ _____    ______ ____
ROOT
ATOM      1  C   UNL     1       3.951  -6.442   0.303  0.00  0.00    -0.002 A 
ATOM      2  C   UNL     1       4.670  -5.989   1.394  0.00  0.00    +0.007 A 
ATOM      3  C   UNL     1       5.997  -5.631   1.250  0.00  0.00    +0.004 A 
ATOM      4  C   UNL     1       6.609  -5.724   0.014  0.00  0.00    +0.046 A 
ATOM      5  C   UNL     1       5.890  -6.178  -1.082  0.00  0.00    +0.132 A 
ATOM      6  C   UNL     1       4.559  -6.542  -0.933  0.00  0.00    +0.053 A 
ENDROOT
BRANCH   1  18
ATOM      7  C   UNL     1      -0.606   1.067  -0.230  0.00  0.00    +0.008 C 
ATOM      8  C   UNL     1      -0.468  -0.456  -0.194  0.00  0.00    -0.009 C 
ATOM      9  C   UNL     1       0.295  -0.932  -1.433  0.00  0.00    +0.008 C 
ATOM     10  C   UNL     1       0.224  -2.457  -1.534  0.00  0.00    +0.037 C 
ATOM     11  C   UNL     1       0.672  -3.055  -0.208  0.00  0.00    -0.023 A 
ATOM     12  C   UNL     1       0.697  -2.312   0.922  0.00  0.00    -0.004 A 
ATOM     13  S   UNL     1       1.276  -3.419   2.179  0.00  0.00    -0.078 S 
ATOM     14  C   UNL     1       1.479  -4.788   1.266  0.00  0.00    +0.080 A 
ATOM     15  C   UNL     1       1.100  -4.431  -0.034  0.00  0.00    +0.068 A 
ATOM     16  C   UNL     1       1.168  -5.484  -1.081  0.00  0.00    +0.220 C 
ATOM     17  N   UNL     1       1.803  -6.587  -0.791  0.00  0.00    -0.223 NA
ATOM     18  C   UNL     1       2.504  -6.831   0.464  0.00  0.00    +0.224 C 
ATOM     19  N   UNL     1       1.919  -6.056   1.573  0.00  0.00    -0.313 N 
ATOM     20  C   UNL     1       0.312  -0.872   1.062  0.00  0.00    +0.046 C 
ATOM     21  H   UNL     1       1.848  -6.419   2.470  0.00  0.00    +0.149 HD
BRANCH  16  22
ATOM     22  O   UNL     1       0.591  -5.305  -2.292  0.00  0.00    -0.492 OA
ATOM     23  H   UNL     1       0.699  -6.055  -2.893  0.00  0.00    +0.294 HD
ENDBRANCH  16  22
ENDBRANCH   1  18
BRANCH   5  24
ATOM     24  O   UNL     1       6.489  -6.270  -2.298  0.00  0.00    -0.422 OA
BRANCH  24  25
ATOM     25  C   UNL     1       6.101  -5.410  -3.261  0.00  0.00    +0.345 C 
ATOM     26  O   UNL     1       5.317  -4.519  -3.001  0.00  0.00    -0.245 OA
BRANCH  25  27
ATOM     27  C   UNL     1       6.628  -5.552  -4.631  0.00  0.00    +0.063 A 
ATOM     28  C   UNL     1       7.526  -6.579  -4.934  0.00  0.00    +0.019 A 
ATOM     29  C   UNL     1       8.017  -6.710  -6.215  0.00  0.00    +0.050 A 
ATOM     30  C   UNL     1       7.623  -5.822  -7.208  0.00  0.00    +0.166 A 
ATOM     31  C   UNL     1       6.728  -4.794  -6.912  0.00  0.00    +0.167 A 
ATOM     32  C   UNL     1       6.227  -4.661  -5.631  0.00  0.00    +0.064 A 
ATOM     33  O   UNL     1       6.506  -4.069  -8.048  0.00  0.00    -0.453 OA
ATOM     34  C   UNL     1       7.584  -4.412  -8.938  0.00  0.00    +0.466 C 
ATOM     35  O   UNL     1       7.959  -5.740  -8.527  0.00  0.00    -0.453 OA
ENDBRANCH  25  27
ENDBRANCH  24  25
ENDBRANCH   5  24
TORSDOF 5
