REMARK  Name = ZINC35992242
REMARK  13 active torsions:
REMARK  status: ('A' for Active; 'I' for Inactive)
REMARK    1  A    between atoms: C_1  and  C_2
REMARK    2  A    between atoms: C_2  and  N_3
REMARK    3  A    between atoms: C_4  and  C_26
REMARK    4  A    between atoms: C_5  and  C_21
REMARK    5  A    between atoms: C_6  and  C_11
REMARK    6  A    between atoms: C_14  and  C_17
REMARK    7  A    between atoms: C_21  and  O_23
REMARK    8  A    between atoms: O_23  and  C_24
REMARK    9  A    between atoms: C_24  and  C_25
REMARK   10  A    between atoms: C_26  and  N_27
REMARK   11  A    between atoms: N_35  and  C_36
REMARK   12  A    between atoms: C_36  and  C_37
REMARK   13  A    between atoms: C_36  and  C_38
REMARK                            x       y       z     vdW  Elec       q    Type
REMARK                         _______ _______ _______ _____ _____    ______ ____
ROOT
ATOM      1  N   UNL     1       0.807  -0.251   1.384  0.00  0.00    -0.258 N 
ATOM      2  C   UNL     1       2.031  -0.789   1.107  0.00  0.00    +0.041 C 
ATOM      3  C   UNL     1       2.690  -1.530   2.023  0.00  0.00    +0.080 C 
ATOM      4  C   UNL     1       2.026  -1.744   3.368  0.00  0.00    +0.144 C 
ATOM      5  N   UNL     1       0.706  -1.121   3.567  0.00  0.00    -0.288 N 
ATOM      6  C   UNL     1       0.177  -0.404   2.555  0.00  0.00    +0.307 C 
ATOM      7  O   UNL     1      -0.910   0.118   2.711  0.00  0.00    -0.252 OA
ATOM      8  H   UNL     1       0.231  -1.221   4.406  0.00  0.00    +0.151 HD
ENDROOT
BRANCH   4   9
ATOM      9  C   UNL     1       2.953  -1.216   4.433  0.00  0.00    -0.022 A 
ATOM     10  C   UNL     1       3.003   0.140   4.696  0.00  0.00    +0.006 A 
ATOM     11  C   UNL     1       3.853   0.624   5.673  0.00  0.00    +0.013 A 
ATOM     12  C   UNL     1       4.652  -0.248   6.387  0.00  0.00    +0.055 A 
ATOM     13  C   UNL     1       4.602  -1.605   6.125  0.00  0.00    +0.013 A 
ATOM     14  C   UNL     1       3.748  -2.089   5.151  0.00  0.00    +0.006 A 
BRANCH  12  15
ATOM     15  C   UNL     1       5.580   0.279   7.451  0.00  0.00    +0.417 C 
ATOM     16  F   UNL     1       4.912   0.304   8.681  0.00  0.00    -0.166 F 
ATOM     17  F   UNL     1       6.701  -0.552   7.546  0.00  0.00    -0.166 F 
ATOM     18  F   UNL     1       5.987   1.575   7.115  0.00  0.00    -0.166 F 
ENDBRANCH  12  15
ENDBRANCH   4   9
BRANCH   1  20
ATOM     19  C   UNL     1       0.551   2.011   0.490  0.00  0.00    +0.025 C 
ATOM     20  C   UNL     1       0.149   0.542   0.343  0.00  0.00    +0.111 C 
ENDBRANCH   1  20
BRANCH   3  21
ATOM     21  C   UNL     1       3.958  -2.089   1.737  0.00  0.00    +0.339 C 
ATOM     22  O   UNL     1       4.506  -1.844   0.679  0.00  0.00    -0.245 OA
BRANCH  21  23
ATOM     23  O   UNL     1       4.560  -2.894   2.638  0.00  0.00    -0.462 OA
BRANCH  23  24
ATOM     24  C   UNL     1       5.839  -3.423   2.283  0.00  0.00    +0.229 C 
ATOM     25  C   UNL     1       6.359  -4.305   3.420  0.00  0.00    +0.048 C 
ENDBRANCH  23  24
ENDBRANCH  21  23
ENDBRANCH   3  21
BRANCH   2  26
ATOM     26  C   UNL     1       2.656  -0.553  -0.244  0.00  0.00    +0.136 C 
BRANCH  26  27
ATOM     27  N   UNL     1       2.448  -1.733  -1.093  0.00  0.00    -0.294 NA
ATOM     28  C   UNL     1       1.016  -1.973  -1.319  0.00  0.00    +0.104 C 
ATOM     29  C   UNL     1       0.835  -3.306  -2.053  0.00  0.00    +0.124 C 
ATOM     30  N   UNL     1       1.662  -3.287  -3.269  0.00  0.00    -0.283 N 
ATOM     31  C   UNL     1       3.080  -2.919  -3.140  0.00  0.00    +0.124 C 
ATOM     32  C   UNL     1       3.173  -1.601  -2.364  0.00  0.00    +0.104 C 
ATOM     33  C   UNL     1       1.134  -3.598  -4.469  0.00  0.00    +0.302 C 
ATOM     34  O   UNL     1      -0.060  -3.807  -4.572  0.00  0.00    -0.253 OA
ATOM     35  N   UNL     1       1.928  -3.676  -5.555  0.00  0.00    -0.297 N 
ATOM     36  H   UNL     1       2.889  -3.582  -5.461  0.00  0.00    +0.150 HD
BRANCH  35  37
ATOM     37  C   UNL     1       1.341  -3.903  -6.878  0.00  0.00    +0.068 C 
ATOM     38  C   UNL     1       2.278  -3.351  -7.954  0.00  0.00    +0.027 C 
ATOM     39  C   UNL     1       1.141  -5.404  -7.096  0.00  0.00    +0.027 C 
ENDBRANCH  35  37
ENDBRANCH  26  27
ENDBRANCH   2  26
TORSDOF 9
