REMARK  Name = ZINC39597737
REMARK  6 active torsions:
REMARK  status: ('A' for Active; 'I' for Inactive)
REMARK    1  A    between atoms: C_1  and  C_2
REMARK    2  A    between atoms: C_4  and  C_9
REMARK    3  A    between atoms: C_13  and  C_22
REMARK    4  A    between atoms: N_24  and  C_25
REMARK    5  A    between atoms: C_25  and  C_26
REMARK    6  A    between atoms: C_26  and  C_27
REMARK                            x       y       z     vdW  Elec       q    Type
REMARK                         _______ _______ _______ _____ _____    ______ ____
ROOT
ATOM      1  C   UNL     1      -0.069  -2.871  -2.770  0.00  0.00    +0.247 C 
ATOM      2  O   UNL     1      -0.217  -2.358  -3.862  0.00  0.00    -0.270 OA
ATOM      3  N   UNL     1       0.086  -4.206  -2.668  0.00  0.00    -0.296 N 
ATOM      4  C   UNL     1       0.147  -5.021  -1.432  0.00  0.00    +0.121 C 
ATOM      5  C   UNL     1      -0.645  -6.304  -1.770  0.00  0.00    +0.100 C 
ATOM      6  C   UNL     1      -0.582  -6.410  -3.303  0.00  0.00    -0.004 C 
ATOM      7  C   UNL     1       0.229  -5.191  -3.767  0.00  0.00    +0.115 C 
ATOM      8  C   UNL     1       0.120  -7.701  -3.715  0.00  0.00    -0.010 C 
ATOM      9  C   UNL     1       0.118  -7.812  -5.242  0.00  0.00    -0.082 C 
ATOM     10  N   UNL     1      -1.265  -7.806  -5.734  0.00  0.00    +0.379 N 
ATOM     11  C   UNL     1      -1.904  -6.524  -5.414  0.00  0.00    -0.082 C 
ATOM     12  C   UNL     1      -1.988  -6.358  -3.894  0.00  0.00    -0.010 C 
ATOM     13  H   UNL     1      -1.266  -7.941  -6.734  0.00  0.00    -0.086 HD
ATOM     14  H   UNL     1      -1.780  -8.555  -5.296  0.00  0.00    -0.086 HD
ENDROOT
BRANCH   1  18
ATOM     15  C   UNL     1      -1.268   1.383  -0.454  0.00  0.00    +0.045 C 
ATOM     16  C   UNL     1      -0.635   0.015  -0.435  0.00  0.00    -0.036 A 
ATOM     17  C   UNL     1      -0.646  -0.764  -1.573  0.00  0.00    +0.017 A 
ATOM     18  C   UNL     1      -0.060  -2.031  -1.554  0.00  0.00    +0.037 A 
ATOM     19  C   UNL     1       0.536  -2.501  -0.382  0.00  0.00    +0.014 A 
ATOM     20  C   UNL     1       0.541  -1.712   0.749  0.00  0.00    +0.016 A 
ATOM     21  C   UNL     1      -0.038  -0.454   0.722  0.00  0.00    +0.021 A 
ATOM     22 BR   UNL     1      -0.020   0.624   2.276  0.00  0.00    -0.050 Br
ENDBRANCH   1  18
BRANCH   5  23
ATOM     23  C   UNL     1      -2.074  -6.175  -1.309  0.00  0.00    +0.218 C 
ATOM     24  O   UNL     1      -2.604  -5.084  -1.274  0.00  0.00    -0.275 OA
ATOM     25  N   UNL     1      -2.763  -7.271  -0.935  0.00  0.00    -0.315 N 
ATOM     26  H   UNL     1      -2.339  -8.143  -0.962  0.00  0.00    +0.149 HD
BRANCH  25  27
ATOM     27  C   UNL     1      -4.152  -7.146  -0.486  0.00  0.00    +0.109 C 
BRANCH  27  28
ATOM     28  C   UNL     1      -4.697  -8.528  -0.122  0.00  0.00    +0.056 C 
BRANCH  28  29
ATOM     29  C   UNL     1      -6.126  -8.399   0.339  0.00  0.00    -0.021 A 
ATOM     30  C   UNL     1      -7.317  -8.368  -0.513  0.00  0.00    +0.003 A 
ATOM     31  C   UNL     1      -7.526  -8.438  -1.891  0.00  0.00    +0.010 A 
ATOM     32  C   UNL     1      -8.798  -8.380  -2.388  0.00  0.00    +0.001 A 
ATOM     33  C   UNL     1      -9.884  -8.250  -1.533  0.00  0.00    +0.002 A 
ATOM     34  C   UNL     1      -9.700  -8.179  -0.169  0.00  0.00    +0.026 A 
ATOM     35  C   UNL     1      -8.414  -8.237   0.358  0.00  0.00    +0.047 A 
ATOM     36  N   UNL     1      -7.912  -8.194   1.640  0.00  0.00    -0.360 N 
ATOM     37  C   UNL     1      -6.548  -8.298   1.609  0.00  0.00    +0.087 A 
ATOM     38  H   UNL     1      -8.447  -8.107   2.445  0.00  0.00    +0.165 HD
ENDBRANCH  28  29
ENDBRANCH  27  28
ENDBRANCH  25  27
ENDBRANCH   5  23
TORSDOF 5
