REMARK  Name = ZINC29495831
REMARK  6 active torsions:
REMARK  status: ('A' for Active; 'I' for Inactive)
REMARK    1  A    between atoms: C_1  and  C_2
REMARK    2  A    between atoms: C_4  and  C_24
REMARK    3  A    between atoms: C_6  and  N_8
REMARK    4  A    between atoms: C_9  and  S_11
REMARK    5  A    between atoms: S_11  and  C_12
REMARK    6  A    between atoms: C_12  and  C_13
REMARK                            x       y       z     vdW  Elec       q    Type
REMARK                         _______ _______ _______ _____ _____    ______ ____
ROOT
ATOM      1  N   UNL     1       0.080  -2.815   2.346  0.00  0.00    -0.227 NA
ATOM      2  C   UNL     1       0.923  -2.483   3.297  0.00  0.00    +0.152 C 
ATOM      3  N   UNL     1       1.751  -1.399   3.133  0.00  0.00    -0.338 N 
ATOM      4  H   UNL     1       1.643  -0.819   2.363  0.00  0.00    +0.144 HD
ATOM      5  H   UNL     1       2.443  -1.215   3.787  0.00  0.00    +0.144 HD
ENDROOT
BRANCH   1  11
ATOM      6  C   UNL     1       2.596  -1.300  -1.572  0.00  0.00    +0.044 C 
ATOM      7  C   UNL     1       1.313  -1.398  -0.787  0.00  0.00    -0.048 A 
ATOM      8  C   UNL     1       0.157  -0.819  -1.279  0.00  0.00    +0.006 A 
ATOM      9  C   UNL     1      -1.025  -0.904  -0.565  0.00  0.00    -0.048 A 
ATOM     10  C   UNL     1      -1.058  -1.568   0.644  0.00  0.00    +0.031 A 
ATOM     11  C   UNL     1       0.105  -2.155   1.147  0.00  0.00    +0.067 A 
ATOM     12  C   UNL     1       1.293  -2.070   0.418  0.00  0.00    +0.031 A 
ATOM     13  C   UNL     1      -2.280  -0.270  -1.109  0.00  0.00    +0.044 C 
ENDBRANCH   1  11
BRANCH   2  14
ATOM     14  S   UNL     1       0.993  -3.428   4.782  0.00  0.00    -0.085 S 
BRANCH  14  15
ATOM     15  C   UNL     1      -0.255  -4.722   4.538  0.00  0.00    +0.132 C 
BRANCH  15  16
ATOM     16  C   UNL     1      -0.299  -5.613   5.753  0.00  0.00    +0.059 A 
ATOM     17  C   UNL     1      -1.347  -5.510   6.647  0.00  0.00    +0.094 A 
ATOM     18  C   UNL     1      -1.365  -6.348   7.767  0.00  0.00    +0.259 A 
ATOM     19  O   UNL     1      -2.278  -6.282   8.576  0.00  0.00    -0.267 OA
ATOM     20  N   UNL     1      -0.359  -7.231   7.940  0.00  0.00    -0.268 N 
ATOM     21  C   UNL     1      -0.363  -8.054   9.025  0.00  0.00    +0.096 A 
ATOM     22  C   UNL     1       0.634  -8.947   9.220  0.00  0.00    +0.018 A 
ATOM     23  C   UNL     1       1.689  -9.035   8.301  0.00  0.00    +0.005 A 
ATOM     24  C   UNL     1       1.702  -8.216   7.212  0.00  0.00    +0.047 A 
ATOM     25  C   UNL     1       0.656  -7.295   7.026  0.00  0.00    +0.140 A 
ATOM     26  N   UNL     1       0.664  -6.497   5.960  0.00  0.00    -0.233 NA
ENDBRANCH  15  16
ENDBRANCH  14  15
ENDBRANCH   2  14
TORSDOF 4
