REMARK  Name = ZINC63652852
REMARK  7 active torsions:
REMARK  status: ('A' for Active; 'I' for Inactive)
REMARK    1  A    between atoms: C_1  and  C_2
REMARK    2  A    between atoms: C_2  and  C_3
REMARK    3  A    between atoms: C_8  and  S_9
REMARK    4  A    between atoms: S_9  and  N_12
REMARK    5  A    between atoms: N_12  and  C_13
REMARK    6  A    between atoms: C_13  and  C_14
REMARK    7  A    between atoms: C_20  and  C_24
REMARK                            x       y       z     vdW  Elec       q    Type
REMARK                         _______ _______ _______ _____ _____    ______ ____
ROOT
ATOM      1  S   UNL     1      -1.501  -0.439  -2.767  0.00  0.00    +0.059 S 
ATOM      2  O   UNL     1      -2.489  -0.808  -3.719  0.00  0.00    -0.153 OA
ATOM      3  O   UNL     1      -0.851   0.824  -2.794  0.00  0.00    -0.153 OA
ENDROOT
BRANCH   1   9
ATOM      4  C   UNL     1      -1.508  -0.313  -0.040  0.00  0.00    -0.021 A 
ATOM      5  C   UNL     1      -2.083  -0.419   1.207  0.00  0.00    +0.016 A 
ATOM      6  C   UNL     1      -3.415  -0.808   1.324  0.00  0.00    +0.011 A 
ATOM      7  C   UNL     1      -4.167  -1.092   0.170  0.00  0.00    +0.049 A 
ATOM      8  C   UNL     1      -3.567  -0.979  -1.079  0.00  0.00    +0.055 A 
ATOM      9  C   UNL     1      -2.250  -0.587  -1.179  0.00  0.00    +0.110 A 
ATOM     10  N   UNL     1      -5.441  -1.451   0.572  0.00  0.00    -0.357 N 
ATOM     11  C   UNL     1      -5.544  -1.415   1.907  0.00  0.00    +0.028 A 
ATOM     12  C   UNL     1      -4.330  -1.020   2.449  0.00  0.00    +0.046 A 
ATOM     13  H   UNL     1      -6.162  -1.694  -0.030  0.00  0.00    +0.166 HD
ATOM     14  C   UNL     1      -4.124  -0.880   3.842  0.00  0.00    +0.165 C 
ATOM     15  O   UNL     1      -3.040  -0.566   4.290  0.00  0.00    -0.292 OA
ATOM     16  C   UNL     1      -5.305  -1.134   4.754  0.00  0.00    +0.080 C 
ATOM     17  C   UNL     1      -6.218  -2.197   4.144  0.00  0.00    +0.014 C 
ATOM     18  C   UNL     1      -6.737  -1.739   2.775  0.00  0.00    +0.054 C 
BRANCH   4  20
ATOM     19  C   UNL     1       0.011   1.632  -0.284  0.00  0.00    +0.009 C 
ATOM     20  C   UNL     1      -0.066   0.108  -0.168  0.00  0.00    +0.034 C 
ENDBRANCH   4  20
ENDBRANCH   1   9
BRANCH   1  21
ATOM     21  N   UNL     1      -0.309  -1.586  -2.854  0.00  0.00    -0.186 NA
ATOM     22  H   UNL     1       0.621  -1.316  -2.904  0.00  0.00    +0.148 HD
BRANCH  21  23
ATOM     23  C   UNL     1      -0.660  -3.008  -2.857  0.00  0.00    +0.152 C 
BRANCH  23  24
ATOM     24  C   UNL     1       0.530  -3.826  -3.364  0.00  0.00    +0.190 C 
ATOM     25  N   UNL     1       1.707  -3.578  -2.523  0.00  0.00    -0.362 N 
ATOM     26  C   UNL     1       2.633  -3.074  -3.286  0.00  0.00    +0.060 A 
ATOM     27  C   UNL     1       4.009  -2.627  -3.026  0.00  0.00    +0.027 A 
ATOM     28  C   UNL     1       4.751  -2.135  -4.039  0.00  0.00    +0.005 A 
ATOM     29  C   UNL     1       4.264  -2.030  -5.354  0.00  0.00    -0.048 A 
ATOM     30  C   UNL     1       3.018  -2.410  -5.700  0.00  0.00    +0.030 A 
ATOM     31  C   UNL     1       2.118  -2.961  -4.678  0.00  0.00    +0.060 A 
ATOM     32  N   UNL     1       0.892  -3.401  -4.722  0.00  0.00    -0.362 N 
ATOM     33  C   UNL     1       5.171  -1.468  -6.418  0.00  0.00    +0.044 C 
ATOM     34  H   UNL     1       1.781  -3.756  -1.572  0.00  0.00    +0.162 HD
ATOM     35  H   UNL     1       0.323  -3.440  -5.506  0.00  0.00    +0.162 HD
ENDBRANCH  23  24
ENDBRANCH  21  23
ENDBRANCH   1  21
TORSDOF 5
