REMARK  Name = ZINC41586212
REMARK  8 active torsions:
REMARK  status: ('A' for Active; 'I' for Inactive)
REMARK    1  A    between atoms: C_1  and  C_2
REMARK    2  A    between atoms: C_2  and  O_3
REMARK    3  A    between atoms: O_3  and  C_4
REMARK    4  A    between atoms: C_4  and  C_6
REMARK    5  A    between atoms: N_9  and  C_12
REMARK    6  A    between atoms: C_12  and  C_13
REMARK    7  A    between atoms: C_14  and  O_31
REMARK    8  A    between atoms: C_21  and  C_22
REMARK                            x       y       z     vdW  Elec       q    Type
REMARK                         _______ _______ _______ _____ _____    ______ ____
ROOT
ATOM      1  C   UNL     1      -5.902  -6.248   1.594  0.00  0.00    +0.020 A 
ATOM      2  C   UNL     1      -6.117  -7.047   0.483  0.00  0.00    +0.122 A 
ATOM      3  C   UNL     1      -6.331  -8.415   0.625  0.00  0.00    +0.046 A 
ATOM      4  C   UNL     1      -6.331  -8.984   1.868  0.00  0.00    +0.019 A 
ATOM      5  C   UNL     1      -6.116  -8.191   2.995  0.00  0.00    +0.068 A 
ATOM      6  C   UNL     1      -5.894  -6.811   2.864  0.00  0.00    +0.144 A 
ATOM      7  O   UNL     1      -5.706  -6.261   4.083  0.00  0.00    -0.451 OA
ATOM      8  C   UNL     1      -5.780  -7.186   5.069  0.00  0.00    +0.176 C 
ATOM      9  C   UNL     1      -5.637  -6.954   6.398  0.00  0.00    +0.058 C 
ATOM     10  C   UNL     1      -6.057  -8.486   4.439  0.00  0.00    +0.231 C 
ATOM     11  O   UNL     1      -6.193  -9.566   4.986  0.00  0.00    -0.283 OA
ENDROOT
BRANCH   9  12
ATOM     12  C   UNL     1      -5.572  -8.081   7.338  0.00  0.00    -0.021 A 
ATOM     13  C   UNL     1      -4.856  -9.237   7.002  0.00  0.00    +0.011 A 
ATOM     14  C   UNL     1      -4.800 -10.290   7.888  0.00  0.00    +0.039 A 
ATOM     15  C   UNL     1      -5.450 -10.208   9.110  0.00  0.00    +0.123 A 
ATOM     16  C   UNL     1      -6.161  -9.067   9.450  0.00  0.00    +0.039 A 
ATOM     17  C   UNL     1      -6.221  -8.003   8.576  0.00  0.00    +0.011 A 
ATOM     18  F   UNL     1      -5.390 -11.245   9.974  0.00  0.00    -0.205 F 
ENDBRANCH   9  12
BRANCH   2  19
ATOM     19  O   UNL     1      -6.119  -6.492  -0.756  0.00  0.00    -0.506 OA
ATOM     20  H   UNL     1      -5.250  -6.473  -1.180  0.00  0.00    +0.292 HD
ENDBRANCH   2  19
BRANCH   1  21
ATOM     21  C   UNL     1      -5.670  -4.768   1.424  0.00  0.00    -0.036 C 
BRANCH  21  25
ATOM     22  C   UNL     1      -1.937  -3.441  -0.143  0.00  0.00    +0.094 C 
ATOM     23  C   UNL     1      -2.494  -2.792   1.127  0.00  0.00    -0.004 C 
ATOM     24  C   UNL     1      -3.997  -3.065   1.216  0.00  0.00    -0.078 C 
ATOM     25  N   UNL     1      -4.233  -4.513   1.261  0.00  0.00    +0.383 N 
ATOM     26  C   UNL     1      -3.766  -5.133   0.015  0.00  0.00    -0.078 C 
ATOM     27  C   UNL     1      -2.254  -4.939  -0.120  0.00  0.00    -0.004 C 
ATOM     28  H   UNL     1      -3.732  -4.910   2.041  0.00  0.00    -0.081 HD
BRANCH  22  29
ATOM     29  C   UNL     1      -0.444  -3.243  -0.197  0.00  0.00    +0.310 C 
ATOM     30  O   UNL     1       0.292  -4.201  -0.216  0.00  0.00    -0.251 OA
BRANCH  29  31
ATOM     31  O   UNL     1       0.068  -2.003  -0.225  0.00  0.00    -0.465 OA
BRANCH  31  33
ATOM     32  C   UNL     1       1.885  -0.411  -0.302  0.00  0.00    +0.048 C 
ATOM     33  C   UNL     1       1.491  -1.889  -0.276  0.00  0.00    +0.229 C 
ENDBRANCH  31  33
ENDBRANCH  29  31
ENDBRANCH  22  29
ENDBRANCH  21  25
ENDBRANCH   1  21
TORSDOF 7
