REMARK  Name = ZINC36218975
REMARK  11 active torsions:
REMARK  status: ('A' for Active; 'I' for Inactive)
REMARK    1  A    between atoms: C_1  and  C_2
REMARK    2  A    between atoms: C_5  and  C_8
REMARK    3  A    between atoms: C_8  and  N_9
REMARK    4  A    between atoms: C_10  and  C_30
REMARK    5  A    between atoms: C_12  and  C_17
REMARK    6  A    between atoms: C_21  and  N_23
REMARK    7  A    between atoms: C_24  and  C_26
REMARK    8  A    between atoms: C_26  and  C_27
REMARK    9  A    between atoms: C_27  and  C_28
REMARK   10  A    between atoms: C_27  and  C_29
REMARK   11  A    between atoms: N_32  and  C_33
REMARK                            x       y       z     vdW  Elec       q    Type
REMARK                         _______ _______ _______ _____ _____    ______ ____
ROOT
ATOM      1  N   UNL     1       1.470  -4.993   0.088  0.00  0.00    -0.248 N 
ATOM      2  C   UNL     1       2.462  -5.051  -1.004  0.00  0.00    +0.211 C 
ATOM      3  C   UNL     1       3.801  -4.955  -0.235  0.00  0.00    +0.238 C 
ATOM      4  O   UNL     1       3.434  -5.443   1.070  0.00  0.00    -0.440 OA
ATOM      5  C   UNL     1       2.123  -5.205   1.246  0.00  0.00    +0.405 C 
ATOM      6  O   UNL     1       1.583  -5.186   2.335  0.00  0.00    -0.226 OA
ENDROOT
BRANCH   3   7
ATOM      7  C   UNL     1       4.848  -5.838  -0.865  0.00  0.00    -0.003 A 
ATOM      8  C   UNL     1       4.851  -7.197  -0.608  0.00  0.00    +0.007 A 
ATOM      9  C   UNL     1       5.809  -8.011  -1.184  0.00  0.00    +0.002 A 
ATOM     10  C   UNL     1       6.766  -7.468  -2.019  0.00  0.00    +0.023 A 
ATOM     11  C   UNL     1       6.766  -6.104  -2.279  0.00  0.00    +0.034 A 
ATOM     12  C   UNL     1       5.799  -5.291  -1.703  0.00  0.00    +0.030 A 
BRANCH  11  13
ATOM     13  N   UNL     1       7.734  -5.552  -3.124  0.00  0.00    -0.285 N 
ATOM     14  C   UNL     1       8.986  -6.050  -3.131  0.00  0.00    +0.217 C 
ATOM     15  O   UNL     1       9.252  -7.030  -2.468  0.00  0.00    -0.275 OA
ATOM     16  H   UNL     1       7.505  -4.809  -3.705  0.00  0.00    +0.155 HD
BRANCH  14  17
ATOM     17  C   UNL     1      10.056  -5.390  -3.963  0.00  0.00    +0.099 C 
BRANCH  17  18
ATOM     18  C   UNL     1      11.374  -6.147  -3.793  0.00  0.00    -0.008 C 
ATOM     19  C   UNL     1      12.428  -5.554  -4.731  0.00  0.00    +0.008 C 
ATOM     20  C   UNL     1      11.852  -6.022  -2.345  0.00  0.00    +0.008 C 
ENDBRANCH  17  18
ENDBRANCH  14  17
ENDBRANCH  11  13
ENDBRANCH   3   7
BRANCH   2  21
ATOM     21  C   UNL     1       2.294  -3.885  -1.944  0.00  0.00    +0.242 C 
ATOM     22  O   UNL     1       1.764  -2.865  -1.557  0.00  0.00    -0.273 OA
ATOM     23  N   UNL     1       2.733  -3.975  -3.215  0.00  0.00    -0.284 N 
ATOM     24  H   UNL     1       3.086  -4.816  -3.547  0.00  0.00    +0.155 HD
BRANCH  23  25
ATOM     25  C   UNL     1       2.680  -2.857  -4.055  0.00  0.00    +0.033 A 
ATOM     26  C   UNL     1       2.413  -3.016  -5.408  0.00  0.00    +0.023 A 
ATOM     27  C   UNL     1       2.362  -1.911  -6.235  0.00  0.00    +0.002 A 
ATOM     28  C   UNL     1       2.575  -0.647  -5.716  0.00  0.00    +0.000 A 
ATOM     29  C   UNL     1       2.842  -0.486  -4.368  0.00  0.00    +0.002 A 
ATOM     30  C   UNL     1       2.889  -1.587  -3.536  0.00  0.00    +0.023 A 
ENDBRANCH  23  25
ENDBRANCH   2  21
BRANCH   1  31
ATOM     31  C   UNL     1       0.035  -4.742  -0.061  0.00  0.00    +0.147 C 
BRANCH  31  36
ATOM     32  C   UNL     1      -2.790  -9.779  -0.275  0.00  0.00    +0.044 C 
ATOM     33  C   UNL     1      -2.053  -8.466  -0.219  0.00  0.00    -0.050 A 
ATOM     34  C   UNL     1      -1.745  -7.897   1.003  0.00  0.00    +0.003 A 
ATOM     35  C   UNL     1      -1.069  -6.692   1.054  0.00  0.00    +0.005 A 
ATOM     36  C   UNL     1      -0.701  -6.056  -0.117  0.00  0.00    -0.030 A 
ATOM     37  C   UNL     1      -1.008  -6.625  -1.339  0.00  0.00    +0.005 A 
ATOM     38  C   UNL     1      -1.680  -7.832  -1.390  0.00  0.00    +0.003 A 
ENDBRANCH  31  36
ENDBRANCH   1  31
TORSDOF 8
