REMARK  Name = ZINC02181639
REMARK  10 active torsions:
REMARK  status: ('A' for Active; 'I' for Inactive)
REMARK    1  A    between atoms: C_1  and  C_2
REMARK    2  A    between atoms: C_2  and  N_3
REMARK    3  A    between atoms: N_3  and  C_4
REMARK    4  A    between atoms: N_3  and  C_6
REMARK    5  A    between atoms: C_4  and  C_5
REMARK    6  A    between atoms: C_9  and  N_12
REMARK    7  A    between atoms: C_13  and  C_14
REMARK    8  A    between atoms: C_19  and  O_20
REMARK    9  A    between atoms: O_20  and  C_21
REMARK   10  A    between atoms: C_21  and  C_23
REMARK                            x       y       z     vdW  Elec       q    Type
REMARK                         _______ _______ _______ _____ _____    ______ ____
ROOT
ATOM      1  C   UNL     1      -1.005  -8.428   1.698  0.00  0.00    +0.035 A 
ATOM      2  C   UNL     1      -0.715  -9.222   2.812  0.00  0.00    +0.013 A 
ATOM      3  C   UNL     1      -0.699 -10.594   2.692  0.00  0.00    +0.001 A 
ATOM      4  C   UNL     1      -0.970 -11.193   1.472  0.00  0.00    +0.004 A 
ATOM      5  C   UNL     1      -1.257 -10.421   0.363  0.00  0.00    +0.047 A 
ATOM      6  C   UNL     1      -1.284  -9.039   0.466  0.00  0.00    +0.141 A 
ENDROOT
BRANCH   1   8
ATOM      7  N   UNL     1      -1.299  -6.227   0.777  0.00  0.00    -0.255 NA
ATOM      8  C   UNL     1      -1.023  -6.963   1.817  0.00  0.00    +0.123 C 
BRANCH   7  12
ATOM      9  C   UNL     1      -1.351  -2.103   1.114  0.00  0.00    +0.014 A 
ATOM     10  C   UNL     1      -0.719  -2.698   0.036  0.00  0.00    +0.024 A 
ATOM     11  C   UNL     1      -0.698  -4.072  -0.082  0.00  0.00    +0.029 A 
ATOM     12  C   UNL     1      -1.316  -4.863   0.889  0.00  0.00    +0.064 A 
ATOM     13  C   UNL     1      -1.952  -4.256   1.974  0.00  0.00    +0.029 A 
ATOM     14  C   UNL     1      -1.961  -2.881   2.083  0.00  0.00    +0.024 A 
BRANCH   9  15
ATOM     15  N   UNL     1      -1.369  -0.710   1.228  0.00  0.00    -0.394 NA
ATOM     16  H   UNL     1      -1.863  -0.447   2.067  0.00  0.00    +0.126 HD
BRANCH  15  18
ATOM     17  C   UNL     1      -0.010   1.303   1.543  0.00  0.00    +0.022 C 
ATOM     18  C   UNL     1       0.010  -0.206   1.294  0.00  0.00    +0.081 C 
ENDBRANCH  15  18
BRANCH  15  19
ATOM     19  C   UNL     1      -2.046  -0.131   0.059  0.00  0.00    +0.081 C 
ATOM     20  C   UNL     1      -3.516  -0.556   0.060  0.00  0.00    +0.022 C 
ENDBRANCH  15  19
ENDBRANCH   9  15
ENDBRANCH   7  12
ENDBRANCH   1   8
BRANCH   6  21
ATOM     21  O   UNL     1      -1.573  -8.280  -0.622  0.00  0.00    -0.421 OA
BRANCH  21  22
ATOM     22  C   UNL     1      -0.545  -7.824  -1.367  0.00  0.00    +0.353 C 
ATOM     23  O   UNL     1       0.600  -8.017  -1.006  0.00  0.00    -0.244 OA
BRANCH  22  24
ATOM     24  C   UNL     1      -0.808  -7.095  -2.612  0.00  0.00    +0.116 A 
ATOM     25  C   UNL     1       0.087  -6.567  -3.492  0.00  0.00    +0.070 A 
ATOM     26  C   UNL     1      -0.372  -5.897  -4.641  0.00  0.00    +0.008 A 
ATOM     27  C   UNL     1       0.395  -5.286  -5.666  0.00  0.00    +0.010 A 
ATOM     28  C   UNL     1      -0.211  -4.675  -6.716  0.00  0.00    +0.001 A 
ATOM     29  C   UNL     1      -1.596  -4.623  -6.830  0.00  0.00    +0.001 A 
ATOM     30  C   UNL     1      -2.380  -5.205  -5.855  0.00  0.00    +0.016 A 
ATOM     31  C   UNL     1      -1.779  -5.830  -4.783  0.00  0.00    +0.022 A 
ATOM     32  S   UNL     1      -2.381  -6.687  -3.350  0.00  0.00    -0.080 S 
ATOM     33 CL   UNL     1       1.791  -6.721  -3.197  0.00  0.00    -0.082 Cl
ENDBRANCH  22  24
ENDBRANCH  21  22
ENDBRANCH   6  21
TORSDOF 8
