REMARK  Name = ZINC05033362
REMARK  6 active torsions:
REMARK  status: ('A' for Active; 'I' for Inactive)
REMARK    1  A    between atoms: C_1  and  C_2
REMARK    2  A    between atoms: C_2  and  C_3
REMARK    3  A    between atoms: C_6  and  N_9
REMARK    4  A    between atoms: C_14  and  C_28
REMARK    5  A    between atoms: N_16  and  C_22
REMARK    6  A    between atoms: C_31  and  O_34
REMARK                            x       y       z     vdW  Elec       q    Type
REMARK                         _______ _______ _______ _____ _____    ______ ____
ROOT
ATOM      1  N   UNL     1      -5.510  -2.443   0.243  0.00  0.00    -0.208 N 
ATOM      2  C   UNL     1      -6.259  -2.705  -0.834  0.00  0.00    +0.235 C 
ATOM      3  O   UNL     1      -5.847  -2.790  -1.971  0.00  0.00    -0.274 OA
ATOM      4  C   UNL     1      -7.700  -2.878  -0.412  0.00  0.00    +0.145 C 
ATOM      5  C   UNL     1      -8.539  -1.702  -0.962  0.00  0.00    +0.157 C 
ATOM      6  N   UNL     1      -9.312  -1.268   0.227  0.00  0.00    -0.244 N 
ATOM      7  O   UNL     1      -8.393  -1.386   1.314  0.00  0.00    -0.257 OA
ATOM      8  C   UNL     1      -7.659  -2.631   1.120  0.00  0.00    +0.249 C 
ATOM      9  C   UNL     1      -6.190  -2.393   1.394  0.00  0.00    +0.259 C 
ATOM     10  O   UNL     1      -5.705  -2.185   2.486  0.00  0.00    -0.272 OA
ENDROOT
BRANCH   1  14
ATOM     11  C   UNL     1      -1.388  -1.852   0.032  0.00  0.00    -0.048 A 
ATOM     12  C   UNL     1      -1.922  -3.097  -0.247  0.00  0.00    +0.005 A 
ATOM     13  C   UNL     1      -3.287  -3.296  -0.177  0.00  0.00    +0.024 A 
ATOM     14  C   UNL     1      -4.123  -2.245   0.172  0.00  0.00    +0.044 A 
ATOM     15  C   UNL     1      -3.585  -0.996   0.452  0.00  0.00    +0.024 A 
ATOM     16  C   UNL     1      -2.219  -0.804   0.386  0.00  0.00    +0.005 A 
BRANCH  11  18
ATOM     17  C   UNL     1       0.730  -1.937   1.318  0.00  0.00    +0.009 C 
ATOM     18  C   UNL     1       0.101  -1.638  -0.045  0.00  0.00    +0.032 C 
ENDBRANCH  11  18
ENDBRANCH   1  14
BRANCH   6  19
ATOM     19  C   UNL     1     -10.640  -0.838   0.273  0.00  0.00    +0.065 A 
ATOM     20  C   UNL     1     -11.546  -1.468   1.117  0.00  0.00    +0.028 A 
ATOM     21  C   UNL     1     -12.858  -1.040   1.161  0.00  0.00    +0.002 A 
ATOM     22  C   UNL     1     -13.271   0.013   0.366  0.00  0.00    +0.000 A 
ATOM     23  C   UNL     1     -12.371   0.642  -0.475  0.00  0.00    +0.002 A 
ATOM     24  C   UNL     1     -11.056   0.224  -0.520  0.00  0.00    +0.028 A 
ENDBRANCH   6  19
BRANCH   5  25
ATOM     25  C   UNL     1      -9.460  -2.170  -2.060  0.00  0.00    -0.022 A 
ATOM     26  C   UNL     1     -10.564  -2.943  -1.752  0.00  0.00    +0.009 A 
ATOM     27  C   UNL     1     -11.409  -3.374  -2.756  0.00  0.00    +0.046 A 
ATOM     28  C   UNL     1     -11.149  -3.030  -4.075  0.00  0.00    +0.117 A 
ATOM     29  C   UNL     1     -10.040  -2.255  -4.381  0.00  0.00    +0.046 A 
ATOM     30  C   UNL     1      -9.201  -1.822  -3.373  0.00  0.00    +0.009 A 
BRANCH  28  31
ATOM     31  O   UNL     1     -11.978  -3.453  -5.065  0.00  0.00    -0.507 OA
ATOM     32  H   UNL     1     -12.705  -2.844  -5.256  0.00  0.00    +0.292 HD
ENDBRANCH  28  31
ENDBRANCH   5  25
TORSDOF 5
