REMARK  Name = ZINC58847518
REMARK  4 active torsions:
REMARK  status: ('A' for Active; 'I' for Inactive)
REMARK    1  A    between atoms: C_6  and  C_7
REMARK    2  A    between atoms: C_18  and  S_23
REMARK    3  A    between atoms: S_23  and  N_26
REMARK    4  A    between atoms: N_26  and  C_27
REMARK                            x       y       z     vdW  Elec       q    Type
REMARK                         _______ _______ _______ _____ _____    ______ ____
ROOT
ATOM      1  C   UNL     1      -3.475  -0.674  -3.861  0.00  0.00    +0.105 C 
ATOM      2  C   UNL     1      -2.943  -0.497  -2.470  0.00  0.00    +0.029 C 
ATOM      3  C   UNL     1      -1.401  -0.535  -2.424  0.00  0.00    +0.033 C 
ATOM      4  C   UNL     1      -1.094  -1.042  -1.030  0.00  0.00    -0.030 C 
ATOM      5  C   UNL     1      -2.144  -1.612  -0.498  0.00  0.00    -0.023 C 
ATOM      6  C   UNL     1      -3.296  -1.597  -1.472  0.00  0.00    +0.049 C 
ATOM      7  C   UNL     1      -3.390  -2.958  -2.102  0.00  0.00    -0.018 A 
ATOM      8  C   UNL     1      -3.401  -4.069  -1.269  0.00  0.00    +0.034 A 
ATOM      9  C   UNL     1      -3.475  -5.340  -1.800  0.00  0.00    +0.109 A 
ATOM     10  C   UNL     1      -3.538  -5.518  -3.171  0.00  0.00    +0.030 A 
ATOM     11  C   UNL     1      -3.532  -4.420  -4.006  0.00  0.00    +0.025 A 
ATOM     12  C   UNL     1      -3.463  -3.136  -3.471  0.00  0.00    +0.031 A 
ATOM     13  N   UNL     1      -3.506  -2.047  -4.321  0.00  0.00    -0.336 N 
ATOM     14  H   UNL     1      -3.532  -2.217  -5.276  0.00  0.00    +0.147 HD
ENDROOT
BRANCH   1  20
ATOM     15  C   UNL     1      -3.020   1.385  -5.208  0.00  0.00    +0.007 A 
ATOM     16  C   UNL     1      -2.232   2.120  -6.075  0.00  0.00    +0.020 A 
ATOM     17  C   UNL     1      -1.039   1.594  -6.539  0.00  0.00    +0.041 A 
ATOM     18  C   UNL     1      -0.635   0.334  -6.136  0.00  0.00    +0.020 A 
ATOM     19  C   UNL     1      -1.424  -0.400  -5.269  0.00  0.00    +0.007 A 
ATOM     20  C   UNL     1      -2.616   0.126  -4.806  0.00  0.00    -0.027 A 
ATOM     21 CL   UNL     1      -0.050   2.516  -7.628  0.00  0.00    -0.084 Cl
ENDBRANCH   1  20
BRANCH   9  22
ATOM     22  S   UNL     1      -3.489  -6.740  -0.731  0.00  0.00    +0.072 S 
ATOM     23  O   UNL     1      -2.896  -7.810  -1.454  0.00  0.00    -0.150 OA
ATOM     24  O   UNL     1      -2.988  -6.298   0.523  0.00  0.00    -0.150 OA
BRANCH  22  25
ATOM     25  N   UNL     1      -5.074  -7.155  -0.488  0.00  0.00    -0.216 N 
ATOM     26  H   UNL     1      -5.399  -8.021  -0.781  0.00  0.00    +0.174 HD
BRANCH  25  27
ATOM     27  C   UNL     1      -5.942  -6.258   0.140  0.00  0.00    +0.048 A 
ATOM     28  C   UNL     1      -5.865  -6.061   1.513  0.00  0.00    +0.026 A 
ATOM     29  C   UNL     1      -6.724  -5.174   2.131  0.00  0.00    +0.022 A 
ATOM     30  C   UNL     1      -7.662  -4.482   1.384  0.00  0.00    +0.041 A 
ATOM     31  C   UNL     1      -7.741  -4.677   0.017  0.00  0.00    +0.022 A 
ATOM     32  C   UNL     1      -6.880  -5.559  -0.608  0.00  0.00    +0.026 A 
ATOM     33 CL   UNL     1      -8.741  -3.369   2.165  0.00  0.00    -0.084 Cl
ENDBRANCH  25  27
ENDBRANCH  22  25
ENDBRANCH   9  22
TORSDOF 4
