REMARK  Name = ZINC06721675
REMARK  5 active torsions:
REMARK  status: ('A' for Active; 'I' for Inactive)
REMARK    1  A    between atoms: C_1  and  C_2
REMARK    2  A    between atoms: C_5  and  O_30
REMARK    3  A    between atoms: C_6  and  C_8
REMARK    4  A    between atoms: C_21  and  C_23
REMARK    5  A    between atoms: C_27  and  O_29
REMARK                            x       y       z     vdW  Elec       q    Type
REMARK                         _______ _______ _______ _____ _____    ______ ____
ROOT
ATOM      1  C   UNL     1       5.128  -1.767  -1.875  0.00  0.00    +0.072 C 
ATOM      2  N   UNL     1       4.353  -2.678  -1.385  0.00  0.00    -0.184 NA
ATOM      3  N   UNL     1       3.509  -2.209  -0.395  0.00  0.00    -0.205 N 
ATOM      4  C   UNL     1       3.920  -0.836  -0.025  0.00  0.00    +0.136 C 
ATOM      5  C   UNL     1       4.882  -0.455  -1.159  0.00  0.00    +0.086 C 
ATOM      6  C   UNL     1       2.668   0.002  -0.043  0.00  0.00    +0.017 A 
ATOM      7  C   UNL     1       2.778   1.379  -0.065  0.00  0.00    +0.009 A 
ATOM      8  C   UNL     1       1.645   2.170  -0.055  0.00  0.00    +0.001 A 
ATOM      9  C   UNL     1       0.396   1.577  -0.027  0.00  0.00    +0.004 A 
ATOM     10  C   UNL     1       0.282   0.204  -0.016  0.00  0.00    +0.046 A 
ATOM     11  C   UNL     1       1.421  -0.603  -0.026  0.00  0.00    +0.129 A 
ATOM     12  O   UNL     1       1.231  -1.947  -0.038  0.00  0.00    -0.465 OA
ATOM     13  C   UNL     1       2.329  -2.830   0.220  0.00  0.00    +0.310 C 
ENDROOT
BRANCH   1  19
ATOM     14  C   UNL     1       8.646   0.037  -4.915  0.00  0.00    +0.044 C 
ATOM     15  C   UNL     1       7.798  -1.111  -4.430  0.00  0.00    -0.050 A 
ATOM     16  C   UNL     1       7.934  -2.361  -5.009  0.00  0.00    +0.007 A 
ATOM     17  C   UNL     1       7.161  -3.421  -4.573  0.00  0.00    +0.046 A 
ATOM     18  C   UNL     1       6.247  -3.239  -3.548  0.00  0.00    +0.126 A 
ATOM     19  C   UNL     1       6.102  -1.974  -2.963  0.00  0.00    +0.039 A 
ATOM     20  C   UNL     1       6.889  -0.911  -3.412  0.00  0.00    +0.016 A 
BRANCH  18  21
ATOM     21  O   UNL     1       5.490  -4.281  -3.115  0.00  0.00    -0.506 OA
ATOM     22  H   UNL     1       4.651  -4.379  -3.585  0.00  0.00    +0.292 HD
ENDBRANCH  18  21
ENDBRANCH   1  19
BRANCH  13  23
ATOM     23  C   UNL     1       2.535  -2.979   1.706  0.00  0.00    +0.016 A 
ATOM     24  C   UNL     1       1.476  -2.780   2.573  0.00  0.00    +0.009 A 
ATOM     25  C   UNL     1       1.662  -2.916   3.937  0.00  0.00    +0.004 A 
ATOM     26  C   UNL     1       2.906  -3.252   4.436  0.00  0.00    +0.045 A 
ATOM     27  C   UNL     1       3.969  -3.453   3.567  0.00  0.00    +0.117 A 
ATOM     28  C   UNL     1       3.779  -3.320   2.199  0.00  0.00    +0.054 A 
BRANCH  27  29
ATOM     29  O   UNL     1       5.193  -3.783   4.056  0.00  0.00    -0.507 OA
ATOM     30  H   UNL     1       5.339  -4.735   4.140  0.00  0.00    +0.292 HD
ENDBRANCH  27  29
ENDBRANCH  13  23
TORSDOF 4
