REMARK  Name = ZINC33278789
REMARK  7 active torsions:
REMARK  status: ('A' for Active; 'I' for Inactive)
REMARK    1  A    between atoms: C_7  and  C_23
REMARK    2  A    between atoms: N_9  and  C_10
REMARK    3  A    between atoms: C_10  and  C_11
REMARK    4  A    between atoms: N_13  and  C_14
REMARK    5  A    between atoms: C_14  and  C_15
REMARK    6  A    between atoms: C_26  and  C_28
REMARK    7  A    between atoms: C_28  and  N_29
REMARK                            x       y       z     vdW  Elec       q    Type
REMARK                         _______ _______ _______ _____ _____    ______ ____
ROOT
ATOM      1  C   UNL     1      -1.245   3.138   0.032  0.00  0.00    +0.001 A 
ATOM      2  C   UNL     1      -1.214   1.751   0.017  0.00  0.00    +0.002 A 
ATOM      3  C   UNL     1      -0.013   1.076   0.008  0.00  0.00    +0.026 A 
ATOM      4  C   UNL     1       1.182   1.790   0.000  0.00  0.00    +0.050 A 
ATOM      5  C   UNL     1       1.142   3.194   0.008  0.00  0.00    +0.012 A 
ATOM      6  C   UNL     1      -0.083   3.858   0.024  0.00  0.00    +0.011 A 
ATOM      7  C   UNL     1       2.547   3.639  -0.004  0.00  0.00    +0.064 A 
ATOM      8  C   UNL     1       3.310   2.515  -0.017  0.00  0.00    +0.100 A 
ATOM      9  N   UNL     1       2.508   1.414  -0.015  0.00  0.00    -0.337 N 
ENDROOT
BRANCH   7  10
ATOM     10  C   UNL     1       3.030   5.033  -0.000  0.00  0.00    +0.250 A 
ATOM     11  N   UNL     1       2.286   6.116   0.008  0.00  0.00    -0.107 NA
ATOM     12  N   UNL     1       3.047   7.153   0.011  0.00  0.00    -0.114 NA
ATOM     13  C   UNL     1       4.295   6.779  -0.004  0.00  0.00    +0.202 A 
ATOM     14  O   UNL     1       4.317   5.434  -0.011  0.00  0.00    -0.422 OA
BRANCH  13  15
ATOM     15  C   UNL     1       5.496   7.689  -0.011  0.00  0.00    +0.021 C 
BRANCH  15  16
ATOM     16  N   UNL     1       5.901   7.977   1.371  0.00  0.00    +0.386 N 
ATOM     17  C   UNL     1       4.870   8.756   2.070  0.00  0.00    -0.078 C 
ATOM     18  C   UNL     1       5.257   8.912   3.542  0.00  0.00    -0.019 C 
ATOM     19  C   UNL     1       6.611   9.621   3.636  0.00  0.00    -0.004 C 
ATOM     20  C   UNL     1       7.656   8.815   2.861  0.00  0.00    -0.019 C 
ATOM     21  C   UNL     1       7.199   8.662   1.408  0.00  0.00    -0.078 C 
ATOM     22  H   UNL     1       6.012   7.019   1.900  0.00  0.00    -0.081 HD
ENDBRANCH  15  16
ENDBRANCH  13  15
ENDBRANCH   7  10
BRANCH   9  23
ATOM     23  C   UNL     1       2.985   0.029  -0.027  0.00  0.00    +0.217 C 
BRANCH  23  24
ATOM     24  C   UNL     1       3.018  -0.479  -1.445  0.00  0.00    +0.233 C 
ATOM     25  O   UNL     1       2.675   0.244  -2.356  0.00  0.00    -0.274 OA
ATOM     26  N   UNL     1       3.427  -1.738  -1.700  0.00  0.00    -0.310 N 
ATOM     27  H   UNL     1       3.737  -2.394  -0.874  0.00  0.00    +0.149 HD
BRANCH  26  28
ATOM     28  C   UNL     1       3.458  -2.232  -3.079  0.00  0.00    +0.141 C 
BRANCH  28  29
ATOM     29  C   UNL     1       3.950  -3.656  -3.091  0.00  0.00    -0.012 A 
ATOM     30  C   UNL     1       3.058  -4.693  -3.295  0.00  0.00    +0.009 A 
ATOM     31  C   UNL     1       3.508  -6.000  -3.307  0.00  0.00    +0.039 A 
ATOM     32  C   UNL     1       4.852  -6.271  -3.115  0.00  0.00    +0.125 A 
ATOM     33  C   UNL     1       5.745  -5.234  -2.910  0.00  0.00    +0.058 A 
ATOM     34  C   UNL     1       5.294  -3.926  -2.904  0.00  0.00    +0.048 A 
ATOM     35 CL   UNL     1       6.413  -2.623  -2.655  0.00  0.00    -0.083 Cl
ATOM     36  F   UNL     1       5.292  -7.549  -3.127  0.00  0.00    -0.205 F 
ENDBRANCH  28  29
ENDBRANCH  26  28
ENDBRANCH  23  24
ENDBRANCH   9  23
TORSDOF 7
