REMARK  Name = ZINC49411558
REMARK  6 active torsions:
REMARK  status: ('A' for Active; 'I' for Inactive)
REMARK    1  A    between atoms: C_1  and  C_2
REMARK    2  A    between atoms: C_2  and  C_3
REMARK    3  A    between atoms: C_8  and  N_9
REMARK    4  A    between atoms: C_10  and  C_12
REMARK    5  A    between atoms: C_12  and  N_13
REMARK    6  A    between atoms: N_15  and  C_25
REMARK                            x       y       z     vdW  Elec       q    Type
REMARK                         _______ _______ _______ _____ _____    ______ ____
ROOT
ATOM      1  N   UNL     1       6.357  -0.503   0.915  0.00  0.00    -0.150 NA
ATOM      2  C   UNL     1       6.894  -1.873   1.049  0.00  0.00    +0.223 C 
ATOM      3  N   UNL     1       7.515  -2.260  -0.215  0.00  0.00    -0.269 N 
ATOM      4  C   UNL     1       8.440  -1.474  -0.884  0.00  0.00    +0.153 A 
ATOM      5  C   UNL     1       8.525  -0.101  -0.678  0.00  0.00    +0.146 A 
ATOM      6  C   UNL     1       9.441   0.650  -1.384  0.00  0.00    +0.033 A 
ATOM      7  C   UNL     1      10.276  -0.002  -2.284  0.00  0.00    +0.022 A 
ATOM      8  C   UNL     1      10.156  -1.369  -2.436  0.00  0.00    +0.113 A 
ATOM      9  N   UNL     1       9.265  -2.056  -1.751  0.00  0.00    -0.238 NA
ATOM     10  S   UNL     1       7.466   0.673   0.499  0.00  0.00    +0.066 S 
ATOM     11  O   UNL     1       8.252   0.930   1.654  0.00  0.00    -0.153 OA
ATOM     12  O   UNL     1       6.753   1.691  -0.190  0.00  0.00    -0.153 OA
ENDROOT
BRANCH   3  13
ATOM     13  C   UNL     1       7.158  -3.490  -0.780  0.00  0.00    +0.037 A 
ATOM     14  C   UNL     1       6.665  -3.542  -2.077  0.00  0.00    +0.026 A 
ATOM     15  C   UNL     1       6.314  -4.756  -2.633  0.00  0.00    +0.040 A 
ATOM     16  C   UNL     1       6.452  -5.921  -1.898  0.00  0.00    +0.124 A 
ATOM     17  C   UNL     1       6.943  -5.872  -0.604  0.00  0.00    +0.040 A 
ATOM     18  C   UNL     1       7.300  -4.660  -0.046  0.00  0.00    +0.026 A 
ATOM     19  F   UNL     1       6.107  -7.108  -2.443  0.00  0.00    -0.205 F 
ENDBRANCH   3  13
BRANCH   1  20
ATOM     20  C   UNL     1       4.941  -0.197   1.129  0.00  0.00    +0.207 C 
BRANCH  20  22
ATOM     21  N   UNL     1       2.845  -0.239  -0.183  0.00  0.00    -0.284 N 
ATOM     22  C   UNL     1       4.175  -0.453  -0.143  0.00  0.00    +0.233 C 
ATOM     23  O   UNL     1       4.755  -0.852  -1.131  0.00  0.00    -0.274 OA
ATOM     24  H   UNL     1       2.390   0.137   0.587  0.00  0.00    +0.155 HD
BRANCH  21  30
ATOM     25  C   UNL     1       0.820  -1.036  -1.231  0.00  0.00    -0.026 A 
ATOM     26  C   UNL     1       0.104  -1.346  -2.371  0.00  0.00    +0.005 A 
ATOM     27  C   UNL     1       0.682  -1.185  -3.617  0.00  0.00    +0.000 A 
ATOM     28  C   UNL     1       1.978  -0.714  -3.725  0.00  0.00    +0.002 A 
ATOM     29  C   UNL     1       2.698  -0.402  -2.589  0.00  0.00    +0.023 A 
ATOM     30  C   UNL     1       2.119  -0.558  -1.337  0.00  0.00    +0.037 A 
BRANCH  25  32
ATOM     31  C   UNL     1      -0.419   0.116   0.582  0.00  0.00    +0.009 C 
ATOM     32  C   UNL     1       0.189  -1.212   0.127  0.00  0.00    +0.033 C 
ENDBRANCH  25  32
ENDBRANCH  21  30
ENDBRANCH  20  22
ENDBRANCH   1  20
TORSDOF 5
