REMARK  Name = ZINC50650655
REMARK  4 active torsions:
REMARK  status: ('A' for Active; 'I' for Inactive)
REMARK    1  A    between atoms: C_3  and  N_20
REMARK    2  A    between atoms: C_6  and  S_7
REMARK    3  A    between atoms: S_7  and  N_10
REMARK    4  A    between atoms: N_10  and  C_11
REMARK                            x       y       z     vdW  Elec       q    Type
REMARK                         _______ _______ _______ _____ _____    ______ ____
ROOT
ATOM      1  S   UNL     1      -1.424  -1.026   0.001  0.00  0.00    +0.093 S 
ATOM      2  O   UNL     1      -1.079  -2.337   0.427  0.00  0.00    -0.148 OA
ATOM      3  O   UNL     1      -2.387  -0.233   0.680  0.00  0.00    -0.148 OA
ENDROOT
BRANCH   1   9
ATOM      4  C   UNL     1       0.038   1.289   0.091  0.00  0.00    +0.033 A 
ATOM      5  C   UNL     1       1.234   1.982   0.070  0.00  0.00    +0.043 A 
ATOM      6  C   UNL     1       2.424   1.275  -0.064  0.00  0.00    +0.094 A 
ATOM      7  N   UNL     1       2.415  -0.045  -0.169  0.00  0.00    -0.348 N 
ATOM      8  C   UNL     1       1.289  -0.733  -0.152  0.00  0.00    +0.113 A 
ATOM      9  C   UNL     1       0.072  -0.095  -0.022  0.00  0.00    +0.126 A 
ATOM     10  H   UNL     1       3.257  -0.518  -0.261  0.00  0.00    +0.167 HD
BRANCH   6  11
ATOM     11  N   UNL     1       3.634   1.959  -0.087  0.00  0.00    -0.345 N 
ATOM     12  H   UNL     1       3.646   2.926  -0.011  0.00  0.00    +0.144 HD
ATOM     13  H   UNL     1       4.466   1.470  -0.180  0.00  0.00    +0.144 HD
ENDBRANCH   6  11
ENDBRANCH   1   9
BRANCH   1  14
ATOM     14  N   UNL     1      -1.941  -1.159  -1.567  0.00  0.00    -0.096 NA
BRANCH  14  15
ATOM     15  C   UNL     1      -3.053  -1.950  -1.871  0.00  0.00    +0.102 A 
ATOM     16  C   UNL     1      -4.325  -1.538  -1.493  0.00  0.00    +0.044 A 
ATOM     17  C   UNL     1      -5.422  -2.322  -1.796  0.00  0.00    +0.032 A 
ATOM     18  C   UNL     1      -5.255  -3.516  -2.474  0.00  0.00    +0.020 A 
ATOM     19  C   UNL     1      -3.990  -3.929  -2.852  0.00  0.00    +0.032 A 
ATOM     20  C   UNL     1      -2.889  -3.147  -2.558  0.00  0.00    +0.044 A 
ATOM     21 BR   UNL     1      -1.161  -3.709  -3.081  0.00  0.00    -0.048 Br
ATOM     22 BR   UNL     1      -6.759  -4.586  -2.886  0.00  0.00    -0.050 Br
ATOM     23 BR   UNL     1      -4.555   0.093  -0.565  0.00  0.00    -0.048 Br
ENDBRANCH  14  15
ENDBRANCH   1  14
TORSDOF 4
