REMARK  Name = ZINC20158582
REMARK  11 active torsions:
REMARK  status: ('A' for Active; 'I' for Inactive)
REMARK    1  A    between atoms: C_1  and  C_2
REMARK    2  A    between atoms: C_2  and  O_3
REMARK    3  A    between atoms: O_3  and  C_4
REMARK    4  A    between atoms: C_4  and  C_5
REMARK    5  A    between atoms: C_5  and  O_6
REMARK    6  A    between atoms: O_6  and  C_7
REMARK    7  A    between atoms: C_7  and  C_9
REMARK    8  A    between atoms: C_10  and  C_39
REMARK    9  A    between atoms: C_14  and  C_16
REMARK   10  A    between atoms: C_22  and  C_27
REMARK   11  A    between atoms: C_31  and  C_34
REMARK                            x       y       z     vdW  Elec       q    Type
REMARK                         _______ _______ _______ _____ _____    ______ ____
ROOT
ATOM      1  C   UNL     1      -5.719   7.541  -1.301  0.00  0.00    +0.065 C 
ATOM      2  C   UNL     1      -5.170   6.959  -2.381  0.00  0.00    +0.016 C 
ATOM      3  N   UNL     1      -3.958   6.335  -2.292  0.00  0.00    -0.321 N 
ATOM      4  C   UNL     1      -3.465   5.938  -1.078  0.00  0.00    +0.016 C 
ATOM      5  C   UNL     1      -3.946   6.472   0.065  0.00  0.00    +0.024 C 
ATOM      6  C   UNL     1      -5.020   7.530   0.028  0.00  0.00    +0.099 C 
ATOM      7  C   UNL     1      -3.459   6.063   1.318  0.00  0.00    +0.162 C 
ATOM      8  O   UNL     1      -3.907   6.571   2.327  0.00  0.00    -0.292 OA
ATOM      9  C   UNL     1      -2.393   5.008   1.434  0.00  0.00    +0.088 C 
ATOM     10  C   UNL     1      -2.490   4.066   0.230  0.00  0.00    +0.039 C 
ATOM     11  C   UNL     1      -2.376   4.894  -1.052  0.00  0.00    +0.060 C 
ATOM     12  C   UNL     1      -5.898   6.996  -3.701  0.00  0.00    +0.061 C 
ATOM     13  H   UNL     1      -3.368   6.147  -3.201  0.00  0.00    +0.152 HD
ENDROOT
BRANCH   6  14
ATOM     14  C   UNL     1      -4.395   8.880   0.269  0.00  0.00    +0.047 A 
ATOM     15  C   UNL     1      -3.444   9.343  -0.563  0.00  0.00    +0.204 A 
ATOM     16  O   UNL     1      -2.858  10.535  -0.403  0.00  0.00    -0.462 OA
ATOM     17  C   UNL     1      -3.168  11.361   0.617  0.00  0.00    +0.138 A 
ATOM     18  C   UNL     1      -2.536  12.591   0.759  0.00  0.00    +0.047 A 
ATOM     19  C   UNL     1      -2.871  13.418   1.810  0.00  0.00    +0.007 A 
ATOM     20  C   UNL     1      -3.835  13.038   2.732  0.00  0.00    -0.050 A 
ATOM     21  C   UNL     1      -4.473  11.823   2.609  0.00  0.00    +0.018 A 
ATOM     22  C   UNL     1      -4.144  10.978   1.551  0.00  0.00    +0.064 A 
ATOM     23  C   UNL     1      -4.801   9.667   1.378  0.00  0.00    +0.197 A 
ATOM     24  O   UNL     1      -5.655   9.277   2.155  0.00  0.00    -0.287 OA
ATOM     25  C   UNL     1      -4.186  13.957   3.873  0.00  0.00    +0.044 C 
ENDBRANCH   6  14
BRANCH  10  26
ATOM     26  C   UNL     1      -1.370   3.058   0.283  0.00  0.00    -0.006 A 
ATOM     27  C   UNL     1      -1.441   1.706   0.339  0.00  0.00    +0.011 A 
ATOM     28  C   UNL     1      -0.268   0.975   0.387  0.00  0.00    +0.008 A 
ATOM     29  C   UNL     1       0.917   1.632   0.365  0.00  0.00    +0.045 A 
ATOM     30  S   UNL     1       0.393   3.337   0.283  0.00  0.00    -0.101 S 
ENDBRANCH  10  26
BRANCH   1  31
ATOM     31  C   UNL     1      -6.978   8.175  -1.417  0.00  0.00    +0.338 C 
ATOM     32  O   UNL     1      -7.504   8.287  -2.509  0.00  0.00    -0.245 OA
BRANCH  31  33
ATOM     33  O   UNL     1      -7.596   8.655  -0.318  0.00  0.00    -0.459 OA
BRANCH  33  34
ATOM     34  C   UNL     1      -8.865   9.283  -0.510  0.00  0.00    +0.260 C 
BRANCH  34  35
ATOM     35  C   UNL     1      -9.406   9.761   0.839  0.00  0.00    +0.201 C 
BRANCH  35  36
ATOM     36  O   UNL     1      -8.554  10.783   1.360  0.00  0.00    -0.377 OA
BRANCH  36  38
ATOM     37  C   UNL     1      -7.992  12.381   3.083  0.00  0.00    +0.034 C 
ATOM     38  C   UNL     1      -8.973  11.300   2.624  0.00  0.00    +0.156 C 
ENDBRANCH  36  38
ENDBRANCH  35  36
ENDBRANCH  34  35
ENDBRANCH  33  34
ENDBRANCH  31  33
ENDBRANCH   1  31
TORSDOF 8
