REMARK  Name = ZINC39661309
REMARK  8 active torsions:
REMARK  status: ('A' for Active; 'I' for Inactive)
REMARK    1  A    between atoms: C_1  and  C_2
REMARK    2  A    between atoms: C_4  and  C_11
REMARK    3  A    between atoms: N_5  and  C_7
REMARK    4  A    between atoms: C_7  and  C_8
REMARK    5  A    between atoms: C_7  and  C_9
REMARK    6  A    between atoms: C_7  and  C_10
REMARK    7  A    between atoms: C_15  and  C_24
REMARK    8  A    between atoms: N_26  and  C_27
REMARK                            x       y       z     vdW  Elec       q    Type
REMARK                         _______ _______ _______ _____ _____    ______ ____
ROOT
ATOM      1  C   UNL     1      -0.499  -3.628  -1.440  0.00  0.00    +0.265 C 
ATOM      2  O   UNL     1      -0.911  -3.633  -2.585  0.00  0.00    -0.268 OA
ATOM      3  N   UNL     1      -0.483  -4.771  -0.726  0.00  0.00    -0.295 N 
ATOM      4  C   UNL     1      -0.146  -4.941   0.708  0.00  0.00    +0.121 C 
ATOM      5  C   UNL     1      -1.153  -5.993   1.223  0.00  0.00    +0.100 C 
ATOM      6  C   UNL     1      -1.575  -6.779  -0.030  0.00  0.00    -0.004 C 
ATOM      7  C   UNL     1      -0.803  -6.141  -1.194  0.00  0.00    +0.115 C 
ATOM      8  C   UNL     1      -3.077  -6.639  -0.261  0.00  0.00    -0.010 C 
ATOM      9  C   UNL     1      -3.481  -7.474  -1.479  0.00  0.00    -0.082 C 
ATOM     10  N   UNL     1      -3.131  -8.881  -1.247  0.00  0.00    +0.379 N 
ATOM     11  C   UNL     1      -1.675  -9.020  -1.118  0.00  0.00    -0.082 C 
ATOM     12  C   UNL     1      -1.194  -8.249   0.115  0.00  0.00    -0.010 C 
ATOM     13  H   UNL     1      -3.574  -9.202  -0.400  0.00  0.00    -0.086 HD
ATOM     14  H   UNL     1      -3.453  -9.439  -2.024  0.00  0.00    -0.086 HD
ENDROOT
BRANCH   1  18
ATOM     15  C   UNL     1       1.560  -0.194   1.672  0.00  0.00    +0.067 C 
ATOM     16  C   UNL     1       0.877  -0.866   0.509  0.00  0.00    +0.061 A 
ATOM     17  C   UNL     1       0.622  -2.233   0.383  0.00  0.00    +0.057 A 
ATOM     18  C   UNL     1      -0.018  -2.376  -0.837  0.00  0.00    +0.124 A 
ATOM     19  N   UNL     1      -0.112  -1.120  -1.367  0.00  0.00    -0.254 N 
ATOM     20  N   UNL     1       0.411  -0.270  -0.560  0.00  0.00    -0.175 NA
BRANCH  19  21
ATOM     21  C   UNL     1      -0.723  -0.793  -2.659  0.00  0.00    +0.056 C 
ATOM     22  C   UNL     1      -2.154  -1.332  -2.697  0.00  0.00    +0.036 C 
ATOM     23  C   UNL     1      -0.744   0.725  -2.843  0.00  0.00    +0.036 C 
ATOM     24  C   UNL     1       0.092  -1.433  -3.784  0.00  0.00    +0.036 C 
ENDBRANCH  19  21
ENDBRANCH   1  18
BRANCH   5  25
ATOM     25  C   UNL     1      -2.347  -5.316   1.847  0.00  0.00    +0.219 C 
ATOM     26  O   UNL     1      -2.752  -4.265   1.397  0.00  0.00    -0.275 OA
ATOM     27  N   UNL     1      -2.964  -5.879   2.905  0.00  0.00    -0.304 N 
ATOM     28  H   UNL     1      -2.597  -6.680   3.311  0.00  0.00    +0.149 HD
BRANCH  27  29
ATOM     29  C   UNL     1      -4.188  -5.281   3.442  0.00  0.00    +0.151 C 
ATOM     30  C   UNL     1      -4.306  -5.635   4.926  0.00  0.00    +0.042 C 
ATOM     31  C   UNL     1      -5.798  -5.524   5.320  0.00  0.00    +0.079 C 
ATOM     32  S   UNL     1      -6.632  -5.939   3.740  0.00  0.00    -0.086 S 
ATOM     33  C   UNL     1      -5.370  -5.784   2.647  0.00  0.00    +0.209 C 
ATOM     34  O   UNL     1      -5.401  -6.026   1.458  0.00  0.00    -0.283 OA
ENDBRANCH  27  29
ENDBRANCH   5  25
TORSDOF 4
