REMARK  Name = ZINC19595105
REMARK  5 active torsions:
REMARK  status: ('A' for Active; 'I' for Inactive)
REMARK    1  A    between atoms: C_6  and  C_7
REMARK    2  A    between atoms: C_16  and  C_24
REMARK    3  A    between atoms: C_17  and  N_23
REMARK    4  A    between atoms: C_18  and  C_19
REMARK    5  A    between atoms: C_18  and  C_21
REMARK                            x       y       z     vdW  Elec       q    Type
REMARK                         _______ _______ _______ _____ _____    ______ ____
ROOT
ATOM      1  C   UNL     1      -0.074   5.619   0.032  0.00  0.00    +0.066 C 
ATOM      2  C   UNL     1      -0.703   6.129  -1.267  0.00  0.00    +0.030 C 
ATOM      3  C   UNL     1       0.196   5.895  -2.458  0.00  0.00    +0.009 C 
ATOM      4  C   UNL     1      -0.213   4.650  -3.243  0.00  0.00    +0.005 C 
ATOM      5  C   UNL     1      -1.661   4.830  -3.716  0.00  0.00    +0.027 C 
ATOM      6  C   UNL     1      -2.531   4.968  -2.493  0.00  0.00    -0.022 C 
ATOM      7  C   UNL     1      -2.073   5.534  -1.393  0.00  0.00    -0.029 C 
ATOM      8  C   UNL     1      -2.928   5.549  -0.177  0.00  0.00    +0.074 C 
ATOM      9  C   UNL     1      -2.364   5.811   1.029  0.00  0.00    +0.054 C 
ATOM     10  C   UNL     1      -0.908   6.114   1.214  0.00  0.00    +0.188 C 
ENDROOT
BRANCH   1  16
ATOM     11  C   UNL     1      -1.158   3.404   0.461  0.00  0.00    +0.007 A 
ATOM     12  C   UNL     1      -1.140   2.022   0.455  0.00  0.00    +0.038 A 
ATOM     13  C   UNL     1      -0.016   1.347   0.009  0.00  0.00    +0.123 A 
ATOM     14  C   UNL     1       1.091   2.057  -0.424  0.00  0.00    +0.038 A 
ATOM     15  C   UNL     1       1.069   3.439  -0.421  0.00  0.00    +0.007 A 
ATOM     16  C   UNL     1      -0.054   4.112   0.024  0.00  0.00    -0.041 A 
ATOM     17  F   UNL     1       0.002  -0.004   0.003  0.00  0.00    -0.205 F 
ENDBRANCH   1  16
BRANCH   9  18
ATOM     18  N   UNL     1      -3.167   5.797   2.135  0.00  0.00    -0.358 N 
ATOM     19  H   UNL     1      -2.740   6.005   3.127  0.00  0.00    +0.142 HD
ATOM     20  H   UNL     1      -4.240   5.578   2.032  0.00  0.00    +0.142 HD
ENDBRANCH   9  18
BRANCH  10  21
ATOM     21  C   UNL     1      -0.434   5.458   2.444  0.00  0.00    +0.091 C 
ATOM     22  N   UNL     1      -0.068   4.952   3.393  0.00  0.00    -0.194 NA
ENDBRANCH  10  21
BRANCH  10  23
ATOM     23  C   UNL     1      -0.733   7.569   1.349  0.00  0.00    +0.091 C 
ATOM     24  N   UNL     1      -0.599   8.692   1.454  0.00  0.00    -0.194 NA
ENDBRANCH  10  23
BRANCH   8  25
ATOM     25  C   UNL     1      -4.333   5.292  -0.278  0.00  0.00    +0.101 C 
ATOM     26  N   UNL     1      -5.448   5.088  -0.358  0.00  0.00    -0.191 NA
ENDBRANCH   8  25
TORSDOF 5
