REMARK  Name = ZINC39689952
REMARK  5 active torsions:
REMARK  status: ('A' for Active; 'I' for Inactive)
REMARK    1  A    between atoms: N_4  and  C_6
REMARK    2  A    between atoms: C_9  and  C_12
REMARK    3  A    between atoms: C_12  and  N_13
REMARK    4  A    between atoms: C_14  and  C_16
REMARK    5  A    between atoms: C_27  and  C_29
REMARK                            x       y       z     vdW  Elec       q    Type
REMARK                         _______ _______ _______ _____ _____    ______ ____
ROOT
ATOM      1  C   UNL     1       3.820  -8.017   2.971  0.00  0.00    +0.100 C 
ATOM      2  C   UNL     1       2.490  -7.895   3.747  0.00  0.00    +0.121 C 
ATOM      3  N   UNL     1       1.859  -9.230   3.620  0.00  0.00    -0.296 N 
ATOM      4  C   UNL     1       2.986 -10.184   3.745  0.00  0.00    +0.115 C 
ATOM      5  C   UNL     1       4.144  -9.520   2.974  0.00  0.00    -0.004 C 
ATOM      6  C   UNL     1       4.199 -10.052   1.546  0.00  0.00    -0.010 C 
ATOM      7  C   UNL     1       4.579 -11.536   1.573  0.00  0.00    -0.082 C 
ATOM      8  N   UNL     1       5.883 -11.697   2.228  0.00  0.00    +0.379 N 
ATOM      9  C   UNL     1       5.796 -11.269   3.629  0.00  0.00    -0.082 C 
ATOM     10  C   UNL     1       5.468  -9.774   3.689  0.00  0.00    -0.010 C 
ATOM     11  C   UNL     1       0.554  -9.512   3.432  0.00  0.00    +0.248 C 
ATOM     12  O   UNL     1      -0.242  -8.612   3.250  0.00  0.00    -0.270 OA
ATOM     13  H   UNL     1       6.158 -12.667   2.191  0.00  0.00    -0.086 HD
ATOM     14  H   UNL     1       6.570 -11.136   1.748  0.00  0.00    -0.086 HD
ENDROOT
BRANCH  11  15
ATOM     15  C   UNL     1       0.093 -10.915   3.446  0.00  0.00    +0.055 A 
ATOM     16  C   UNL     1       0.691 -11.841   4.303  0.00  0.00    +0.016 A 
ATOM     17  C   UNL     1       0.256 -13.149   4.312  0.00  0.00    +0.021 A 
ATOM     18  C   UNL     1      -0.773 -13.547   3.474  0.00  0.00    +0.042 A 
ATOM     19  C   UNL     1      -1.371 -12.635   2.621  0.00  0.00    +0.040 A 
ATOM     20  C   UNL     1      -0.949 -11.320   2.607  0.00  0.00    +0.054 A 
ATOM     21 CL   UNL     1      -1.704 -10.175   1.544  0.00  0.00    -0.083 Cl
ATOM     22 CL   UNL     1      -1.314 -15.196   3.492  0.00  0.00    -0.083 Cl
ENDBRANCH  11  15
BRANCH   1  24
ATOM     23  N   UNL     1       4.692  -6.961   0.910  0.00  0.00    -0.311 N 
ATOM     24  C   UNL     1       3.650  -7.520   1.558  0.00  0.00    +0.218 C 
ATOM     25  O   UNL     1       2.576  -7.623   1.004  0.00  0.00    -0.275 OA
ATOM     26  H   UNL     1       5.551  -6.879   1.353  0.00  0.00    +0.149 HD
BRANCH  23  27
ATOM     27  C   UNL     1       4.527  -6.479  -0.463  0.00  0.00    +0.139 C 
BRANCH  27  31
ATOM     28  C   UNL     1       8.224  -4.847  -1.854  0.00  0.00    +0.046 A 
ATOM     29  C   UNL     1       7.941  -6.193  -2.046  0.00  0.00    +0.026 A 
ATOM     30  C   UNL     1       6.746  -6.717  -1.595  0.00  0.00    +0.007 A 
ATOM     31  C   UNL     1       5.830  -5.904  -0.954  0.00  0.00    -0.030 A 
ATOM     32  C   UNL     1       6.108  -4.563  -0.762  0.00  0.00    +0.007 A 
ATOM     33  C   UNL     1       7.305  -4.034  -1.205  0.00  0.00    +0.026 A 
BRANCH  28  37
ATOM     34  C   UNL     1      11.052  -2.884  -2.740  0.00  0.00    +0.019 A 
ATOM     35  C   UNL     1      11.424  -4.150  -3.236  0.00  0.00    +0.019 A 
ATOM     36  C   UNL     1      10.418  -5.005  -2.960  0.00  0.00    +0.091 A 
ATOM     37  N   UNL     1       9.437  -4.312  -2.310  0.00  0.00    -0.323 N 
ATOM     38  C   UNL     1       9.833  -3.012  -2.179  0.00  0.00    +0.091 A 
ENDBRANCH  28  37
ENDBRANCH  27  31
ENDBRANCH  23  27
ENDBRANCH   1  24
TORSDOF 5
