REMARK  Name = ZINC53619575
REMARK  8 active torsions:
REMARK  status: ('A' for Active; 'I' for Inactive)
REMARK    1  A    between atoms: C_1  and  C_2
REMARK    2  A    between atoms: C_5  and  O_27
REMARK    3  A    between atoms: C_7  and  O_26
REMARK    4  A    between atoms: C_13  and  C_15
REMARK    5  A    between atoms: C_15  and  C_16
REMARK    6  A    between atoms: N_18  and  C_19
REMARK    7  A    between atoms: C_19  and  C_20
REMARK    8  A    between atoms: C_20  and  C_21
REMARK                            x       y       z     vdW  Elec       q    Type
REMARK                         _______ _______ _______ _____ _____    ______ ____
ROOT
ATOM      1  C   UNL     1      -0.019   1.526   0.010  0.00  0.00    +0.013 C 
ATOM      2  C   UNL     1       0.002  -0.004   0.002  0.00  0.00    +0.037 C 
ATOM      3  C   UNL     1      -1.407  -0.525   0.133  0.00  0.00    +0.040 A 
ATOM      4  C   UNL     1      -2.423   0.134  -0.553  0.00  0.00    +0.127 A 
ATOM      5  C   UNL     1      -3.730  -0.315  -0.467  0.00  0.00    +0.091 A 
ATOM      6  C   UNL     1      -4.030  -1.426   0.306  0.00  0.00    +0.124 A 
ATOM      7  C   UNL     1      -3.021  -2.082   0.992  0.00  0.00    +0.092 A 
ATOM      8  C   UNL     1      -1.708  -1.629   0.909  0.00  0.00    +0.142 A 
ATOM      9  O   UNL     1      -0.752  -2.293   1.615  0.00  0.00    -0.425 OA
ATOM     10  C   UNL     1       0.535  -1.977   1.370  0.00  0.00    +0.317 C 
ATOM     11  O   UNL     1       1.395  -2.824   1.311  0.00  0.00    -0.250 OA
ATOM     12  C   UNL     1       0.852  -0.508   1.172  0.00  0.00    +0.114 C 
ENDROOT
BRANCH   6  13
ATOM     13  O   UNL     1      -5.311  -1.871   0.391  0.00  0.00    -0.507 OA
ATOM     14  H   UNL     1      -5.547  -2.523  -0.283  0.00  0.00    +0.292 HD
ENDBRANCH   6  13
BRANCH   4  15
ATOM     15  O   UNL     1      -2.130   1.222  -1.312  0.00  0.00    -0.506 OA
ATOM     16  H   UNL     1      -1.912   1.015  -2.231  0.00  0.00    +0.292 HD
ENDBRANCH   4  15
BRANCH  12  17
ATOM     17  C   UNL     1       0.505   0.274   2.441  0.00  0.00    +0.111 C 
BRANCH  17  18
ATOM     18  C   UNL     1       1.429  -0.142   3.556  0.00  0.00    +0.214 C 
ATOM     19  O   UNL     1       2.281  -0.981   3.356  0.00  0.00    -0.276 OA
ATOM     20  N   UNL     1       1.308   0.419   4.776  0.00  0.00    -0.315 N 
ATOM     21  H   UNL     1       0.626   1.090   4.936  0.00  0.00    +0.149 HD
BRANCH  20  22
ATOM     22  C   UNL     1       2.207   0.015   5.860  0.00  0.00    +0.110 C 
BRANCH  22  23
ATOM     23  C   UNL     1       1.859   0.797   7.128  0.00  0.00    +0.073 C 
BRANCH  23  24
ATOM     24  C   UNL     1       2.784   0.381   8.244  0.00  0.00    +0.035 A 
ATOM     25  N   UNL     1       3.945   1.002   8.616  0.00  0.00    -0.350 N 
ATOM     26  C   UNL     1       4.456   0.306   9.653  0.00  0.00    +0.171 A 
ATOM     27  N   UNL     1       3.662  -0.695   9.918  0.00  0.00    -0.352 N 
ATOM     28  C   UNL     1       2.622  -0.670   9.070  0.00  0.00    +0.105 A 
ATOM     29  H   UNL     1       4.329   1.795   8.209  0.00  0.00    +0.166 HD
ATOM     30  H   UNL     1       3.799  -1.351  10.619  0.00  0.00    +0.166 HD
ENDBRANCH  23  24
ENDBRANCH  22  23
ENDBRANCH  20  22
ENDBRANCH  17  18
ENDBRANCH  12  17
TORSDOF 7
