REMARK  Name = ZINC39421385
REMARK  10 active torsions:
REMARK  status: ('A' for Active; 'I' for Inactive)
REMARK    1  A    between atoms: C_1  and  C_2
REMARK    2  A    between atoms: C_7  and  N_8
REMARK    3  A    between atoms: C_9  and  C_33
REMARK    4  A    between atoms: C_11  and  C_14
REMARK    5  A    between atoms: C_14  and  C_16
REMARK    6  A    between atoms: C_14  and  N_17
REMARK    7  A    between atoms: C_18  and  C_20
REMARK    8  A    between atoms: C_22  and  C_32
REMARK    9  A    between atoms: C_25  and  O_30
REMARK   10  A    between atoms: O_30  and  C_31
REMARK                            x       y       z     vdW  Elec       q    Type
REMARK                         _______ _______ _______ _____ _____    ______ ____
ROOT
ATOM      1  N   UNL     1      -1.047  -0.189   6.710  0.00  0.00    -0.304 N 
ATOM      2  C   UNL     1      -1.063  -0.139   8.057  0.00  0.00    +0.261 C 
ATOM      3  O   UNL     1      -1.098   0.936   8.625  0.00  0.00    -0.269 OA
ATOM      4  H   UNL     1      -1.020  -1.046   6.257  0.00  0.00    +0.150 HD
ENDROOT
BRANCH   2   5
ATOM      5  C   UNL     1      -1.039  -1.384   8.839  0.00  0.00    +0.106 A 
ATOM      6  H   UNL     1      -0.993  -2.881   7.367  0.00  0.00    +0.166 HD
ATOM      7  C   UNL     1      -1.052  -1.462  10.196  0.00  0.00    -0.013 A 
ATOM      8  C   UNL     1      -1.020  -2.833  10.549  0.00  0.00    +0.007 A 
ATOM      9  C   UNL     1      -1.016  -3.508  11.777  0.00  0.00    +0.056 A 
ATOM     10  C   UNL     1      -0.981  -4.886  11.797  0.00  0.00    +0.121 A 
ATOM     11  C   UNL     1      -0.950  -5.608  10.605  0.00  0.00    +0.047 A 
ATOM     12  C   UNL     1      -0.953  -4.957   9.392  0.00  0.00    +0.030 A 
ATOM     13  C   UNL     1      -0.988  -3.567   9.348  0.00  0.00    +0.048 A 
ATOM     14  N   UNL     1      -1.006  -2.660   8.312  0.00  0.00    -0.350 N 
ATOM     15  C   UNL     1      -1.092  -0.298  11.152  0.00  0.00    +0.047 C 
BRANCH  10  16
ATOM     16  O   UNL     1      -0.977  -5.545  12.986  0.00  0.00    -0.495 OA
ATOM     17  C   UNL     1      -0.939  -6.973  12.937  0.00  0.00    +0.277 C 
ENDBRANCH  10  16
ENDBRANCH   2   5
BRANCH   1  18
ATOM     18  C   UNL     1      -1.071   1.052   5.931  0.00  0.00    +0.100 C 
ATOM     19  C   UNL     1      -2.519   1.512   5.750  0.00  0.00    +0.033 C 
BRANCH  18  22
ATOM     20  N   UNL     1       0.444   1.103   2.414  0.00  0.00    -0.246 N 
ATOM     21  C   UNL     1      -0.153   1.856   3.530  0.00  0.00    +0.120 C 
ATOM     22  C   UNL     1      -0.450   0.808   4.580  0.00  0.00    -0.013 C 
ATOM     23  C   UNL     1      -0.065  -0.355   4.098  0.00  0.00    +0.091 C 
ATOM     24  N   UNL     1       0.462  -0.237   2.827  0.00  0.00    -0.271 N 
ATOM     25  C   UNL     1       0.839   2.889   4.068  0.00  0.00    +0.035 C 
ATOM     26  H   UNL     1       0.798  -0.976   2.296  0.00  0.00    +0.169 HD
BRANCH  20  33
ATOM     27  C   UNL     1       3.120   0.545   1.629  0.00  0.00    +0.046 C 
ATOM     28  C   UNL     1       2.193   1.368   0.773  0.00  0.00    -0.028 A 
ATOM     29  C   UNL     1       2.632   1.873  -0.436  0.00  0.00    +0.005 A 
ATOM     30  C   UNL     1       1.782   2.628  -1.222  0.00  0.00    +0.000 A 
ATOM     31  C   UNL     1       0.489   2.881  -0.801  0.00  0.00    +0.002 A 
ATOM     32  C   UNL     1       0.043   2.380   0.406  0.00  0.00    +0.025 A 
ATOM     33  C   UNL     1       0.893   1.616   1.196  0.00  0.00    +0.051 A 
ENDBRANCH  20  33
ENDBRANCH  18  22
ENDBRANCH   1  18
TORSDOF 5
