REMARK  Name = ZINC13064414
REMARK  9 active torsions:
REMARK  status: ('A' for Active; 'I' for Inactive)
REMARK    1  A    between atoms: C_1  and  C_2
REMARK    2  A    between atoms: C_2  and  C_3
REMARK    3  A    between atoms: C_3  and  C_5
REMARK    4  A    between atoms: C_3  and  N_69
REMARK    5  A    between atoms: N_9  and  C_10
REMARK    6  A    between atoms: C_16  and  C_17
REMARK    7  A    between atoms: C_16  and  N_69
REMARK    8  A    between atoms: C_22  and  C_23
REMARK    9  A    between atoms: C_22  and  N_69
REMARK                            x       y       z     vdW  Elec       q    Type
REMARK                         _______ _______ _______ _____ _____    ______ ____
ROOT
ATOM      1  N   UNL     1      -0.124  -0.700   1.913  0.00  0.00    +0.394 N 
ATOM      2  H   UNL     1      -1.005  -0.577   2.426  0.00  0.00    -0.080 HD
ENDROOT
BRANCH   1   3
ATOM      3  C   UNL     1       0.981  -0.133   2.715  0.00  0.00    +0.003 C 
BRANCH   3   4
ATOM      4  C   UNL     1       2.313  -0.501   2.115  0.00  0.00    +0.138 A 
ATOM      5  N   UNL     1       2.690  -1.693   1.718  0.00  0.00    -0.115 NA
ATOM      6  N   UNL     1       3.891  -1.599   1.262  0.00  0.00    -0.023 NA
ATOM      7  N   UNL     1       4.294  -0.380   1.366  0.00  0.00    -0.044 NA
ATOM      8  N   UNL     1       3.349   0.327   1.887  0.00  0.00    -0.228 N 
BRANCH   8   9
ATOM      9  C   UNL     1       3.395   1.763   2.175  0.00  0.00    +0.111 C 
ATOM     10  C   UNL     1       3.768   2.527   0.904  0.00  0.00    +0.027 C 
ATOM     11  C   UNL     1       3.816   4.026   1.205  0.00  0.00    +0.002 C 
ATOM     12  C   UNL     1       4.863   4.296   2.288  0.00  0.00    +0.000 C 
ATOM     13  C   UNL     1       4.489   3.531   3.560  0.00  0.00    +0.002 C 
ATOM     14  C   UNL     1       4.442   2.032   3.258  0.00  0.00    +0.027 C 
ENDBRANCH   8   9
ENDBRANCH   3   4
BRANCH   3  16
ATOM     15  C   UNL     1      -0.413  -0.223   4.786  0.00  0.00    +0.002 C 
ATOM     16  C   UNL     1       0.892  -0.687   4.138  0.00  0.00    -0.011 C 
ENDBRANCH   3  16
ENDBRANCH   1   3
BRANCH   1  17
ATOM     17  C   UNL     1      -0.220   0.003   0.617  0.00  0.00    -0.002 C 
BRANCH  17  18
ATOM     18  C   UNL     1      -0.804   1.372   0.851  0.00  0.00    +0.089 A 
ATOM     19  C   UNL     1      -0.104   2.501   1.060  0.00  0.00    +0.042 A 
ATOM     20  C   UNL     1      -1.046   3.542   1.231  0.00  0.00    +0.041 A 
ATOM     21  C   UNL     1      -2.266   2.986   1.116  0.00  0.00    +0.195 A 
ATOM     22  O   UNL     1      -2.113   1.673   0.880  0.00  0.00    -0.470 OA
ENDBRANCH  17  18
ENDBRANCH   1  17
BRANCH   1  23
ATOM     23  C   UNL     1       0.104  -2.143   1.690  0.00  0.00    -0.036 C 
BRANCH  23  24
ATOM     24  C   UNL     1      -1.202  -2.783   1.296  0.00  0.00    +0.001 A 
ATOM     25  C   UNL     1      -1.501  -2.957  -0.017  0.00  0.00    +0.017 A 
ATOM     26  C   UNL     1      -2.774  -3.586  -0.367  0.00  0.00    +0.002 A 
ATOM     27  C   UNL     1      -3.134  -3.795  -1.704  0.00  0.00    +0.059 A 
ATOM     28  C   UNL     1      -4.343  -4.385  -2.003  0.00  0.00    +0.163 A 
ATOM     29  C   UNL     1      -5.210  -4.775  -0.978  0.00  0.00    +0.164 A 
ATOM     30  C   UNL     1      -4.863  -4.572   0.347  0.00  0.00    +0.075 A 
ATOM     31  C   UNL     1      -3.649  -3.977   0.665  0.00  0.00    +0.053 A 
ATOM     32  N   UNL     1      -3.288  -3.766   1.981  0.00  0.00    -0.322 N 
ATOM     33  H   UNL     1      -3.890  -4.036   2.691  0.00  0.00    +0.169 HD
ATOM     34  C   UNL     1      -2.112  -3.192   2.292  0.00  0.00    +0.251 A 
ATOM     35  O   UNL     1      -1.826  -3.021   3.464  0.00  0.00    -0.268 OA
ATOM     36  O   UNL     1      -6.403  -5.362  -1.265  0.00  0.00    -0.485 OA
ATOM     37  C   UNL     1      -6.888  -5.214  -2.603  0.00  0.00    +0.270 C 
ATOM     38  C   UNL     1      -5.734  -5.512  -3.570  0.00  0.00    +0.270 C 
ATOM     39  O   UNL     1      -4.679  -4.579  -3.309  0.00  0.00    -0.485 OA
ENDBRANCH  23  24
ENDBRANCH   1  23
TORSDOF 8
