REMARK  Name = ZINC40326242
REMARK  5 active torsions:
REMARK  status: ('A' for Active; 'I' for Inactive)
REMARK    1  A    between atoms: C_4  and  C_19
REMARK    2  A    between atoms: C_6  and  N_7
REMARK    3  A    between atoms: N_7  and  S_8
REMARK    4  A    between atoms: S_8  and  C_11
REMARK    5  A    between atoms: C_16  and  N_17
REMARK                            x       y       z     vdW  Elec       q    Type
REMARK                         _______ _______ _______ _____ _____    ______ ____
ROOT
ATOM      1  S   UNL     1      -2.644   0.090   0.028  0.00  0.00    +0.093 S 
ATOM      2  O   UNL     1      -2.717   0.762   1.277  0.00  0.00    -0.148 OA
ATOM      3  O   UNL     1      -2.741   0.775  -1.213  0.00  0.00    -0.148 OA
ENDROOT
BRANCH   1   4
ATOM      4  C   UNL     1      -3.921  -1.125   0.033  0.00  0.00    +0.132 A 
ATOM      5  C   UNL     1      -4.763  -1.237   1.122  0.00  0.00    +0.046 A 
ATOM      6  C   UNL     1      -5.765  -2.190   1.127  0.00  0.00    +0.020 A 
ATOM      7  C   UNL     1      -5.927  -3.034   0.043  0.00  0.00    +0.017 A 
ATOM      8  C   UNL     1      -5.088  -2.926  -1.049  0.00  0.00    +0.026 A 
ATOM      9  C   UNL     1      -4.084  -1.966  -1.059  0.00  0.00    +0.052 A 
ATOM     10 BR   UNL     1      -6.916  -2.342   2.621  0.00  0.00    -0.050 Br
BRANCH   9  11
ATOM     11  N   UNL     1      -3.238  -1.851  -2.165  0.00  0.00    -0.356 N 
ATOM     12  H   UNL     1      -2.535  -1.182  -2.170  0.00  0.00    +0.142 HD
ATOM     13  H   UNL     1      -3.353  -2.439  -2.928  0.00  0.00    +0.142 HD
ENDBRANCH   9  11
ENDBRANCH   1   4
BRANCH   1  14
ATOM     14  N   UNL     1      -1.199  -0.719   0.010  0.00  0.00    -0.098 NA
BRANCH  14  20
ATOM     15  C   UNL     1      -0.017   1.386   0.010  0.00  0.00    +0.028 A 
ATOM     16  C   UNL     1       1.168   2.098   0.002  0.00  0.00    +0.023 A 
ATOM     17  C   UNL     1       2.378   1.434  -0.013  0.00  0.00    +0.058 A 
ATOM     18  C   UNL     1       2.408   0.037  -0.021  0.00  0.00    +0.072 A 
ATOM     19  C   UNL     1       1.211  -0.681  -0.013  0.00  0.00    +0.047 A 
ATOM     20  C   UNL     1       0.002  -0.004   0.002  0.00  0.00    +0.076 A 
ATOM     21 CL   UNL     1       3.863   2.334  -0.023  0.00  0.00    -0.082 Cl
BRANCH  18  22
ATOM     22  C   UNL     1       3.661  -0.656  -0.037  0.00  0.00    +0.101 C 
ATOM     23  N   UNL     1       4.656  -1.205  -0.050  0.00  0.00    -0.191 NA
ENDBRANCH  18  22
ENDBRANCH  14  20
ENDBRANCH   1  14
TORSDOF 5
