REMARK  Name = ZINC20687728
REMARK  4 active torsions:
REMARK  status: ('A' for Active; 'I' for Inactive)
REMARK    1  A    between atoms: C_1  and  C_2
REMARK    2  A    between atoms: C_6  and  C_7
REMARK    3  A    between atoms: C_17  and  N_24
REMARK    4  A    between atoms: C_20  and  O_23
REMARK                            x       y       z     vdW  Elec       q    Type
REMARK                         _______ _______ _______ _____ _____    ______ ____
ROOT
ATOM      1  C   UNL     1      -3.544   2.061  -0.872  0.00  0.00    +0.112 C 
ATOM      2  C   UNL     1      -3.771   3.268   0.015  0.00  0.00    +0.029 C 
ATOM      3  C   UNL     1      -5.020   4.120  -0.235  0.00  0.00    +0.033 C 
ATOM      4  C   UNL     1      -4.543   5.500   0.225  0.00  0.00    -0.030 C 
ATOM      5  C   UNL     1      -3.223   5.586   0.107  0.00  0.00    -0.023 C 
ATOM      6  C   UNL     1      -2.717   4.314  -0.465  0.00  0.00    +0.051 C 
ATOM      7  C   UNL     1      -1.386   3.762  -0.129  0.00  0.00    +0.014 A 
ATOM      8  C   UNL     1      -0.330   4.579   0.220  0.00  0.00    +0.132 A 
ATOM      9  C   UNL     1       0.909   4.041   0.511  0.00  0.00    +0.037 A 
ATOM     10  C   UNL     1       1.092   2.671   0.449  0.00  0.00    +0.049 A 
ATOM     11  C   UNL     1       0.040   1.845   0.104  0.00  0.00    +0.138 A 
ATOM     12  C   UNL     1      -1.221   2.378  -0.190  0.00  0.00    +0.076 A 
ATOM     13  N   UNL     1      -2.248   1.480  -0.487  0.00  0.00    -0.333 N 
ATOM     14  H   UNL     1      -2.126   0.387  -0.445  0.00  0.00    +0.147 HD
ENDROOT
BRANCH   1  20
ATOM     15  C   UNL     1      -5.923   2.151  -2.813  0.00  0.00    +0.044 C 
ATOM     16  C   UNL     1      -4.524   2.544  -3.215  0.00  0.00    -0.038 A 
ATOM     17  C   UNL     1      -4.257   2.970  -4.502  0.00  0.00    +0.011 A 
ATOM     18  C   UNL     1      -2.989   3.316  -4.830  0.00  0.00    +0.046 A 
ATOM     19  S   UNL     1      -2.124   3.050  -3.291  0.00  0.00    -0.099 S 
ATOM     20  C   UNL     1      -3.510   2.486  -2.318  0.00  0.00    +0.013 A 
ENDBRANCH   1  20
BRANCH   8  21
ATOM     21  N   UNL     1      -0.525   6.045   0.282  0.00  0.00    +0.057 N 
ATOM     22  O   UNL     1      -1.025   6.633  -0.659  0.00  0.00    -0.126 OA
ATOM     23  O   UNL     1      -0.186   6.663   1.276  0.00  0.00    -0.126 OA
ENDBRANCH   8  21
BRANCH  11  24
ATOM     24  O   UNL     1       0.233   0.500   0.044  0.00  0.00    -0.505 OA
ATOM     25  H   UNL     1      -0.601  -0.163  -0.230  0.00  0.00    +0.292 HD
ENDBRANCH  11  24
TORSDOF 3
