REMARK  Name = ZINC09516084
REMARK  7 active torsions:
REMARK  status: ('A' for Active; 'I' for Inactive)
REMARK    1  A    between atoms: C_4  and  S_9
REMARK    2  A    between atoms: C_5  and  C_7
REMARK    3  A    between atoms: S_9  and  C_10
REMARK    4  A    between atoms: C_15  and  C_16
REMARK    5  A    between atoms: N_18  and  C_19
REMARK    6  A    between atoms: C_23  and  S_25
REMARK    7  A    between atoms: S_25  and  N_28
REMARK                            x       y       z     vdW  Elec       q    Type
REMARK                         _______ _______ _______ _____ _____    ______ ____
ROOT
ATOM      1  C   UNL     1      -0.160   0.965  -0.120  0.00  0.00    +0.249 C 
ATOM      2  O   UNL     1       0.001  -0.215  -0.368  0.00  0.00    -0.270 OA
ATOM      3  N   UNL     1       0.908   1.771   0.042  0.00  0.00    -0.281 N 
ATOM      4  H   UNL     1       0.780   2.724   0.167  0.00  0.00    +0.155 HD
ENDROOT
BRANCH   1  10
ATOM      5  C   UNL     1      -2.638   0.678  -0.177  0.00  0.00    +0.025 A 
ATOM      6  C   UNL     1      -3.918   1.209  -0.064  0.00  0.00    +0.016 A 
ATOM      7  C   UNL     1      -4.089   2.548   0.217  0.00  0.00    +0.001 A 
ATOM      8  C   UNL     1      -2.989   3.375   0.390  0.00  0.00    +0.001 A 
ATOM      9  C   UNL     1      -1.713   2.867   0.287  0.00  0.00    +0.014 A 
ATOM     10  C   UNL     1      -1.523   1.513  -0.003  0.00  0.00    +0.051 A 
BRANCH   5  11
ATOM     11  S   UNL     1      -2.417  -1.032  -0.536  0.00  0.00    -0.087 S 
BRANCH  11  15
ATOM     12  C   UNL     1      -6.628  -2.552  -1.291  0.00  0.00    +0.001 A 
ATOM     13  C   UNL     1      -5.980  -2.848  -0.102  0.00  0.00    +0.001 A 
ATOM     14  C   UNL     1      -4.699  -2.392   0.129  0.00  0.00    +0.016 A 
ATOM     15  C   UNL     1      -4.051  -1.621  -0.830  0.00  0.00    +0.030 A 
ATOM     16  C   UNL     1      -4.704  -1.320  -2.036  0.00  0.00    +0.065 A 
ATOM     17  C   UNL     1      -6.000  -1.794  -2.256  0.00  0.00    +0.020 A 
BRANCH  16  18
ATOM     18  C   UNL     1      -4.046  -0.532  -3.034  0.00  0.00    +0.100 C 
ATOM     19  N   UNL     1      -3.524   0.093  -3.826  0.00  0.00    -0.191 NA
ENDBRANCH  16  18
ENDBRANCH  11  15
ENDBRANCH   5  11
ENDBRANCH   1  10
BRANCH   3  20
ATOM     20  C   UNL     1       2.199   1.233   0.030  0.00  0.00    +0.036 A 
ATOM     21  C   UNL     1       3.257   1.975  -0.480  0.00  0.00    +0.023 A 
ATOM     22  C   UNL     1       4.530   1.441  -0.490  0.00  0.00    +0.004 A 
ATOM     23  C   UNL     1       4.753   0.169   0.007  0.00  0.00    +0.029 A 
ATOM     24  C   UNL     1       3.702  -0.571   0.516  0.00  0.00    +0.110 A 
ATOM     25  C   UNL     1       2.426  -0.041   0.533  0.00  0.00    +0.052 A 
BRANCH  24  26
ATOM     26  S   UNL     1       3.991  -2.190   1.149  0.00  0.00    +0.073 S 
ATOM     27  O   UNL     1       2.754  -2.885   1.066  0.00  0.00    -0.150 OA
ATOM     28  O   UNL     1       5.175  -2.665   0.524  0.00  0.00    -0.150 OA
BRANCH  26  29
ATOM     29  N   UNL     1       4.337  -2.030   2.760  0.00  0.00    -0.205 N 
ATOM     30  C   UNL     1       3.382  -1.562   3.624  0.00  0.00    +0.088 C 
ATOM     31  C   UNL     1       1.388  -0.761   4.416  0.00  0.00    +0.114 C 
ATOM     32  C   UNL     1       2.411  -0.466   5.537  0.00  0.00    +0.028 C 
ATOM     33  C   UNL     1       3.585  -1.382   5.112  0.00  0.00    +0.072 C 
ATOM     34  H   UNL     1       5.217  -2.268   3.093  0.00  0.00    +0.175 HD
ATOM     35  N   UNL     1       2.184  -1.223   3.259  0.00  0.00    -0.375 N 
ATOM     36  H   UNL     1       1.835  -1.270   2.294  0.00  0.00    +0.161 HD
ENDBRANCH  26  29
ENDBRANCH  24  26
ENDBRANCH   3  20
TORSDOF 7
