REMARK  Name = ZINC39704581
REMARK  15 active torsions:
REMARK  status: ('A' for Active; 'I' for Inactive)
REMARK    1  A    between atoms: C_1  and  C_2
REMARK    2  A    between atoms: C_2  and  O_3
REMARK    3  A    between atoms: O_3  and  C_4
REMARK    4  A    between atoms: C_4  and  C_6
REMARK    5  A    between atoms: C_8  and  C_36
REMARK    6  A    between atoms: C_10  and  C_32
REMARK    7  A    between atoms: C_13  and  N_15
REMARK    8  A    between atoms: C_16  and  C_18
REMARK    9  A    between atoms: C_18  and  S_19
REMARK   10  A    between atoms: S_19  and  C_20
REMARK   11  A    between atoms: C_24  and  C_27
REMARK   12  A    between atoms: C_27  and  C_28
REMARK   13  A    between atoms: C_28  and  C_29
REMARK   14  A    between atoms: C_32  and  O_34
REMARK   15  A    between atoms: O_34  and  C_35
REMARK                            x       y       z     vdW  Elec       q    Type
REMARK                         _______ _______ _______ _____ _____    ______ ____
ROOT
ATOM      1  N   UNL     1       0.212  -0.875   2.061  0.00  0.00    -0.302 N 
ATOM      2  C   UNL     1      -1.063  -0.711   2.468  0.00  0.00    +0.224 C 
ATOM      3  O   UNL     1      -1.419  -1.155   3.539  0.00  0.00    -0.275 OA
ATOM      4  H   UNL     1       0.496  -0.520   1.204  0.00  0.00    +0.150 HD
ENDROOT
BRANCH   1   9
ATOM      5  C   UNL     1       1.994  -2.589   2.080  0.00  0.00    +0.132 C 
ATOM      6  C   UNL     1       1.717  -4.049   2.437  0.00  0.00    +0.026 C 
ATOM      7  C   UNL     1       1.334  -4.173   3.938  0.00  0.00    +0.160 C 
ATOM      8  S   UNL     1       0.285  -2.664   4.114  0.00  0.00    -0.123 S 
ATOM      9  C   UNL     1       1.167  -1.590   2.912  0.00  0.00    +0.146 C 
ATOM     10  C   UNL     1       0.564  -4.571   1.577  0.00  0.00    +0.010 C 
BRANCH   5  11
ATOM     11  C   UNL     1       1.679  -2.381   0.621  0.00  0.00    +0.313 C 
ATOM     12  O   UNL     1       0.530  -2.364   0.248  0.00  0.00    -0.250 OA
BRANCH  11  13
ATOM     13  O   UNL     1       2.674  -2.214  -0.263  0.00  0.00    -0.465 OA
BRANCH  13  15
ATOM     14  C   UNL     1       3.562  -1.851  -2.482  0.00  0.00    +0.048 C 
ATOM     15  C   UNL     1       2.303  -2.022  -1.630  0.00  0.00    +0.229 C 
ENDBRANCH  13  15
ENDBRANCH  11  13
ENDBRANCH   5  11
BRANCH   7  16
ATOM     16  C   UNL     1       0.542  -5.428   4.201  0.00  0.00    +0.320 C 
ATOM     17  O   UNL     1      -0.268  -5.812   3.391  0.00  0.00    -0.250 OA
BRANCH  16  18
ATOM     18  O   UNL     1       0.736  -6.119   5.335  0.00  0.00    -0.467 OA
ATOM     19  C   UNL     1      -0.049  -7.299   5.519  0.00  0.00    +0.280 C 
ENDBRANCH  16  18
ENDBRANCH   7  16
ENDBRANCH   1   9
BRANCH   2  20
ATOM     20  C   UNL     1      -2.045   0.024   1.593  0.00  0.00    +0.173 C 
BRANCH  20  21
ATOM     21  S   UNL     1      -3.662   0.077   2.413  0.00  0.00    -0.075 S 
BRANCH  21  22
ATOM     22  C   UNL     1      -4.686   0.957   1.279  0.00  0.00    +0.213 A 
ATOM     23  N   UNL     1      -5.960   1.176   1.579  0.00  0.00    -0.180 NA
ATOM     24  C   UNL     1      -6.727   1.839   0.721  0.00  0.00    +0.296 A 
ATOM     25  O   UNL     1      -8.031   2.078   1.000  0.00  0.00    -0.264 OA
ATOM     26  C   UNL     1      -6.162   2.286  -0.475  0.00  0.00    +0.130 A 
ATOM     27  N   UNL     1      -4.889   2.038  -0.718  0.00  0.00    -0.146 NA
ATOM     28  N   UNL     1      -4.172   1.397   0.137  0.00  0.00    -0.122 NA
BRANCH  26  29
ATOM     29  C   UNL     1      -6.997   3.042  -1.476  0.00  0.00    +0.074 C 
BRANCH  29  30
ATOM     30  C   UNL     1      -6.917   4.541  -1.179  0.00  0.00    +0.131 C 
BRANCH  30  31
ATOM     31  C   UNL     1      -7.751   5.297  -2.181  0.00  0.00    +0.356 C 
ATOM     32  O   UNL     1      -8.354   4.693  -3.051  0.00  0.00    -0.246 OA
ATOM     33  O   UNL     1      -7.823   6.512  -2.121  0.00  0.00    -0.246 OA
ENDBRANCH  30  31
ENDBRANCH  29  30
ENDBRANCH  26  29
ENDBRANCH  21  22
ENDBRANCH  20  21
ENDBRANCH   2  20
TORSDOF 12
