REMARK  Name = ZINC15105744
REMARK  13 active torsions:
REMARK  status: ('A' for Active; 'I' for Inactive)
REMARK    1  A    between atoms: C_1  and  C_2
REMARK    2  A    between atoms: C_2  and  C_3
REMARK    3  A    between atoms: C_3  and  C_4
REMARK    4  A    between atoms: C_4  and  N_5
REMARK    5  A    between atoms: C_6  and  N_35
REMARK    6  A    between atoms: C_7  and  N_14
REMARK    7  A    between atoms: N_14  and  C_15
REMARK    8  A    between atoms: C_15  and  C_16
REMARK    9  A    between atoms: C_17  and  C_19
REMARK   10  A    between atoms: C_19  and  N_71
REMARK   11  A    between atoms: C_25  and  C_27
REMARK   12  A    between atoms: C_30  and  O_33
REMARK   13  A    between atoms: O_33  and  C_34
REMARK                            x       y       z     vdW  Elec       q    Type
REMARK                         _______ _______ _______ _____ _____    ______ ____
ROOT
ATOM      1  N   UNL     1      -0.653  -3.419   4.511  0.00  0.00    -0.266 N 
ATOM      2  C   UNL     1      -1.228  -2.689   3.533  0.00  0.00    +0.203 C 
ATOM      3  O   UNL     1      -2.434  -2.695   3.401  0.00  0.00    -0.277 OA
ENDROOT
BRANCH   1   6
ATOM      4  N   UNL     1      -3.164  -4.608   6.916  0.00  0.00    -0.280 N 
ATOM      5  C   UNL     1      -2.406  -3.751   6.151  0.00  0.00    +0.127 A 
ATOM      6  C   UNL     1      -1.442  -4.271   5.312  0.00  0.00    +0.140 A 
ATOM      7  C   UNL     1      -1.255  -5.666   5.273  0.00  0.00    +0.277 A 
ATOM      8  O   UNL     1      -0.407  -6.151   4.544  0.00  0.00    -0.266 OA
ATOM      9  N   UNL     1      -2.020  -6.460   6.047  0.00  0.00    -0.273 N 
ATOM     10  H   UNL     1      -1.888  -7.451   6.020  0.00  0.00    +0.173 HD
ATOM     11  C   UNL     1      -2.959  -5.936   6.855  0.00  0.00    +0.331 A 
ATOM     12  O   UNL     1      -3.635  -6.677   7.543  0.00  0.00    -0.246 OA
BRANCH   5  13
ATOM     13  N   UNL     1      -2.611  -2.394   6.218  0.00  0.00    -0.343 N 
ATOM     14  H   UNL     1      -2.176  -1.806   5.582  0.00  0.00    +0.144 HD
ATOM     15  H   UNL     1      -3.191  -2.024   6.903  0.00  0.00    +0.144 HD
ENDBRANCH   5  13
BRANCH   4  16
ATOM     16  C   UNL     1      -4.195  -4.071   7.806  0.00  0.00    +0.128 C 
BRANCH  16  17
ATOM     17  C   UNL     1      -3.584  -3.782   9.179  0.00  0.00    +0.021 C 
BRANCH  17  19
ATOM     18  C   UNL     1      -4.050  -2.933  11.482  0.00  0.00    +0.004 C 
ATOM     19  C   UNL     1      -4.661  -3.221  10.109  0.00  0.00    -0.002 C 
ENDBRANCH  17  19
ENDBRANCH  16  17
ENDBRANCH   4  16
ENDBRANCH   1   6
BRANCH   1  20
ATOM     20  C   UNL     1       0.791  -3.326   4.742  0.00  0.00    +0.110 C 
ATOM     21  C   UNL     1       1.069  -2.286   5.828  0.00  0.00    +0.025 C 
ENDBRANCH   1  20
BRANCH   2  22
ATOM     22  C   UNL     1      -0.372  -1.867   2.604  0.00  0.00    +0.020 C 
BRANCH  22  29
ATOM     23  C   UNL     1      -1.894  -2.133   0.728  0.00  0.00    -0.077 C 
ATOM     24  C   UNL     1      -2.561  -1.465  -0.443  0.00  0.00    -0.019 C 
ATOM     25  C   UNL     1      -1.574  -1.455  -1.629  0.00  0.00    -0.002 C 
ATOM     26  C   UNL     1      -0.570  -0.405  -1.501  0.00  0.00    -0.001 C 
ATOM     27  C   UNL     1       0.297  -0.579  -0.236  0.00  0.00    -0.011 C 
ATOM     28  C   UNL     1      -0.483  -0.088   0.953  0.00  0.00    -0.037 C 
ATOM     29  N   UNL     1      -1.261  -1.152   1.677  0.00  0.00    +0.390 N 
ATOM     30  H   UNL     1      -2.007  -0.697   2.216  0.00  0.00    -0.080 HD
BRANCH  28  31
ATOM     31  C   UNL     1       0.472   0.546   1.932  0.00  0.00    -0.061 A 
ATOM     32  C   UNL     1       1.681  -0.064   2.211  0.00  0.00    +0.005 A 
ATOM     33  C   UNL     1       2.560   0.517   3.103  0.00  0.00    +0.046 A 
ATOM     34  C   UNL     1       2.225   1.710   3.728  0.00  0.00    +0.120 A 
ATOM     35  C   UNL     1       1.009   2.317   3.451  0.00  0.00    +0.046 A 
ATOM     36  C   UNL     1       0.135   1.734   2.554  0.00  0.00    +0.005 A 
BRANCH  34  37
ATOM     37  O   UNL     1       3.086   2.281   4.611  0.00  0.00    -0.495 OA
ATOM     38  C   UNL     1       4.320   1.600   4.847  0.00  0.00    +0.277 C 
ENDBRANCH  34  37
ENDBRANCH  28  31
ENDBRANCH  22  29
ENDBRANCH   2  22
TORSDOF 10
