REMARK  Name = ZINC32809650
REMARK  7 active torsions:
REMARK  status: ('A' for Active; 'I' for Inactive)
REMARK    1  A    between atoms: C_4  and  C_7
REMARK    2  A    between atoms: C_12  and  C_13
REMARK    3  A    between atoms: N_15  and  C_16
REMARK    4  A    between atoms: C_16  and  C_17
REMARK    5  A    between atoms: C_20  and  C_22
REMARK    6  A    between atoms: C_25  and  S_28
REMARK    7  A    between atoms: S_28  and  N_31
REMARK                            x       y       z     vdW  Elec       q    Type
REMARK                         _______ _______ _______ _____ _____    ______ ____
ROOT
ATOM      1  C   UNL     1      -5.576   2.843   7.761  0.00  0.00    +0.179 C 
ENDROOT
BRANCH   1   2
ATOM      2  C   UNL     1      -4.528   3.596   6.982  0.00  0.00    +0.123 A 
ATOM      3  C   UNL     1      -4.051   4.819   7.286  0.00  0.00    +0.047 A 
ATOM      4  C   UNL     1      -3.094   5.144   6.303  0.00  0.00    +0.050 A 
ATOM      5  C   UNL     1      -3.041   4.091   5.444  0.00  0.00    +0.135 A 
ATOM      6  O   UNL     1      -3.921   3.162   5.866  0.00  0.00    -0.458 OA
BRANCH   5   7
ATOM      7  C   UNL     1      -2.174   3.987   4.253  0.00  0.00    +0.017 A 
ATOM      8  C   UNL     1      -2.217   2.844   3.451  0.00  0.00    +0.013 A 
ATOM      9  C   UNL     1      -1.405   2.753   2.340  0.00  0.00    +0.029 A 
ATOM     10  C   UNL     1      -0.548   3.792   2.019  0.00  0.00    +0.105 A 
ATOM     11  C   UNL     1      -0.496   4.924   2.812  0.00  0.00    +0.029 A 
ATOM     12  C   UNL     1      -1.307   5.030   3.923  0.00  0.00    +0.013 A 
BRANCH  10  13
ATOM     13  S   UNL     1       0.486   3.667   0.598  0.00  0.00    +0.056 S 
ATOM     14  O   UNL     1       0.649   2.281   0.334  0.00  0.00    -0.153 OA
ATOM     15  O   UNL     1       1.588   4.536   0.820  0.00  0.00    -0.153 OA
BRANCH  13  16
ATOM     16  N   UNL     1      -0.360   4.295  -0.680  0.00  0.00    -0.204 NA
ATOM     17  H   UNL     1       0.253   4.236  -1.591  0.00  0.00    +0.144 HD
ATOM     18  H   UNL     1      -0.610   5.346  -0.473  0.00  0.00    +0.144 HD
ENDBRANCH  13  16
ENDBRANCH  10  13
ENDBRANCH   5   7
ENDBRANCH   1   2
BRANCH   1  21
ATOM     19  C   UNL     1      -8.002   2.619   7.791  0.00  0.00    +0.245 C 
ATOM     20  O   UNL     1      -7.889   1.838   8.715  0.00  0.00    -0.270 OA
ATOM     21  N   UNL     1      -6.905   3.178   7.243  0.00  0.00    -0.304 N 
ATOM     22  H   UNL     1      -7.007   3.885   6.407  0.00  0.00    +0.149 HD
BRANCH  19  28
ATOM     23  C   UNL     1     -10.494   2.481   7.918  0.00  0.00    -0.006 A 
ATOM     24  C   UNL     1     -11.751   2.811   7.417  0.00  0.00    +0.009 A 
ATOM     25  C   UNL     1     -11.859   3.591   6.283  0.00  0.00    +0.001 A 
ATOM     26  C   UNL     1     -10.724   4.055   5.640  0.00  0.00    +0.001 A 
ATOM     27  C   UNL     1      -9.470   3.743   6.124  0.00  0.00    +0.013 A 
ATOM     28  C   UNL     1      -9.341   2.956   7.269  0.00  0.00    +0.044 A 
BRANCH  23  32
ATOM     29  C   UNL     1     -10.147   0.068  11.400  0.00  0.00    +0.000 A 
ATOM     30  C   UNL     1      -9.585   1.331  11.379  0.00  0.00    +0.001 A 
ATOM     31  C   UNL     1      -9.694   2.119  10.251  0.00  0.00    +0.008 A 
ATOM     32  C   UNL     1     -10.373   1.640   9.132  0.00  0.00    -0.017 A 
ATOM     33  C   UNL     1     -10.942   0.367   9.161  0.00  0.00    +0.008 A 
ATOM     34  C   UNL     1     -10.821  -0.414  10.292  0.00  0.00    +0.001 A 
ENDBRANCH  23  32
ENDBRANCH  19  28
ENDBRANCH   1  21
TORSDOF 7
