REMARK  Name = ZINC26281703
REMARK  7 active torsions:
REMARK  status: ('A' for Active; 'I' for Inactive)
REMARK    1  A    between atoms: C_4  and  N_7
REMARK    2  A    between atoms: C_8  and  C_10
REMARK    3  A    between atoms: C_10  and  N_11
REMARK    4  A    between atoms: C_14  and  N_17
REMARK    5  A    between atoms: N_20  and  C_21
REMARK    6  A    between atoms: C_21  and  C_23
REMARK    7  A    between atoms: C_21  and  C_30
REMARK                            x       y       z     vdW  Elec       q    Type
REMARK                         _______ _______ _______ _____ _____    ______ ____
ROOT
ATOM      1  N   UNL     1       4.739  -8.327  -0.429  0.00  0.00    -0.297 N 
ATOM      2  C   UNL     1       5.670  -9.267  -0.688  0.00  0.00    +0.301 C 
ATOM      3  O   UNL     1       6.772  -8.940  -1.081  0.00  0.00    -0.253 OA
ATOM      4  N   UNL     1       5.378 -10.571  -0.510  0.00  0.00    -0.288 N 
ATOM      5  H   UNL     1       3.860  -8.589  -0.115  0.00  0.00    +0.151 HD
ATOM      6  H   UNL     1       4.498 -10.833  -0.197  0.00  0.00    +0.151 HD
ENDROOT
BRANCH   1  10
ATOM      7  N   UNL     1       4.718  -4.167   0.245  0.00  0.00    +0.386 N 
ATOM      8  C   UNL     1       4.096  -4.637  -0.999  0.00  0.00    -0.076 C 
ATOM      9  C   UNL     1       3.766  -6.126  -0.877  0.00  0.00    +0.004 C 
ATOM     10  C   UNL     1       5.057  -6.910  -0.622  0.00  0.00    +0.071 C 
ATOM     11  C   UNL     1       5.736  -6.361   0.636  0.00  0.00    +0.004 C 
ATOM     12  C   UNL     1       5.993  -4.863   0.459  0.00  0.00    -0.076 C 
ATOM     13  H   UNL     1       4.100  -4.354   1.020  0.00  0.00    -0.081 HD
BRANCH   7  14
ATOM     14  C   UNL     1       4.962  -2.721   0.153  0.00  0.00    +0.019 C 
BRANCH  14  16
ATOM     15  N   UNL     1       3.622  -0.651  -0.037  0.00  0.00    -0.287 N 
ATOM     16  C   UNL     1       3.645  -1.995   0.057  0.00  0.00    +0.201 C 
ATOM     17  O   UNL     1       2.606  -2.620   0.064  0.00  0.00    -0.278 OA
ATOM     18  H   UNL     1       4.452  -0.156  -0.121  0.00  0.00    +0.155 HD
BRANCH  15  22
ATOM     19  C   UNL     1      -0.015   1.381   0.029  0.00  0.00    +0.000 A 
ATOM     20  C   UNL     1       0.140   0.218   0.763  0.00  0.00    +0.002 A 
ATOM     21  C   UNL     1       1.344  -0.457   0.743  0.00  0.00    +0.023 A 
ATOM     22  C   UNL     1       2.400   0.031  -0.015  0.00  0.00    +0.033 A 
ATOM     23  C   UNL     1       2.241   1.198  -0.751  0.00  0.00    +0.023 A 
ATOM     24  C   UNL     1       1.034   1.870  -0.727  0.00  0.00    +0.002 A 
ENDBRANCH  15  22
ENDBRANCH  14  16
ENDBRANCH   7  14
ENDBRANCH   1  10
BRANCH   4  25
ATOM     25  C   UNL     1       6.389 -11.593  -0.792  0.00  0.00    +0.142 C 
BRANCH  25  26
ATOM     26  C   UNL     1       5.708 -12.897  -1.117  0.00  0.00    -0.022 A 
ATOM     27  C   UNL     1       4.587 -13.287  -0.408  0.00  0.00    +0.008 A 
ATOM     28  C   UNL     1       3.961 -14.482  -0.707  0.00  0.00    +0.038 A 
ATOM     29  C   UNL     1       4.457 -15.290  -1.715  0.00  0.00    +0.123 A 
ATOM     30  C   UNL     1       5.580 -14.899  -2.425  0.00  0.00    +0.038 A 
ATOM     31  C   UNL     1       6.201 -13.701  -2.128  0.00  0.00    +0.008 A 
ATOM     32  F   UNL     1       3.847 -16.460  -2.007  0.00  0.00    -0.205 F 
ENDBRANCH  25  26
BRANCH  25  33
ATOM     33  C   UNL     1       7.270 -11.774   0.418  0.00  0.00    +0.014 A 
ATOM     34  C   UNL     1       8.611 -11.956   0.477  0.00  0.00    +0.013 A 
ATOM     35  C   UNL     1       9.214 -12.101   1.712  0.00  0.00    +0.008 A 
ATOM     36  C   UNL     1       8.446 -12.058   2.828  0.00  0.00    +0.045 A 
ATOM     37  S   UNL     1       6.817 -11.798   2.144  0.00  0.00    -0.099 S 
ENDBRANCH  25  33
ENDBRANCH   4  25
TORSDOF 7
