REMARK  Name = ZINC43287661
REMARK  12 active torsions:
REMARK  status: ('A' for Active; 'I' for Inactive)
REMARK    1  A    between atoms: C_1  and  C_2
REMARK    2  A    between atoms: C_2  and  C_3
REMARK    3  A    between atoms: C_3  and  C_4
REMARK    4  A    between atoms: C_4  and  N_5
REMARK    5  A    between atoms: N_5  and  C_6
REMARK    6  A    between atoms: N_5  and  C_10
REMARK    7  A    between atoms: C_6  and  C_7
REMARK    8  A    between atoms: C_10  and  C_12
REMARK    9  A    between atoms: C_10  and  C_18
REMARK   10  A    between atoms: C_18  and  C_20
REMARK   11  A    between atoms: C_18  and  N_22
REMARK   12  A    between atoms: C_20  and  C_21
REMARK                            x       y       z     vdW  Elec       q    Type
REMARK                         _______ _______ _______ _____ _____    ______ ____
ROOT
ATOM      1  C   UNL     1       1.439  -4.219  -2.335  0.00  0.00    -0.045 C 
ENDROOT
BRANCH   1   2
ATOM      2  C   UNL     1      -0.065  -4.237  -2.417  0.00  0.00    -0.024 A 
ATOM      3  C   UNL     1      -0.949  -5.002  -1.730  0.00  0.00    +0.024 A 
ATOM      4  C   UNL     1      -2.301  -4.846  -1.972  0.00  0.00    +0.025 A 
ATOM      5  C   UNL     1      -2.703  -3.932  -2.889  0.00  0.00    +0.060 A 
ATOM      6  S   UNL     1      -1.147  -3.251  -3.439  0.00  0.00    -0.102 S 
ATOM      7 BR   UNL     1      -3.570  -5.891  -1.038  0.00  0.00    -0.050 Br
ENDBRANCH   1   2
BRANCH   1   8
ATOM      8  N   UNL     1       1.896  -2.857  -2.026  0.00  0.00    +0.389 N 
ATOM      9  H   UNL     1       2.903  -2.847  -1.961  0.00  0.00    -0.080 HD
BRANCH   8  10
ATOM     10  C   UNL     1       1.466  -1.943  -3.092  0.00  0.00    -0.077 C 
BRANCH  10  11
ATOM     11  C   UNL     1       2.060  -0.555  -2.844  0.00  0.00    -0.019 C 
BRANCH  11  13
ATOM     12  C   UNL     1       2.207   1.785  -3.707  0.00  0.00    +0.004 C 
ATOM     13  C   UNL     1       1.612   0.398  -3.954  0.00  0.00    -0.005 C 
ENDBRANCH  11  13
ENDBRANCH  10  11
ENDBRANCH   8  10
BRANCH   8  14
ATOM     14  C   UNL     1       1.319  -2.425  -0.747  0.00  0.00    +0.019 C 
BRANCH  14  15
ATOM     15  C   UNL     1       1.908  -3.244   0.373  0.00  0.00    +0.194 C 
ATOM     16  O   UNL     1       2.699  -4.129   0.125  0.00  0.00    -0.278 OA
ATOM     17  N   UNL     1       1.557  -2.991   1.650  0.00  0.00    -0.331 N 
ATOM     18  H   UNL     1       0.925  -2.283   1.848  0.00  0.00    +0.145 HD
ATOM     19  H   UNL     1       1.937  -3.518   2.370  0.00  0.00    +0.145 HD
ENDBRANCH  14  15
ENDBRANCH   8  14
ENDBRANCH   1   8
BRANCH   1  20
ATOM     20  C   UNL     1       2.029  -4.663  -3.675  0.00  0.00    -0.085 C 
BRANCH  20  21
ATOM     21  N   UNL     1       1.504  -5.990  -4.025  0.00  0.00    +0.379 N 
ATOM     22  H   UNL     1       0.499  -5.946  -4.098  0.00  0.00    -0.090 HD
ATOM     23  H   UNL     1       1.893  -6.283  -4.908  0.00  0.00    -0.090 HD
ATOM     24  H   UNL     1       1.760  -6.652  -3.308  0.00  0.00    -0.090 HD
ENDBRANCH  20  21
BRANCH  20  25
ATOM     25  C   UNL     1       3.553  -4.730  -3.564  0.00  0.00    -0.021 C 
ATOM     26  C   UNL     1       4.152  -5.031  -4.940  0.00  0.00    +0.002 C 
ENDBRANCH  20  25
ENDBRANCH   1  20
TORSDOF 10
