REMARK  Name = ZINC12135589
REMARK  9 active torsions:
REMARK  status: ('A' for Active; 'I' for Inactive)
REMARK    1  A    between atoms: C_1  and  C_2
REMARK    2  A    between atoms: C_8  and  N_10
REMARK    3  A    between atoms: C_11  and  C_13
REMARK    4  A    between atoms: C_13  and  C_15
REMARK    5  A    between atoms: C_13  and  S_16
REMARK    6  A    between atoms: S_16  and  C_17
REMARK    7  A    between atoms: C_20  and  C_28
REMARK    8  A    between atoms: N_21  and  C_22
REMARK    9  A    between atoms: C_28  and  N_66
REMARK                            x       y       z     vdW  Elec       q    Type
REMARK                         _______ _______ _______ _____ _____    ______ ____
ROOT
ATOM      1  C   UNL     1      -2.443   0.733  -1.063  0.00  0.00    +0.197 A 
ATOM      2  N   UNL     1      -3.549   0.067  -0.824  0.00  0.00    -0.122 NA
ATOM      3  N   UNL     1      -3.935   0.278   0.384  0.00  0.00    -0.135 NA
ATOM      4  C   UNL     1      -3.103   1.080   0.987  0.00  0.00    +0.122 A 
ATOM      5  N   UNL     1      -2.119   1.397   0.089  0.00  0.00    -0.276 N 
ENDROOT
BRANCH   5   6
ATOM      6  C   UNL     1      -1.013   2.233   0.303  0.00  0.00    +0.050 A 
ATOM      7  C   UNL     1       0.271   1.706   0.283  0.00  0.00    +0.026 A 
ATOM      8  C   UNL     1       1.358   2.532   0.489  0.00  0.00    +0.002 A 
ATOM      9  C   UNL     1       1.168   3.882   0.720  0.00  0.00    +0.000 A 
ATOM     10  C   UNL     1      -0.110   4.409   0.746  0.00  0.00    +0.002 A 
ATOM     11  C   UNL     1      -1.201   3.587   0.540  0.00  0.00    +0.026 A 
ENDBRANCH   5   6
BRANCH   1  12
ATOM     12  S   UNL     1      -1.544   0.764  -2.578  0.00  0.00    -0.073 S 
BRANCH  12  13
ATOM     13  C   UNL     1      -2.582  -0.329  -3.581  0.00  0.00    +0.137 C 
ATOM     14  C   UNL     1      -2.549  -1.742  -2.995  0.00  0.00    +0.029 C 
BRANCH  13  16
ATOM     15  N   UNL     1      -2.890  -0.662  -6.012  0.00  0.00    -0.311 N 
ATOM     16  C   UNL     1      -2.060  -0.360  -4.994  0.00  0.00    +0.226 C 
ATOM     17  O   UNL     1      -0.893  -0.112  -5.215  0.00  0.00    -0.275 OA
ATOM     18  H   UNL     1      -3.822  -0.860  -5.835  0.00  0.00    +0.149 HD
BRANCH  15  25
ATOM     19  C   UNL     1      -3.227  -3.028  -7.648  0.00  0.00    +0.009 C 
ATOM     20  C   UNL     1      -3.259  -1.615  -8.234  0.00  0.00    +0.006 C 
ATOM     21  C   UNL     1      -4.698  -1.095  -8.233  0.00  0.00    +0.005 C 
ATOM     22  C   UNL     1      -4.731   0.318  -8.819  0.00  0.00    +0.000 C 
ATOM     23  C   UNL     1      -3.854   1.242  -7.971  0.00  0.00    +0.002 C 
ATOM     24  C   UNL     1      -2.415   0.722  -7.973  0.00  0.00    +0.022 C 
ATOM     25  C   UNL     1      -2.382  -0.691  -7.386  0.00  0.00    +0.076 C 
ENDBRANCH  15  25
ENDBRANCH  13  16
ENDBRANCH  12  13
ENDBRANCH   1  12
BRANCH   4  26
ATOM     26  C   UNL     1      -3.206   1.568   2.409  0.00  0.00    -0.001 C 
BRANCH  26  32
ATOM     27  C   UNL     1      -3.025  -0.611   3.449  0.00  0.00    -0.078 C 
ATOM     28  C   UNL     1      -2.088  -1.526   4.241  0.00  0.00    -0.019 C 
ATOM     29  C   UNL     1      -1.804  -0.898   5.608  0.00  0.00    -0.004 C 
ATOM     30  C   UNL     1      -1.195   0.492   5.406  0.00  0.00    -0.019 C 
ATOM     31  C   UNL     1      -2.158   1.349   4.580  0.00  0.00    -0.078 C 
ATOM     32  N   UNL     1      -2.371   0.703   3.268  0.00  0.00    +0.384 N 
ATOM     33  H   UNL     1      -1.460   0.562   2.814  0.00  0.00    -0.081 HD
ENDBRANCH  26  32
ENDBRANCH   4  26
TORSDOF 7
