REMARK  Name = ZINC58246496
REMARK  4 active torsions:
REMARK  status: ('A' for Active; 'I' for Inactive)
REMARK    1  A    between atoms: C_3  and  S_9
REMARK    2  A    between atoms: C_6  and  C_7
REMARK    3  A    between atoms: S_9  and  N_12
REMARK    4  A    between atoms: C_22  and  C_24
REMARK                            x       y       z     vdW  Elec       q    Type
REMARK                         _______ _______ _______ _____ _____    ______ ____
ROOT
ATOM      1  N   UNL     1       4.324   2.568   1.557  0.00  0.00    -0.161 NA
ATOM      2  C   UNL     1       4.023   3.756   2.360  0.00  0.00    +0.084 C 
ATOM      3  C   UNL     1       3.946   5.022   1.538  0.00  0.00    +0.021 C 
ATOM      4  C   UNL     1       5.309   5.385   0.950  0.00  0.00    +0.002 C 
ATOM      5  C   UNL     1       6.299   5.576   2.104  0.00  0.00    +0.000 C 
ATOM      6  C   UNL     1       6.450   4.249   2.844  0.00  0.00    +0.005 C 
ATOM      7  C   UNL     1       5.123   3.819   3.436  0.00  0.00    +0.010 C 
ATOM      8  C   UNL     1       5.276   2.305   3.776  0.00  0.00    +0.035 C 
ATOM      9  C   UNL     1       5.077   1.625   2.403  0.00  0.00    +0.166 C 
ENDROOT
BRANCH   9  10
ATOM     10  C   UNL     1       6.417   1.333   1.780  0.00  0.00    +0.229 C 
ATOM     11  O   UNL     1       6.724   1.857   0.730  0.00  0.00    -0.274 OA
ATOM     12  N   UNL     1       7.275   0.491   2.389  0.00  0.00    -0.328 N 
ATOM     13  H   UNL     1       7.029   0.072   3.228  0.00  0.00    +0.145 HD
ATOM     14  H   UNL     1       8.138   0.303   1.987  0.00  0.00    +0.145 HD
ENDBRANCH   9  10
BRANCH   1  15
ATOM     15  S   UNL     1       3.889   2.325  -0.023  0.00  0.00    +0.062 S 
ATOM     16  O   UNL     1       4.681   1.246  -0.501  0.00  0.00    -0.153 OA
ATOM     17  O   UNL     1       3.887   3.603  -0.644  0.00  0.00    -0.153 OA
BRANCH  15  20
ATOM     18  C   UNL     1      -0.125   2.243  -0.091  0.00  0.00    +0.021 A 
ATOM     19  C   UNL     1       1.184   2.677  -0.091  0.00  0.00    +0.030 A 
ATOM     20  C   UNL     1       2.219   1.762  -0.022  0.00  0.00    +0.106 A 
ATOM     21  C   UNL     1       1.950   0.407   0.047  0.00  0.00    +0.030 A 
ATOM     22  C   UNL     1       0.645  -0.041   0.047  0.00  0.00    +0.021 A 
ATOM     23  C   UNL     1      -0.405   0.877  -0.021  0.00  0.00    +0.052 A 
BRANCH  23  24
ATOM     24  C   UNL     1      -1.762   0.419  -0.021  0.00  0.00    +0.099 C 
ATOM     25  N   UNL     1      -2.838   0.056  -0.020  0.00  0.00    -0.191 NA
ENDBRANCH  23  24
ENDBRANCH  15  20
ENDBRANCH   1  15
TORSDOF 4
