REMARK  Name = ZINC04600243
REMARK  4 active torsions:
REMARK  status: ('A' for Active; 'I' for Inactive)
REMARK    1  A    between atoms: C_4  and  C_7
REMARK    2  A    between atoms: C_7  and  N_8
REMARK    3  A    between atoms: N_16  and  N_17
REMARK    4  A    between atoms: C_18  and  C_20
REMARK                            x       y       z     vdW  Elec       q    Type
REMARK                         _______ _______ _______ _____ _____    ______ ____
ROOT
ATOM      1  N   UNL     1       4.081  -0.902   1.375  0.00  0.00    -0.261 N 
ATOM      2  C   UNL     1       5.092  -0.179   1.998  0.00  0.00    +0.046 A 
ATOM      3  C   UNL     1       5.797   0.952   1.602  0.00  0.00    +0.024 A 
ATOM      4  C   UNL     1       6.773   1.482   2.422  0.00  0.00    +0.002 A 
ATOM      5  C   UNL     1       7.061   0.899   3.644  0.00  0.00    +0.001 A 
ATOM      6  C   UNL     1       6.372  -0.225   4.054  0.00  0.00    +0.012 A 
ATOM      7  C   UNL     1       5.387  -0.766   3.235  0.00  0.00    +0.028 A 
ATOM      8  C   UNL     1       4.484  -1.933   3.370  0.00  0.00    +0.153 C 
ATOM      9  N   UNL     1       4.412  -2.775   4.373  0.00  0.00    -0.174 NA
ATOM     10  C   UNL     1       3.680  -1.938   2.132  0.00  0.00    +0.272 C 
ATOM     11  O   UNL     1       2.810  -2.740   1.846  0.00  0.00    -0.268 OA
ENDROOT
BRANCH   9  12
ATOM     12  N   UNL     1       5.155  -2.543   5.538  0.00  0.00    -0.202 N 
ATOM     13  C   UNL     1       5.177  -3.467   6.519  0.00  0.00    +0.263 C 
ATOM     14  O   UNL     1       4.552  -4.502   6.393  0.00  0.00    -0.268 OA
ATOM     15  H   UNL     1       5.654  -1.717   5.638  0.00  0.00    +0.178 HD
BRANCH  13  16
ATOM     16  C   UNL     1       5.960  -3.223   7.745  0.00  0.00    +0.042 A 
ATOM     17  C   UNL     1       6.675  -2.031   7.894  0.00  0.00    +0.017 A 
ATOM     18  C   UNL     1       7.405  -1.804   9.039  0.00  0.00    +0.050 A 
ATOM     19  C   UNL     1       7.434  -2.757  10.050  0.00  0.00    +0.166 A 
ATOM     20  C   UNL     1       6.722  -3.949   9.907  0.00  0.00    +0.167 A 
ATOM     21  C   UNL     1       5.984  -4.180   8.763  0.00  0.00    +0.062 A 
ATOM     22  O   UNL     1       6.913  -4.707  11.027  0.00  0.00    -0.453 OA
ATOM     23  C   UNL     1       8.072  -4.149  11.674  0.00  0.00    +0.466 C 
ATOM     24  O   UNL     1       8.068  -2.771  11.257  0.00  0.00    -0.453 OA
ENDBRANCH  13  16
ENDBRANCH   9  12
BRANCH   1  25
ATOM     25  C   UNL     1       3.519  -0.573   0.063  0.00  0.00    +0.149 C 
BRANCH  25  29
ATOM     26  C   UNL     1       0.223   2.100   0.554  0.00  0.00    +0.000 A 
ATOM     27  C   UNL     1       1.501   2.601   0.391  0.00  0.00    +0.000 A 
ATOM     28  C   UNL     1       2.567   1.736   0.232  0.00  0.00    +0.005 A 
ATOM     29  C   UNL     1       2.356   0.370   0.237  0.00  0.00    -0.030 A 
ATOM     30  C   UNL     1       1.078  -0.131   0.401  0.00  0.00    +0.005 A 
ATOM     31  C   UNL     1       0.011   0.734   0.558  0.00  0.00    +0.000 A 
ENDBRANCH  25  29
ENDBRANCH   1  25
TORSDOF 4
