REMARK  Name = ZINC21336058
REMARK  12 active torsions:
REMARK  status: ('A' for Active; 'I' for Inactive)
REMARK    1  A    between atoms: C_1  and  C_2
REMARK    2  A    between atoms: C_2  and  C_3
REMARK    3  A    between atoms: C_3  and  C_4
REMARK    4  A    between atoms: C_4  and  C_5
REMARK    5  A    between atoms: C_5  and  N_6
REMARK    6  A    between atoms: N_6  and  C_7
REMARK    7  A    between atoms: C_8  and  N_20
REMARK    8  A    between atoms: N_9  and  C_16
REMARK    9  A    between atoms: C_16  and  C_17
REMARK   10  A    between atoms: C_17  and  C_18
REMARK   11  A    between atoms: C_18  and  C_19
REMARK   12  A    between atoms: C_21  and  C_23
REMARK                            x       y       z     vdW  Elec       q    Type
REMARK                         _______ _______ _______ _____ _____    ______ ____
ROOT
ATOM      1  N   UNL     1       1.136   3.557   0.090  0.00  0.00    -0.260 N 
ATOM      2  C   UNL     1      -0.149   3.965   0.117  0.00  0.00    +0.259 C 
ATOM      3  O   UNL     1      -1.048   3.151   0.025  0.00  0.00    -0.269 OA
ENDROOT
BRANCH   2   4
ATOM      4  C   UNL     1      -0.462   5.392   0.258  0.00  0.00    +0.094 A 
ATOM      5  C   UNL     1      -1.677   5.980   0.437  0.00  0.00    +0.068 A 
ATOM      6  C   UNL     1      -1.768   7.379   0.554  0.00  0.00    +0.008 A 
ATOM      7  C   UNL     1      -2.930   8.170   0.747  0.00  0.00    +0.013 A 
ATOM      8  C   UNL     1      -2.845   9.522   0.834  0.00  0.00    +0.039 A 
ATOM      9  C   UNL     1      -1.623  10.183   0.739  0.00  0.00    +0.124 A 
ATOM     10  C   UNL     1      -0.467   9.450   0.552  0.00  0.00    +0.054 A 
ATOM     11  C   UNL     1      -0.540   8.077   0.462  0.00  0.00    +0.024 A 
ATOM     12  S   UNL     1       0.654   6.784   0.229  0.00  0.00    -0.082 S 
ATOM     13  F   UNL     1      -1.569  11.530   0.830  0.00  0.00    -0.205 F 
ATOM     14 CL   UNL     1      -3.110   5.005   0.525  0.00  0.00    -0.082 Cl
ENDBRANCH   2   4
BRANCH   1  15
ATOM     15  C   UNL     1       1.437   2.180   0.027  0.00  0.00    +0.140 A 
ATOM     16  C   UNL     1       2.078   1.553   1.077  0.00  0.00    +0.127 A 
ATOM     17  N   UNL     1       2.357   0.210   0.986  0.00  0.00    -0.280 N 
ATOM     18  C   UNL     1       2.011  -0.485  -0.113  0.00  0.00    +0.331 A 
ATOM     19  O   UNL     1       2.267  -1.672  -0.174  0.00  0.00    -0.246 OA
ATOM     20  N   UNL     1       1.386   0.109  -1.145  0.00  0.00    -0.273 N 
ATOM     21  H   UNL     1       1.113  -0.478  -2.034  0.00  0.00    +0.173 HD
ATOM     22  C   UNL     1       1.089   1.423  -1.107  0.00  0.00    +0.277 A 
ATOM     23  O   UNL     1       0.522   1.952  -2.048  0.00  0.00    -0.266 OA
BRANCH  16  24
ATOM     24  N   UNL     1       2.427   2.262   2.201  0.00  0.00    -0.343 N 
ATOM     25  H   UNL     1       2.937   1.756   3.034  0.00  0.00    +0.144 HD
ATOM     26  H   UNL     1       2.196   3.335   2.269  0.00  0.00    +0.144 HD
ENDBRANCH  16  24
BRANCH  17  27
ATOM     27  C   UNL     1       3.037  -0.469   2.092  0.00  0.00    +0.128 C 
BRANCH  27  28
ATOM     28  C   UNL     1       1.996  -1.012   3.073  0.00  0.00    +0.021 C 
BRANCH  28  29
ATOM     29  C   UNL     1       2.705  -1.720   4.229  0.00  0.00    -0.002 C 
ATOM     30  C   UNL     1       1.664  -2.263   5.210  0.00  0.00    +0.004 C 
ENDBRANCH  28  29
ENDBRANCH  27  28
ENDBRANCH  17  27
ENDBRANCH   1  15
BRANCH   1  31
ATOM     31  C   UNL     1       2.219   4.543   0.127  0.00  0.00    +0.114 C 
BRANCH  31  32
ATOM     32  C   UNL     1       2.468   5.079  -1.284  0.00  0.00    +0.019 C 
BRANCH  32  33
ATOM     33  C   UNL     1       3.599   6.109  -1.246  0.00  0.00    +0.001 C 
BRANCH  33  35
ATOM     34  C   UNL     1       4.979   7.674  -2.619  0.00  0.00    +0.004 C 
ATOM     35  C   UNL     1       3.848   6.645  -2.657  0.00  0.00    -0.003 C 
ENDBRANCH  33  35
ENDBRANCH  32  33
ENDBRANCH  31  32
ENDBRANCH   1  31
TORSDOF 10
