REMARK  Name = ZINC33619514
REMARK  7 active torsions:
REMARK  status: ('A' for Active; 'I' for Inactive)
REMARK    1  A    between atoms: C_1  and  C_2
REMARK    2  A    between atoms: C_5  and  C_8
REMARK    3  A    between atoms: N_9  and  N_10
REMARK    4  A    between atoms: N_15  and  C_16
REMARK    5  A    between atoms: C_16  and  C_17
REMARK    6  A    between atoms: N_26  and  C_31
REMARK    7  A    between atoms: N_29  and  C_30
REMARK                            x       y       z     vdW  Elec       q    Type
REMARK                         _______ _______ _______ _____ _____    ______ ____
ROOT
ATOM      1  N   UNL     1      -2.472   1.925  -0.637  0.00  0.00    -0.206 N 
ATOM      2  C   UNL     1      -1.155   2.317  -0.567  0.00  0.00    +0.218 A 
ATOM      3  N   UNL     1      -0.719   3.428  -0.006  0.00  0.00    -0.195 NA
ATOM      4  C   UNL     1       0.608   3.503  -0.117  0.00  0.00    +0.170 A 
ATOM      5  C   UNL     1       1.039   2.363  -0.787  0.00  0.00    +0.153 A 
ATOM      6  N   UNL     1      -0.099   1.618  -1.063  0.00  0.00    -0.301 N 
ATOM      7  C   UNL     1       2.413   2.191  -1.037  0.00  0.00    +0.282 A 
ATOM      8  O   UNL     1       2.813   1.200  -1.622  0.00  0.00    -0.265 OA
ATOM      9  N   UNL     1       3.282   3.136  -0.622  0.00  0.00    -0.262 N 
ATOM     10  C   UNL     1       2.855   4.234   0.024  0.00  0.00    +0.333 A 
ATOM     11  O   UNL     1       3.667   5.064   0.383  0.00  0.00    -0.246 OA
ATOM     12  N   UNL     1       1.550   4.437   0.284  0.00  0.00    -0.280 N 
ATOM     13  C   UNL     1       1.124   5.647   0.992  0.00  0.00    +0.155 C 
ATOM     14  C   UNL     1       4.713   2.962  -0.881  0.00  0.00    +0.157 C 
ATOM     15  H   UNL     1      -2.738   0.976  -1.125  0.00  0.00    +0.177 HD
ENDROOT
BRANCH   1  17
ATOM     16  C   UNL     1      -4.704   2.320  -0.063  0.00  0.00    +0.138 C 
ATOM     17  N   UNL     1      -3.474   2.735  -0.087  0.00  0.00    -0.188 NA
BRANCH  16  22
ATOM     18  C   UNL     1      -5.836  -3.318  -0.088  0.00  0.00    +0.044 C 
ATOM     19  C   UNL     1      -5.540  -1.841  -0.081  0.00  0.00    -0.050 A 
ATOM     20  C   UNL     1      -6.564  -0.932  -0.280  0.00  0.00    +0.004 A 
ATOM     21  C   UNL     1      -6.300   0.422  -0.275  0.00  0.00    +0.010 A 
ATOM     22  C   UNL     1      -4.994   0.875  -0.069  0.00  0.00    -0.005 A 
ATOM     23  C   UNL     1      -3.964  -0.049   0.126  0.00  0.00    +0.010 A 
ATOM     24  C   UNL     1      -4.244  -1.400   0.124  0.00  0.00    +0.004 A 
ENDBRANCH  16  22
ENDBRANCH   1  17
BRANCH   6  25
ATOM     25  C   UNL     1      -0.153   0.330  -1.759  0.00  0.00    +0.160 C 
BRANCH  25  26
ATOM     26  C   UNL     1      -0.029  -0.789  -0.756  0.00  0.00    -0.027 A 
ATOM     27  C   UNL     1       1.218  -1.287  -0.428  0.00  0.00    +0.008 A 
ATOM     28  C   UNL     1       1.333  -2.309   0.495  0.00  0.00    +0.038 A 
ATOM     29  C   UNL     1       0.198  -2.842   1.083  0.00  0.00    +0.123 A 
ATOM     30  C   UNL     1      -1.050  -2.345   0.749  0.00  0.00    +0.038 A 
ATOM     31  C   UNL     1      -1.163  -1.320  -0.170  0.00  0.00    +0.008 A 
ATOM     32  F   UNL     1       0.309  -3.844   1.981  0.00  0.00    -0.205 F 
ENDBRANCH  25  26
ENDBRANCH   6  25
TORSDOF 4
