REMARK  Name = ZINC39608888
REMARK  6 active torsions:
REMARK  status: ('A' for Active; 'I' for Inactive)
REMARK    1  A    between atoms: C_4  and  C_7
REMARK    2  A    between atoms: C_7  and  O_8
REMARK    3  A    between atoms: O_8  and  C_9
REMARK    4  A    between atoms: C_14  and  N_16
REMARK    5  A    between atoms: C_17  and  C_19
REMARK    6  A    between atoms: C_30  and  C_32
REMARK                            x       y       z     vdW  Elec       q    Type
REMARK                         _______ _______ _______ _____ _____    ______ ____
ROOT
ATOM      1  C   UNL     1       9.330   0.697   2.143  0.00  0.00    +0.100 C 
ATOM      2  C   UNL     1       9.063   1.552   0.884  0.00  0.00    +0.121 C 
ATOM      3  N   UNL     1       8.972   2.943   1.388  0.00  0.00    -0.296 N 
ATOM      4  C   UNL     1      10.025   3.028   2.429  0.00  0.00    +0.115 C 
ATOM      5  C   UNL     1       9.965   1.668   3.153  0.00  0.00    -0.004 C 
ATOM      6  C   UNL     1      11.370   1.203   3.522  0.00  0.00    -0.010 C 
ATOM      7  C   UNL     1      11.958   2.151   4.571  0.00  0.00    -0.082 C 
ATOM      8  N   UNL     1      11.097   2.164   5.760  0.00  0.00    +0.379 N 
ATOM      9  C   UNL     1       9.775   2.700   5.415  0.00  0.00    -0.082 C 
ATOM     10  C   UNL     1       9.095   1.775   4.402  0.00  0.00    -0.010 C 
ATOM     11  C   UNL     1       8.124   3.912   0.991  0.00  0.00    +0.249 C 
ATOM     12  O   UNL     1       8.237   5.038   1.434  0.00  0.00    -0.270 OA
ATOM     13  H   UNL     1      10.996   1.223   6.110  0.00  0.00    -0.086 HD
ATOM     14  H   UNL     1      11.518   2.741   6.472  0.00  0.00    -0.086 HD
ENDROOT
BRANCH  11  15
ATOM     15  C   UNL     1       7.058   3.605   0.016  0.00  0.00    +0.073 A 
ATOM     16  C   UNL     1       5.766   3.309   0.458  0.00  0.00    +0.054 A 
ATOM     17  C   UNL     1       4.774   3.024  -0.459  0.00  0.00    +0.021 A 
ATOM     18  C   UNL     1       5.057   3.031  -1.813  0.00  0.00    +0.003 A 
ATOM     19  C   UNL     1       6.333   3.323  -2.259  0.00  0.00    +0.021 A 
ATOM     20  C   UNL     1       7.334   3.616  -1.354  0.00  0.00    +0.054 A 
ATOM     21 CL   UNL     1       8.934   3.990  -1.916  0.00  0.00    -0.083 Cl
ATOM     22 CL   UNL     1       5.409   3.298   2.157  0.00  0.00    -0.083 Cl
ENDBRANCH  11  15
BRANCH   1  24
ATOM     23  N   UNL     1       8.050  -0.937   3.488  0.00  0.00    -0.310 N 
ATOM     24  C   UNL     1       8.037   0.146   2.687  0.00  0.00    +0.218 C 
ATOM     25  O   UNL     1       6.984   0.679   2.404  0.00  0.00    -0.275 OA
ATOM     26  H   UNL     1       8.894  -1.317   3.777  0.00  0.00    +0.149 HD
BRANCH  23  31
ATOM     27  C   UNL     1       6.982  -3.049   4.167  0.00  0.00    +0.139 C 
ATOM     28  C   UNL     1       6.651  -3.301   5.652  0.00  0.00    +0.033 C 
ATOM     29  C   UNL     1       6.875  -1.927   6.331  0.00  0.00    +0.004 C 
ATOM     30  C   UNL     1       6.344  -0.932   5.269  0.00  0.00    +0.025 C 
ATOM     31  C   UNL     1       6.788  -1.542   3.922  0.00  0.00    +0.102 C 
BRANCH  27  32
ATOM     32  O   UNL     1       6.096  -3.798   3.334  0.00  0.00    -0.370 OA
BRANCH  32  33
ATOM     33  C   UNL     1       6.545  -5.126   3.054  0.00  0.00    +0.195 C 
BRANCH  33  37
ATOM     34  C   UNL     1       3.876  -6.979   0.280  0.00  0.00    +0.000 A 
ATOM     35  C   UNL     1       4.906  -6.179  -0.180  0.00  0.00    +0.000 A 
ATOM     36  C   UNL     1       5.769  -5.579   0.718  0.00  0.00    +0.006 A 
ATOM     37  C   UNL     1       5.603  -5.779   2.075  0.00  0.00    -0.022 A 
ATOM     38  C   UNL     1       4.573  -6.578   2.536  0.00  0.00    +0.006 A 
ATOM     39  C   UNL     1       3.710  -7.179   1.638  0.00  0.00    +0.000 A 
ENDBRANCH  33  37
ENDBRANCH  32  33
ENDBRANCH  27  32
ENDBRANCH  23  31
ENDBRANCH   1  24
TORSDOF 6
