REMARK  Name = ZINC09289699
REMARK  3 active torsions:
REMARK  status: ('A' for Active; 'I' for Inactive)
REMARK    1  A    between atoms: C_9  and  C_12
REMARK    2  A    between atoms: C_10  and  O_11
REMARK    3  A    between atoms: C_15  and  C_21
REMARK                            x       y       z     vdW  Elec       q    Type
REMARK                         _______ _______ _______ _____ _____    ______ ____
ROOT
ATOM      1  C   UNL     1       0.827   4.008   0.362  0.00  0.00    +0.083 C 
ATOM      2  N   UNL     1       1.699   3.074   0.193  0.00  0.00    -0.166 NA
ATOM      3  N   UNL     1       1.363   1.724   0.224  0.00  0.00    -0.186 N 
ATOM      4  C   UNL     1       2.124   0.608   0.419  0.00  0.00    +0.186 A 
ATOM      5  N   UNL     1       1.313  -0.429   0.338  0.00  0.00    -0.126 NA
ATOM      6  N   UNL     1       0.106  -0.032   0.109  0.00  0.00    -0.120 NA
ATOM      7  C   UNL     1       0.078   1.264   0.034  0.00  0.00    +0.213 A 
ATOM      8  S   UNL     1      -1.271   2.364  -0.244  0.00  0.00    -0.078 S 
ATOM      9  C   UNL     1      -0.629   3.805   0.649  0.00  0.00    +0.135 C 
ENDROOT
BRANCH   1  18
ATOM     10  C   UNL     1       3.900   9.623  -0.385  0.00  0.00    +0.001 A 
ATOM     11  C   UNL     1       4.779   8.584  -0.681  0.00  0.00    +0.001 A 
ATOM     12  C   UNL     1       4.380   7.285  -0.602  0.00  0.00    +0.012 A 
ATOM     13  C   UNL     1       3.063   6.985  -0.215  0.00  0.00    +0.024 A 
ATOM     14  C   UNL     1       2.168   8.041   0.086  0.00  0.00    -0.014 A 
ATOM     15  C   UNL     1       2.616   9.369  -0.007  0.00  0.00    +0.008 A 
ATOM     16  C   UNL     1       0.847   7.748   0.474  0.00  0.00    +0.009 A 
ATOM     17  C   UNL     1       0.429   6.459   0.552  0.00  0.00    +0.014 A 
ATOM     18  C   UNL     1       1.304   5.397   0.262  0.00  0.00    +0.041 A 
ATOM     19  C   UNL     1       2.618   5.652  -0.124  0.00  0.00    +0.133 A 
BRANCH  19  20
ATOM     20  O   UNL     1       3.460   4.627  -0.409  0.00  0.00    -0.506 OA
ATOM     21  H   UNL     1       3.450   4.357  -1.337  0.00  0.00    +0.292 HD
ENDBRANCH  19  20
ENDBRANCH   1  18
BRANCH   4  22
ATOM     22  C   UNL     1       3.579   0.568   0.674  0.00  0.00    +0.021 A 
ATOM     23  C   UNL     1       4.258   1.733   1.037  0.00  0.00    +0.014 A 
ATOM     24  C   UNL     1       5.616   1.690   1.277  0.00  0.00    +0.039 A 
ATOM     25  C   UNL     1       6.307   0.495   1.150  0.00  0.00    +0.123 A 
ATOM     26  C   UNL     1       5.639  -0.663   0.786  0.00  0.00    +0.039 A 
ATOM     27  C   UNL     1       4.281  -0.632   0.547  0.00  0.00    +0.014 A 
ATOM     28  F   UNL     1       7.638   0.460   1.382  0.00  0.00    -0.205 F 
ENDBRANCH   4  22
TORSDOF 3
