REMARK  Name = ZINC35156428
REMARK  17 active torsions:
REMARK  status: ('A' for Active; 'I' for Inactive)
REMARK    1  A    between atoms: C_1  and  C_2
REMARK    2  A    between atoms: C_2  and  N_3
REMARK    3  A    between atoms: N_3  and  C_4
REMARK    4  A    between atoms: N_3  and  C_6
REMARK    5  A    between atoms: C_4  and  C_5
REMARK    6  A    between atoms: C_6  and  C_7
REMARK    7  A    between atoms: C_7  and  C_8
REMARK    8  A    between atoms: C_8  and  C_9
REMARK    9  A    between atoms: C_9  and  C_11
REMARK   10  A    between atoms: C_9  and  N_12
REMARK   11  A    between atoms: C_13  and  C_15
REMARK   12  A    between atoms: C_15  and  C_16
REMARK   13  A    between atoms: C_16  and  C_17
REMARK   14  A    between atoms: C_17  and  S_18
REMARK   15  A    between atoms: S_18  and  C_19
REMARK   16  A    between atoms: N_29  and  C_30
REMARK   17  A    between atoms: C_30  and  C_31
REMARK                            x       y       z     vdW  Elec       q    Type
REMARK                         _______ _______ _______ _____ _____    ______ ____
ROOT
ATOM      1  C   UNL     1     -12.169  -2.180   3.950  0.00  0.00    +0.211 A 
ATOM      2  N   UNL     1     -13.486  -2.023   3.933  0.00  0.00    -0.201 NA
ATOM      3  C   UNL     1     -14.098  -1.541   5.010  0.00  0.00    +0.165 A 
ATOM      4  C   UNL     1     -13.314  -1.214   6.136  0.00  0.00    +0.138 A 
ATOM      5  C   UNL     1     -14.247  -0.712   7.159  0.00  0.00    +0.029 A 
ATOM      6  C   UNL     1     -14.084  -0.241   8.459  0.00  0.00    +0.012 A 
ATOM      7  C   UNL     1     -15.183   0.169   9.182  0.00  0.00    +0.001 A 
ATOM      8  C   UNL     1     -16.449   0.114   8.620  0.00  0.00    +0.002 A 
ATOM      9  C   UNL     1     -16.625  -0.350   7.333  0.00  0.00    +0.026 A 
ATOM     10  C   UNL     1     -15.528  -0.768   6.588  0.00  0.00    +0.053 A 
ATOM     11  N   UNL     1     -15.412  -1.268   5.301  0.00  0.00    -0.319 N 
ATOM     12  N   UNL     1     -12.002  -1.394   6.090  0.00  0.00    -0.143 NA
ATOM     13  N   UNL     1     -11.452  -1.869   5.025  0.00  0.00    -0.122 NA
ENDROOT
BRANCH   1  14
ATOM     14  S   UNL     1     -11.356  -2.819   2.524  0.00  0.00    -0.084 S 
BRANCH  14  15
ATOM     15  C   UNL     1      -9.606  -2.866   3.000  0.00  0.00    +0.078 C 
BRANCH  15  16
ATOM     16  C   UNL     1      -8.775  -3.409   1.836  0.00  0.00    +0.020 C 
BRANCH  16  17
ATOM     17  C   UNL     1      -7.299  -3.448   2.237  0.00  0.00    +0.096 C 
BRANCH  17  19
ATOM     18  N   UNL     1      -5.145  -4.107   1.217  0.00  0.00    -0.313 N 
ATOM     19  C   UNL     1      -6.481  -3.983   1.091  0.00  0.00    +0.213 C 
ATOM     20  O   UNL     1      -7.024  -4.302   0.054  0.00  0.00    -0.276 OA
ATOM     21  H   UNL     1      -4.710  -3.852   2.046  0.00  0.00    +0.149 HD
BRANCH  18  22
ATOM     22  C   UNL     1      -4.349  -4.628   0.102  0.00  0.00    +0.070 C 
ATOM     23  C   UNL     1      -4.348  -6.157   0.146  0.00  0.00    +0.028 C 
BRANCH  22  24
ATOM     24  C   UNL     1      -2.913  -4.113   0.217  0.00  0.00    +0.020 C 
BRANCH  24  25
ATOM     25  C   UNL     1      -2.901  -2.592   0.048  0.00  0.00    -0.017 C 
BRANCH  25  26
ATOM     26  C   UNL     1      -1.464  -2.078   0.163  0.00  0.00    -0.079 C 
BRANCH  26  27
ATOM     27  N   UNL     1      -1.438  -0.634  -0.108  0.00  0.00    +0.379 N 
ATOM     28  H   UNL     1      -1.863  -0.453  -1.004  0.00  0.00    -0.082 HD
BRANCH  27  30
ATOM     29  C   UNL     1      -2.263   1.562   0.594  0.00  0.00    -0.017 C 
ATOM     30  C   UNL     1      -2.184   0.074   0.941  0.00  0.00    -0.082 C 
ENDBRANCH  27  30
BRANCH  27  31
ATOM     31  C   UNL     1      -0.046  -0.164  -0.121  0.00  0.00    -0.082 C 
ATOM     32  C   UNL     1       0.689  -0.780  -1.313  0.00  0.00    -0.017 C 
ENDBRANCH  27  31
ENDBRANCH  26  27
ENDBRANCH  25  26
ENDBRANCH  24  25
ENDBRANCH  22  24
ENDBRANCH  18  22
ENDBRANCH  17  19
ENDBRANCH  16  17
ENDBRANCH  15  16
ENDBRANCH  14  15
ENDBRANCH   1  14
BRANCH  11  33
ATOM     33  C   UNL     1     -16.532  -1.476   4.380  0.00  0.00    +0.159 C 
BRANCH  33  34
ATOM     34  C   UNL     1     -17.081  -2.867   4.563  0.00  0.00    -0.028 A 
ATOM     35  C   UNL     1     -16.570  -3.915   3.819  0.00  0.00    +0.008 A 
ATOM     36  C   UNL     1     -17.073  -5.191   3.986  0.00  0.00    +0.038 A 
ATOM     37  C   UNL     1     -18.088  -5.421   4.899  0.00  0.00    +0.123 A 
ATOM     38  C   UNL     1     -18.599  -4.372   5.644  0.00  0.00    +0.038 A 
ATOM     39  C   UNL     1     -18.092  -3.097   5.479  0.00  0.00    +0.008 A 
ATOM     40  F   UNL     1     -18.580  -6.669   5.063  0.00  0.00    -0.205 F 
ENDBRANCH  33  34
ENDBRANCH  11  33
TORSDOF 14
