REMARK  Name = ZINC25575336
REMARK  6 active torsions:
REMARK  status: ('A' for Active; 'I' for Inactive)
REMARK    1  A    between atoms: C_1  and  O_2
REMARK    2  A    between atoms: O_2  and  C_3
REMARK    3  A    between atoms: C_8  and  C_9
REMARK    4  A    between atoms: C_20  and  C_22
REMARK    5  A    between atoms: C_27  and  O_28
REMARK    6  A    between atoms: O_28  and  C_29
REMARK                            x       y       z     vdW  Elec       q    Type
REMARK                         _______ _______ _______ _____ _____    ______ ____
ROOT
ATOM      1  C   UNL     1      -0.028  -3.088   0.124  0.00  0.00    +0.162 C 
ATOM      2  C   UNL     1       0.913  -2.890   1.293  0.00  0.00    +0.028 C 
ATOM      3  C   UNL     1       1.451  -3.986   1.865  0.00  0.00    +0.083 C 
ATOM      4  C   UNL     1       2.365  -3.778   3.017  0.00  0.00    +0.044 A 
ATOM      5  C   UNL     1       3.207  -4.786   3.466  0.00  0.00    +0.033 A 
ATOM      6  C   UNL     1       4.044  -4.549   4.541  0.00  0.00    +0.042 A 
ATOM      7  C   UNL     1       4.041  -3.313   5.166  0.00  0.00    +0.023 A 
ATOM      8  C   UNL     1       3.203  -2.305   4.725  0.00  0.00    +0.048 A 
ATOM      9  C   UNL     1       2.361  -2.529   3.651  0.00  0.00    +0.131 A 
ATOM     10  O   UNL     1       1.524  -1.559   3.202  0.00  0.00    -0.479 OA
ATOM     11  C   UNL     1       1.249  -1.519   1.800  0.00  0.00    +0.238 C 
ATOM     12 CL   UNL     1       5.100  -5.804   5.109  0.00  0.00    -0.084 Cl
ATOM     13  N   UNL     1       1.172  -5.233   1.412  0.00  0.00    -0.213 NA
ATOM     14  C   UNL     1       0.370  -5.493   0.406  0.00  0.00    +0.237 C 
ATOM     15  N   UNL     1      -0.260  -4.479  -0.282  0.00  0.00    -0.208 N 
ATOM     16  N   UNL     1      -1.027  -5.090  -1.276  0.00  0.00    -0.251 N 
ATOM     17  C   UNL     1      -0.825  -6.431  -1.150  0.00  0.00    +0.203 C 
ATOM     18  N   UNL     1      -0.013  -6.656  -0.166  0.00  0.00    -0.205 NA
ATOM     19  H   UNL     1      -1.593  -4.647  -1.928  0.00  0.00    +0.171 HD
ENDROOT
BRANCH   1  25
ATOM     20  C   UNL     1       0.260  -0.988  -1.216  0.00  0.00    +0.125 A 
ATOM     21  C   UNL     1       0.779  -0.301  -2.304  0.00  0.00    +0.046 A 
ATOM     22  C   UNL     1       1.558  -0.965  -3.231  0.00  0.00    +0.004 A 
ATOM     23  C   UNL     1       1.822  -2.313  -3.075  0.00  0.00    +0.001 A 
ATOM     24  C   UNL     1       1.306  -3.000  -1.992  0.00  0.00    +0.009 A 
ATOM     25  C   UNL     1       0.530  -2.339  -1.060  0.00  0.00    +0.021 A 
BRANCH  20  27
ATOM     26  C   UNL     1      -0.774   1.046  -0.547  0.00  0.00    +0.277 C 
ATOM     27  O   UNL     1      -0.508  -0.337  -0.303  0.00  0.00    -0.495 OA
ENDBRANCH  20  27
ENDBRANCH   1  25
BRANCH  11  28
ATOM     28  C   UNL     1       2.461  -1.001   1.069  0.00  0.00    +0.039 A 
ATOM     29  C   UNL     1       3.357  -1.886   0.501  0.00  0.00    +0.011 A 
ATOM     30  C   UNL     1       4.469  -1.411  -0.169  0.00  0.00    +0.001 A 
ATOM     31  C   UNL     1       4.687  -0.049  -0.273  0.00  0.00    +0.004 A 
ATOM     32  C   UNL     1       3.794   0.840   0.292  0.00  0.00    +0.046 A 
ATOM     33  C   UNL     1       2.675   0.366   0.961  0.00  0.00    +0.127 A 
BRANCH  33  34
ATOM     34  O   UNL     1       1.791   1.238   1.513  0.00  0.00    -0.495 OA
ATOM     35  C   UNL     1       2.044   2.631   1.313  0.00  0.00    +0.277 C 
ENDBRANCH  33  34
ENDBRANCH  11  28
TORSDOF 4
