REMARK  Name = ZINC65298491
REMARK  5 active torsions:
REMARK  status: ('A' for Active; 'I' for Inactive)
REMARK    1  A    between atoms: C_1  and  C_2
REMARK    2  A    between atoms: C_5  and  C_8
REMARK    3  A    between atoms: C_11  and  C_21
REMARK    4  A    between atoms: N_17  and  C_20
REMARK    5  A    between atoms: C_26  and  O_27
REMARK                            x       y       z     vdW  Elec       q    Type
REMARK                         _______ _______ _______ _____ _____    ______ ____
ROOT
ATOM      1  C   UNL     1       0.059  -4.275  -0.021  0.00  0.00    +0.092 C 
ATOM      2  C   UNL     1       1.485  -4.775   0.234  0.00  0.00    +0.079 C 
ATOM      3  C   UNL     1       1.452  -6.247   0.540  0.00  0.00    +0.050 C 
ATOM      4  N   UNL     1       0.380  -6.872   0.855  0.00  0.00    -0.266 NA
ATOM      5  C   UNL     1      -0.936  -6.249   0.946  0.00  0.00    +0.109 C 
ATOM      6  N   UNL     1      -0.808  -4.789   1.052  0.00  0.00    -0.286 NA
ATOM      7  C   UNL     1      -1.753  -6.593  -0.304  0.00  0.00    +0.027 C 
ATOM      8  C   UNL     1      -1.962  -8.107  -0.366  0.00  0.00    -0.076 C 
ATOM      9  N   UNL     1      -2.687  -8.555   0.829  0.00  0.00    +0.378 N 
ATOM     10  C   UNL     1      -1.883  -8.290   2.028  0.00  0.00    -0.076 C 
ATOM     11  C   UNL     1      -1.670  -6.782   2.181  0.00  0.00    +0.027 C 
ATOM     12  C   UNL     1      -2.952  -9.996   0.728  0.00  0.00    -0.096 C 
ATOM     13  H   UNL     1      -0.456  -4.523   1.960  0.00  0.00    +0.125 HD
ATOM     14  H   UNL     1      -3.562  -8.058   0.896  0.00  0.00    -0.082 HD
ENDROOT
BRANCH   1  19
ATOM     15  C   UNL     1      -0.018   1.503   0.010  0.00  0.00    +0.044 C 
ATOM     16  C   UNL     1       0.002  -0.004   0.002  0.00  0.00    -0.050 A 
ATOM     17  C   UNL     1       0.006  -0.689  -1.199  0.00  0.00    +0.003 A 
ATOM     18  C   UNL     1       0.025  -2.071  -1.206  0.00  0.00    +0.005 A 
ATOM     19  C   UNL     1       0.040  -2.768  -0.013  0.00  0.00    -0.030 A 
ATOM     20  C   UNL     1       0.037  -2.084   1.188  0.00  0.00    +0.005 A 
ATOM     21  C   UNL     1       0.023  -0.702   1.195  0.00  0.00    +0.003 A 
ENDBRANCH   1  19
BRANCH   3  22
ATOM     22  C   UNL     1       2.714  -7.005   0.476  0.00  0.00    +0.039 A 
ATOM     23  C   UNL     1       3.906  -6.359   0.141  0.00  0.00    +0.033 A 
ATOM     24  C   UNL     1       5.083  -7.074   0.083  0.00  0.00    +0.042 A 
ATOM     25  C   UNL     1       5.089  -8.434   0.354  0.00  0.00    +0.023 A 
ATOM     26  C   UNL     1       3.916  -9.085   0.685  0.00  0.00    +0.047 A 
ATOM     27  C   UNL     1       2.725  -8.379   0.754  0.00  0.00    +0.126 A 
ATOM     28 CL   UNL     1       6.565  -6.270  -0.333  0.00  0.00    -0.084 Cl
BRANCH  27  29
ATOM     29  O   UNL     1       1.574  -9.017   1.085  0.00  0.00    -0.506 OA
ATOM     30  H   UNL     1       1.091  -9.376   0.328  0.00  0.00    +0.292 HD
ENDBRANCH  27  29
ENDBRANCH   3  22
TORSDOF 3
