REMARK  Name = ZINC09469687
REMARK  8 active torsions:
REMARK  status: ('A' for Active; 'I' for Inactive)
REMARK    1  A    between atoms: C_1  and  C_2
REMARK    2  A    between atoms: C_5  and  N_8
REMARK    3  A    between atoms: C_11  and  C_16
REMARK    4  A    between atoms: C_16  and  S_17
REMARK    5  A    between atoms: S_17  and  C_18
REMARK    6  A    between atoms: C_21  and  C_30
REMARK    7  A    between atoms: N_22  and  C_23
REMARK    8  A    between atoms: C_23  and  C_24
REMARK                            x       y       z     vdW  Elec       q    Type
REMARK                         _______ _______ _______ _____ _____    ______ ____
ROOT
ATOM      1  C   UNL     1       5.597  -0.520   0.735  0.00  0.00    +0.153 C 
ENDROOT
BRANCH   1   5
ATOM      2  N   UNL     1       1.978   0.586   3.685  0.00  0.00    -0.284 N 
ATOM      3  C   UNL     1       2.993   1.002   2.846  0.00  0.00    +0.224 A 
ATOM      4  N   UNL     1       3.760   0.103   2.232  0.00  0.00    -0.198 NA
ATOM      5  C   UNL     1       4.731   0.500   1.429  0.00  0.00    +0.146 A 
ATOM      6  N   UNL     1       4.947   1.789   1.233  0.00  0.00    -0.199 NA
ATOM      7  C   UNL     1       4.184   2.693   1.843  0.00  0.00    +0.217 A 
ATOM      8  N   UNL     1       3.206   2.298   2.651  0.00  0.00    -0.181 NA
ATOM      9  N   UNL     1       4.409   4.039   1.638  0.00  0.00    -0.327 N 
ATOM     10  H   UNL     1       1.788  -0.360   3.786  0.00  0.00    +0.155 HD
ATOM     11  H   UNL     1       3.853   4.698   2.083  0.00  0.00    +0.145 HD
ATOM     12  H   UNL     1       5.123   4.327   1.048  0.00  0.00    +0.145 HD
BRANCH   2  17
ATOM     13  C   UNL     1      -1.083   4.409   6.546  0.00  0.00    +0.044 C 
ATOM     14  C   UNL     1      -0.270   3.394   5.786  0.00  0.00    -0.050 A 
ATOM     15  C   UNL     1      -0.864   2.225   5.345  0.00  0.00    +0.005 A 
ATOM     16  C   UNL     1      -0.121   1.292   4.648  0.00  0.00    +0.023 A 
ATOM     17  C   UNL     1       1.223   1.529   4.390  0.00  0.00    +0.034 A 
ATOM     18  C   UNL     1       1.817   2.701   4.839  0.00  0.00    +0.023 A 
ATOM     19  C   UNL     1       1.068   3.632   5.532  0.00  0.00    +0.005 A 
ENDBRANCH   2  17
ENDBRANCH   1   5
BRANCH   1  20
ATOM     20  S   UNL     1       4.862  -0.949  -0.862  0.00  0.00    -0.078 S 
BRANCH  20  21
ATOM     21  C   UNL     1       6.044  -2.122  -1.438  0.00  0.00    +0.192 A 
ATOM     22  N   UNL     1       7.131  -2.506  -0.808  0.00  0.00    -0.122 NA
ATOM     23  N   UNL     1       7.765  -3.376  -1.511  0.00  0.00    -0.128 NA
ATOM     24  C   UNL     1       7.125  -3.593  -2.637  0.00  0.00    +0.165 A 
ATOM     25  N   UNL     1       6.004  -2.797  -2.625  0.00  0.00    -0.300 N 
BRANCH  24  26
ATOM     26  C   UNL     1       7.534  -4.519  -3.715  0.00  0.00    +0.019 A 
ATOM     27  C   UNL     1       8.455  -5.535  -3.454  0.00  0.00    +0.014 A 
ATOM     28  C   UNL     1       8.830  -6.398  -4.462  0.00  0.00    +0.039 A 
ATOM     29  C   UNL     1       8.302  -6.252  -5.734  0.00  0.00    +0.123 A 
ATOM     30  C   UNL     1       7.391  -5.242  -6.000  0.00  0.00    +0.039 A 
ATOM     31  C   UNL     1       7.005  -4.377  -4.998  0.00  0.00    +0.014 A 
ATOM     32  F   UNL     1       8.676  -7.098  -6.720  0.00  0.00    -0.205 F 
ENDBRANCH  24  26
BRANCH  25  33
ATOM     33  C   UNL     1       4.980  -2.694  -3.667  0.00  0.00    +0.157 C 
BRANCH  33  34
ATOM     34  C   UNL     1       5.280  -1.489  -4.560  0.00  0.00    +0.138 C 
ATOM     35  C   UNL     1       4.230  -1.397  -5.688  0.00  0.00    +0.035 C 
ATOM     36  C   UNL     1       5.091  -0.967  -6.907  0.00  0.00    +0.031 C 
ATOM     37  C   UNL     1       6.418  -1.707  -6.604  0.00  0.00    +0.160 C 
ATOM     38  O   UNL     1       6.564  -1.649  -5.176  0.00  0.00    -0.375 OA
ENDBRANCH  33  34
ENDBRANCH  25  33
ENDBRANCH  20  21
ENDBRANCH   1  20
TORSDOF 7
