REMARK  Name = ZINC61322157
REMARK  3 active torsions:
REMARK  status: ('A' for Active; 'I' for Inactive)
REMARK    1  A    between atoms: C_1  and  C_2
REMARK    2  A    between atoms: C_5  and  C_8
REMARK    3  A    between atoms: C_8  and  N_9
REMARK                            x       y       z     vdW  Elec       q    Type
REMARK                         _______ _______ _______ _____ _____    ______ ____
ROOT
ATOM      1  N   UNL     1      -1.310  -4.691  -0.191  0.00  0.00    -0.282 N 
ATOM      2  C   UNL     1      -2.021  -4.919   0.928  0.00  0.00    +0.263 A 
ATOM      3  O   UNL     1      -1.532  -4.708   2.022  0.00  0.00    -0.267 OA
ATOM      4  C   UNL     1      -3.404  -5.430   0.813  0.00  0.00    +0.070 A 
ATOM      5  C   UNL     1      -4.357  -5.749   1.865  0.00  0.00    +0.023 A 
ATOM      6  C   UNL     1      -5.558  -6.201   1.471  0.00  0.00    +0.048 A 
ATOM      7  S   UNL     1      -5.432  -6.205  -0.304  0.00  0.00    -0.079 S 
ATOM      8  C   UNL     1      -3.871  -5.638  -0.485  0.00  0.00    +0.092 A 
ATOM      9  N   UNL     1      -3.077  -5.379  -1.572  0.00  0.00    -0.329 N 
ATOM     10  C   UNL     1      -1.826  -4.909  -1.412  0.00  0.00    +0.162 A 
ATOM     11  S   UNL     1      -0.868  -4.590  -2.794  0.00  0.00    -0.013 S 
ATOM     12  H   UNL     1      -3.422  -5.531  -2.466  0.00  0.00    +0.168 HD
ENDROOT
BRANCH   1  13
ATOM     13  C   UNL     1       0.059  -4.184  -0.075  0.00  0.00    +0.184 C 
BRANCH  13  18
ATOM     14  C   UNL     1      -0.018   1.503   0.010  0.00  0.00    +0.067 C 
ATOM     15  C   UNL     1       0.002  -0.004   0.002  0.00  0.00    +0.056 A 
ATOM     16  C   UNL     1       0.006  -0.689  -1.200  0.00  0.00    +0.134 A 
ATOM     17  N   UNL     1       0.024  -2.010  -1.207  0.00  0.00    -0.255 NA
ATOM     18  C   UNL     1       0.039  -2.677  -0.067  0.00  0.00    +0.079 A 
ATOM     19  C   UNL     1       0.035  -1.992   1.135  0.00  0.00    +0.136 A 
ATOM     20  N   UNL     1       0.022  -0.671   1.143  0.00  0.00    -0.257 NA
ENDBRANCH  13  18
ENDBRANCH   1  13
TORSDOF 2
