REMARK  Name = ZINC36037294
REMARK  10 active torsions:
REMARK  status: ('A' for Active; 'I' for Inactive)
REMARK    1  A    between atoms: C_1  and  O_2
REMARK    2  A    between atoms: O_2  and  C_3
REMARK    3  A    between atoms: C_3  and  C_5
REMARK    4  A    between atoms: C_7  and  C_37
REMARK    5  A    between atoms: C_14  and  C_30
REMARK    6  A    between atoms: C_16  and  C_26
REMARK    7  A    between atoms: C_17  and  N_25
REMARK    8  A    between atoms: N_18  and  C_19
REMARK    9  A    between atoms: C_26  and  O_28
REMARK   10  A    between atoms: O_28  and  C_29
REMARK                            x       y       z     vdW  Elec       q    Type
REMARK                         _______ _______ _______ _____ _____    ______ ____
ROOT
ATOM      1  C   UNL     1      -0.184  -2.820   0.584  0.00  0.00    +0.176 C 
ATOM      2  C   UNL     1      -1.562  -3.342   1.005  0.00  0.00    +0.046 C 
ATOM      3  C   UNL     1      -1.709  -4.779   0.502  0.00  0.00    +0.061 C 
ATOM      4  C   UNL     1      -1.547  -4.810  -0.998  0.00  0.00    +0.025 C 
ATOM      5  C   UNL     1      -0.753  -3.920  -1.630  0.00  0.00    +0.026 C 
ATOM      6  C   UNL     1      -0.051  -2.934  -0.910  0.00  0.00    +0.176 C 
ATOM      7  O   UNL     1       0.673  -2.161  -1.506  0.00  0.00    -0.291 OA
ATOM      8  C   UNL     1      -0.595  -3.950  -3.129  0.00  0.00    +0.097 C 
ATOM      9  C   UNL     1      -1.034  -5.268  -3.694  0.00  0.00    +0.084 C 
ATOM     10  C   UNL     1      -1.822  -6.114  -2.975  0.00  0.00    +0.103 C 
ATOM     11  N   UNL     1      -2.223  -5.770  -1.706  0.00  0.00    -0.261 N 
ENDROOT
BRANCH   8  12
ATOM     12  C   UNL     1      -1.429  -2.851  -3.736  0.00  0.00    +0.000 A 
ATOM     13  C   UNL     1      -2.796  -2.830  -3.535  0.00  0.00    +0.007 A 
ATOM     14  C   UNL     1      -3.561  -1.822  -4.092  0.00  0.00    +0.000 A 
ATOM     15  C   UNL     1      -2.960  -0.834  -4.849  0.00  0.00    +0.003 A 
ATOM     16  C   UNL     1      -1.593  -0.853  -5.051  0.00  0.00    +0.038 A 
ATOM     17  C   UNL     1      -0.825  -1.859  -4.489  0.00  0.00    +0.127 A 
ATOM     18  F   UNL     1       0.512  -1.876  -4.681  0.00  0.00    -0.205 F 
ENDBRANCH   8  12
BRANCH  11  19
ATOM     19  C   UNL     1      -3.330  -6.405  -1.132  0.00  0.00    +0.040 A 
ATOM     20  C   UNL     1      -3.157  -7.559  -0.379  0.00  0.00    +0.024 A 
ATOM     21  C   UNL     1      -4.252  -8.183   0.186  0.00  0.00    +0.002 A 
ATOM     22  C   UNL     1      -5.519  -7.661   0.003  0.00  0.00    +0.000 A 
ATOM     23  C   UNL     1      -5.695  -6.512  -0.747  0.00  0.00    +0.002 A 
ATOM     24  C   UNL     1      -4.604  -5.880  -1.310  0.00  0.00    +0.024 A 
ENDBRANCH  11  19
BRANCH   2  25
ATOM     25  C   UNL     1      -1.677  -3.312   2.508  0.00  0.00    -0.043 A 
ATOM     26  C   UNL     1      -0.791  -4.037   3.283  0.00  0.00    +0.004 A 
ATOM     27  C   UNL     1      -0.896  -4.010   4.661  0.00  0.00    +0.000 A 
ATOM     28  C   UNL     1      -1.887  -3.258   5.264  0.00  0.00    +0.000 A 
ATOM     29  C   UNL     1      -2.772  -2.533   4.489  0.00  0.00    +0.000 A 
ATOM     30  C   UNL     1      -2.664  -2.556   3.111  0.00  0.00    +0.004 A 
ENDBRANCH   2  25
BRANCH  10  31
ATOM     31  N   UNL     1      -2.216  -7.309  -3.517  0.00  0.00    -0.346 N 
ATOM     32  H   UNL     1      -1.589  -7.837  -4.037  0.00  0.00    +0.143 HD
ATOM     33  H   UNL     1      -3.122  -7.628  -3.381  0.00  0.00    +0.143 HD
ENDBRANCH  10  31
BRANCH   1  34
ATOM     34  C   UNL     1      -0.045  -1.376   0.994  0.00  0.00    +0.318 C 
ATOM     35  O   UNL     1      -0.951  -0.821   1.567  0.00  0.00    -0.250 OA
BRANCH  34  37
ATOM     36  C   UNL     1       1.150   0.658   1.138  0.00  0.00    +0.280 C 
ATOM     37  O   UNL     1       1.087  -0.707   0.721  0.00  0.00    -0.467 OA
ENDBRANCH  34  37
ENDBRANCH   1  34
BRANCH   9  38
ATOM     38  C   UNL     1      -0.626  -5.635  -4.985  0.00  0.00    +0.339 C 
ATOM     39  O   UNL     1      -1.051  -6.659  -5.490  0.00  0.00    -0.245 OA
BRANCH  38  40
ATOM     40  O   UNL     1       0.238  -4.853  -5.668  0.00  0.00    -0.465 OA
ATOM     41  C   UNL     1       0.610  -5.288  -6.977  0.00  0.00    +0.280 C 
ENDBRANCH  38  40
ENDBRANCH   9  38
TORSDOF 8
