REMARK  Name = ZINC18190122
REMARK  7 active torsions:
REMARK  status: ('A' for Active; 'I' for Inactive)
REMARK    1  A    between atoms: C_1  and  N_2
REMARK    2  A    between atoms: N_2  and  C_3
REMARK    3  A    between atoms: N_2  and  C_4
REMARK    4  A    between atoms: C_7  and  C_10
REMARK    5  A    between atoms: C_13  and  N_18
REMARK    6  A    between atoms: N_18  and  C_19
REMARK    7  A    between atoms: C_24  and  N_25
REMARK                            x       y       z     vdW  Elec       q    Type
REMARK                         _______ _______ _______ _____ _____    ______ ____
ROOT
ATOM      1  C   UNL     1      -6.062   3.028   0.480  0.00  0.00    +0.032 C 
ATOM      2  C   UNL     1      -4.937   3.865  -0.135  0.00  0.00    +0.059 C 
ATOM      3  C   UNL     1      -3.639   3.108  -0.039  0.00  0.00    +0.012 C 
ATOM      4  C   UNL     1      -3.614   1.757  -0.059  0.00  0.00    +0.065 C 
ATOM      5  C   UNL     1      -4.787   1.002  -0.153  0.00  0.00    +0.158 C 
ATOM      6  O   UNL     1      -4.723  -0.211  -0.164  0.00  0.00    -0.293 OA
ATOM      7  C   UNL     1      -6.130   1.680  -0.245  0.00  0.00    +0.087 C 
ENDROOT
BRANCH   1  11
ATOM      8  C   UNL     1      -9.783   5.083   0.034  0.00  0.00    +0.029 A 
ATOM      9  C   UNL     1      -9.309   4.768   1.302  0.00  0.00    +0.023 A 
ATOM     10  C   UNL     1      -8.106   4.104   1.442  0.00  0.00    +0.006 A 
ATOM     11  C   UNL     1      -7.374   3.752   0.323  0.00  0.00    -0.043 A 
ATOM     12  C   UNL     1      -7.840   4.069  -0.940  0.00  0.00    +0.006 A 
ATOM     13  C   UNL     1      -9.044   4.729  -1.088  0.00  0.00    +0.023 A 
BRANCH   8  15
ATOM     14  C   UNL     1     -11.717   6.234   1.072  0.00  0.00    +0.129 C 
ATOM     15  N   UNL     1     -10.998   5.755  -0.111  0.00  0.00    -0.336 N 
ATOM     16  C   UNL     1     -11.555   5.981  -1.448  0.00  0.00    +0.129 C 
ENDBRANCH   8  15
ENDBRANCH   1  11
BRANCH   3  17
ATOM     17  N   UNL     1      -2.468   3.797   0.064  0.00  0.00    -0.316 N 
ATOM     18  H   UNL     1      -2.480   4.763   0.154  0.00  0.00    +0.152 HD
BRANCH  17  19
ATOM     19  C   UNL     1      -1.248   3.112   0.040  0.00  0.00    +0.052 A 
ATOM     20  C   UNL     1      -0.504   2.975   1.203  0.00  0.00    +0.025 A 
ATOM     21  C   UNL     1       0.704   2.303   1.176  0.00  0.00    +0.002 A 
ATOM     22  C   UNL     1       1.169   1.756  -0.006  0.00  0.00    +0.002 A 
ATOM     23  C   UNL     1       0.432   1.882  -1.168  0.00  0.00    +0.024 A 
ATOM     24  C   UNL     1      -0.778   2.560  -1.152  0.00  0.00    +0.046 A 
BRANCH  24  25
ATOM     25  N   UNL     1      -1.526   2.688  -2.327  0.00  0.00    -0.357 N 
ATOM     26  H   UNL     1      -1.198   2.304  -3.155  0.00  0.00    +0.142 HD
ATOM     27  H   UNL     1      -2.372   3.163  -2.314  0.00  0.00    +0.142 HD
ENDBRANCH  24  25
ENDBRANCH  17  19
ENDBRANCH   3  17
TORSDOF 5
