REMARK  Name = ZINC40043731
REMARK  6 active torsions:
REMARK  status: ('A' for Active; 'I' for Inactive)
REMARK    1  A    between atoms: C_1  and  C_2
REMARK    2  A    between atoms: C_2  and  C_3
REMARK    3  A    between atoms: N_16  and  C_26
REMARK    4  A    between atoms: C_17  and  C_19
REMARK    5  A    between atoms: C_22  and  O_25
REMARK    6  A    between atoms: C_26  and  C_27
REMARK                            x       y       z     vdW  Elec       q    Type
REMARK                         _______ _______ _______ _____ _____    ______ ____
ROOT
ATOM      1  C   UNL     1      -1.412  -0.526   0.013  0.00  0.00    -0.047 A 
ATOM      2  C   UNL     1      -2.051  -0.766   1.221  0.00  0.00    +0.007 A 
ATOM      3  C   UNL     1      -3.341  -1.246   1.253  0.00  0.00    +0.047 A 
ATOM      4  C   UNL     1      -4.024  -1.495   0.062  0.00  0.00    +0.139 A 
ATOM      5  C   UNL     1      -3.369  -1.242  -1.154  0.00  0.00    +0.065 A 
ATOM      6  C   UNL     1      -2.062  -0.755  -1.168  0.00  0.00    +0.019 A 
ATOM      7  C   UNL     1      -4.093  -1.489  -2.426  0.00  0.00    +0.199 A 
ATOM      8  O   UNL     1      -3.553  -1.459  -3.518  0.00  0.00    -0.287 OA
ATOM      9  C   UNL     1      -5.521  -1.774  -2.244  0.00  0.00    +0.072 A 
ATOM     10  C   UNL     1      -6.041  -1.994  -1.000  0.00  0.00    +0.199 A 
ATOM     11  O   UNL     1      -5.288  -1.972   0.117  0.00  0.00    -0.450 OA
ATOM     12  C   UNL     1      -7.487  -2.241  -1.141  0.00  0.00    +0.283 C 
ATOM     13  O   UNL     1      -8.247  -2.468  -0.221  0.00  0.00    -0.267 OA
ATOM     14  N   UNL     1      -7.843  -2.178  -2.441  0.00  0.00    -0.279 N 
ATOM     15  C   UNL     1      -6.636  -1.882  -3.230  0.00  0.00    +0.145 C 
ENDROOT
BRANCH  15  16
ATOM     16  C   UNL     1      -6.364  -3.001  -4.202  0.00  0.00    -0.022 A 
ATOM     17  C   UNL     1      -6.594  -4.312  -3.827  0.00  0.00    +0.009 A 
ATOM     18  C   UNL     1      -6.345  -5.340  -4.716  0.00  0.00    +0.046 A 
ATOM     19  C   UNL     1      -5.863  -5.056  -5.986  0.00  0.00    +0.117 A 
ATOM     20  C   UNL     1      -5.633  -3.740  -6.360  0.00  0.00    +0.046 A 
ATOM     21  C   UNL     1      -5.889  -2.715  -5.469  0.00  0.00    +0.009 A 
BRANCH  19  22
ATOM     22  O   UNL     1      -5.617  -6.065  -6.862  0.00  0.00    -0.507 OA
ATOM     23  H   UNL     1      -6.374  -6.298  -7.417  0.00  0.00    +0.292 HD
ENDBRANCH  19  22
ENDBRANCH  15  16
BRANCH   1  25
ATOM     24  C   UNL     1      -0.019   1.526   0.010  0.00  0.00    +0.009 C 
ATOM     25  C   UNL     1       0.002  -0.004   0.002  0.00  0.00    +0.032 C 
ENDBRANCH   1  25
BRANCH  14  26
ATOM     26  C   UNL     1      -9.194  -2.371  -2.973  0.00  0.00    +0.144 C 
BRANCH  26  27
ATOM     27  C   UNL     1      -9.910  -1.045  -3.020  0.00  0.00    -0.026 A 
ATOM     28  C   UNL     1     -10.644  -0.619  -1.928  0.00  0.00    +0.009 A 
ATOM     29  C   UNL     1     -11.301   0.597  -1.966  0.00  0.00    +0.050 A 
ATOM     30  C   UNL     1     -11.226   1.391  -3.099  0.00  0.00    +0.166 A 
ATOM     31  C   UNL     1     -10.487   0.961  -4.198  0.00  0.00    +0.167 A 
ATOM     32  C   UNL     1      -9.826  -0.256  -4.151  0.00  0.00    +0.054 A 
ATOM     33  O   UNL     1     -10.568   1.909  -5.177  0.00  0.00    -0.453 OA
ATOM     34  C   UNL     1     -11.695   2.732  -4.821  0.00  0.00    +0.466 C 
ATOM     35  O   UNL     1     -11.771   2.608  -3.389  0.00  0.00    -0.453 OA
ENDBRANCH  26  27
ENDBRANCH  14  26
TORSDOF 5
