REMARK  Name = ZINC35989134
REMARK  12 active torsions:
REMARK  status: ('A' for Active; 'I' for Inactive)
REMARK    1  A    between atoms: C_1  and  C_2
REMARK    2  A    between atoms: C_2  and  O_3
REMARK    3  A    between atoms: O_3  and  C_4
REMARK    4  A    between atoms: C_4  and  C_6
REMARK    5  A    between atoms: C_7  and  C_29
REMARK    6  A    between atoms: C_8  and  C_13
REMARK    7  A    between atoms: C_9  and  C_12
REMARK    8  A    between atoms: C_13  and  C_15
REMARK    9  A    between atoms: C_15  and  N_16
REMARK   10  A    between atoms: N_16  and  C_17
REMARK   11  A    between atoms: N_16  and  S_20
REMARK   12  A    between atoms: S_20  and  C_23
REMARK                            x       y       z     vdW  Elec       q    Type
REMARK                         _______ _______ _______ _____ _____    ______ ____
ROOT
ATOM      1  C   UNL     1      -5.683  -4.838   0.104  0.00  0.00    +0.181 C 
ATOM      2  O   UNL     1      -5.300  -5.989   0.070  0.00  0.00    -0.291 OA
ENDROOT
BRANCH   1   5
ATOM      3  C   UNL     1      -3.220  -2.204   0.715  0.00  0.00    +0.128 A 
ATOM      4  C   UNL     1      -4.019  -3.202   1.189  0.00  0.00    -0.008 A 
ATOM      5  C   UNL     1      -4.710  -3.741   0.078  0.00  0.00    +0.043 A 
ATOM      6  C   UNL     1      -4.294  -3.034  -1.040  0.00  0.00    +0.024 A 
ATOM      7  N   UNL     1      -3.405  -2.110  -0.649  0.00  0.00    -0.352 N 
ATOM      8  H   UNL     1      -2.959  -1.477  -1.233  0.00  0.00    +0.166 HD
ATOM      9  C   UNL     1      -4.765  -3.262  -2.453  0.00  0.00    +0.064 C 
ATOM     10  C   UNL     1      -4.141  -3.647   2.623  0.00  0.00    +0.047 C 
BRANCH   3  11
ATOM     11  C   UNL     1      -2.322  -1.369   1.519  0.00  0.00    +0.356 C 
ATOM     12  O   UNL     1      -2.242  -1.543   2.719  0.00  0.00    -0.243 OA
BRANCH  11  13
ATOM     13  O   UNL     1      -1.586  -0.406   0.926  0.00  0.00    -0.460 OA
BRANCH  13  15
ATOM     14  C   UNL     1       0.017   1.403   0.926  0.00  0.00    +0.048 C 
ATOM     15  C   UNL     1      -0.733   0.370   1.770  0.00  0.00    +0.229 C 
ENDBRANCH  13  15
ENDBRANCH  11  13
ENDBRANCH   3  11
ENDBRANCH   1   5
BRANCH   1  16
ATOM     16  C   UNL     1      -7.157  -4.537   0.172  0.00  0.00    +0.189 C 
BRANCH  16  17
ATOM     17  N   UNL     1      -7.905  -5.787   0.326  0.00  0.00    -0.166 NA
BRANCH  17  18
ATOM     18  C   UNL     1      -8.104  -6.363   1.658  0.00  0.00    +0.080 C 
ATOM     19  C   UNL     1      -7.687  -5.517   2.863  0.00  0.00    +0.022 C 
ATOM     20  C   UNL     1      -6.855  -6.736   2.460  0.00  0.00    +0.022 C 
ENDBRANCH  17  18
BRANCH  17  21
ATOM     21  S   UNL     1      -8.525  -6.550  -1.006  0.00  0.00    +0.061 S 
ATOM     22  O   UNL     1      -9.609  -7.348  -0.550  0.00  0.00    -0.153 OA
ATOM     23  O   UNL     1      -8.681  -5.555  -2.009  0.00  0.00    -0.153 OA
BRANCH  21  24
ATOM     24  C   UNL     1      -7.291  -7.665  -1.590  0.00  0.00    +0.105 A 
ATOM     25  C   UNL     1      -6.358  -7.238  -2.516  0.00  0.00    +0.028 A 
ATOM     26  C   UNL     1      -5.390  -8.113  -2.974  0.00  0.00    +0.002 A 
ATOM     27  C   UNL     1      -5.355  -9.413  -2.506  0.00  0.00    +0.000 A 
ATOM     28  C   UNL     1      -6.288  -9.839  -1.580  0.00  0.00    +0.002 A 
ATOM     29  C   UNL     1      -7.254  -8.963  -1.118  0.00  0.00    +0.028 A 
ENDBRANCH  21  24
ENDBRANCH  17  21
ENDBRANCH  16  17
ENDBRANCH   1  16
TORSDOF 9
