REMARK  Name = ZINC30961127
REMARK  12 active torsions:
REMARK  status: ('A' for Active; 'I' for Inactive)
REMARK    1  A    between atoms: C_1  and  C_2
REMARK    2  A    between atoms: C_2  and  C_3
REMARK    3  A    between atoms: C_2  and  C_4
REMARK    4  A    between atoms: C_4  and  C_6
REMARK    5  A    between atoms: C_4  and  N_28
REMARK    6  A    between atoms: N_8  and  N_9
REMARK    7  A    between atoms: C_10  and  C_11
REMARK    8  A    between atoms: C_14  and  O_17
REMARK    9  A    between atoms: O_17  and  C_18
REMARK   10  A    between atoms: C_18  and  C_19
REMARK   11  A    between atoms: C_22  and  N_25
REMARK   12  A    between atoms: C_29  and  C_31
REMARK                            x       y       z     vdW  Elec       q    Type
REMARK                         _______ _______ _______ _____ _____    ______ ____
ROOT
ATOM      1  C   UNL     1       0.319   1.154   0.706  0.00  0.00    +0.253 C 
ATOM      2  O   UNL     1       0.539  -0.002   0.410  0.00  0.00    -0.272 OA
ATOM      3  N   UNL     1      -0.936   1.640   0.637  0.00  0.00    -0.205 N 
ATOM      4  H   UNL     1      -1.124   2.707   0.827  0.00  0.00    +0.177 HD
ENDROOT
BRANCH   3   5
ATOM      5  N   UNL     1      -2.002   0.786   0.324  0.00  0.00    -0.188 NA
ATOM      6  C   UNL     1      -3.191   1.273   0.138  0.00  0.00    +0.138 C 
BRANCH   6   7
ATOM      7  C   UNL     1      -3.355   2.684  -0.258  0.00  0.00    -0.005 A 
ATOM      8  C   UNL     1      -4.626   3.265  -0.269  0.00  0.00    +0.013 A 
ATOM      9  C   UNL     1      -4.774   4.586  -0.634  0.00  0.00    +0.046 A 
ATOM     10  C   UNL     1      -3.664   5.336  -1.001  0.00  0.00    +0.121 A 
ATOM     11  C   UNL     1      -2.400   4.760  -0.998  0.00  0.00    +0.046 A 
ATOM     12  C   UNL     1      -2.241   3.442  -0.629  0.00  0.00    +0.013 A 
BRANCH  10  13
ATOM     13  O   UNL     1      -3.816   6.636  -1.366  0.00  0.00    -0.487 OA
BRANCH  13  14
ATOM     14  C   UNL     1      -5.144   7.164  -1.347  0.00  0.00    +0.264 C 
BRANCH  14  15
ATOM     15  C   UNL     1      -5.116   8.608  -1.778  0.00  0.00    -0.010 A 
ATOM     16  C   UNL     1      -4.958   9.607  -0.836  0.00  0.00    +0.009 A 
ATOM     17  C   UNL     1      -4.928  10.931  -1.232  0.00  0.00    +0.033 A 
ATOM     18  C   UNL     1      -5.065  11.257  -2.568  0.00  0.00    +0.126 A 
ATOM     19  C   UNL     1      -5.227  10.257  -3.510  0.00  0.00    +0.033 A 
ATOM     20  C   UNL     1      -5.253   8.933  -3.115  0.00  0.00    +0.009 A 
BRANCH  18  21
ATOM     21  N   UNL     1      -5.038  12.675  -2.992  0.00  0.00    +0.056 N 
ATOM     22  O   UNL     1      -5.158  12.961  -4.169  0.00  0.00    -0.126 OA
ATOM     23  O   UNL     1      -4.895  13.555  -2.162  0.00  0.00    -0.126 OA
ENDBRANCH  18  21
ENDBRANCH  14  15
ENDBRANCH  13  14
ENDBRANCH  10  13
ENDBRANCH   6   7
ENDBRANCH   3   5
BRANCH   1  24
ATOM     24  C   UNL     1       1.450   2.048   1.144  0.00  0.00    +0.163 C 
BRANCH  24  25
ATOM     25  N   UNL     1       2.717   1.516   0.636  0.00  0.00    -0.300 N 
ATOM     26  C   UNL     1       3.767   2.340   0.448  0.00  0.00    +0.245 C 
ATOM     27  O   UNL     1       3.662   3.524   0.698  0.00  0.00    -0.270 OA
ATOM     28  H   UNL     1       2.812   0.443   0.410  0.00  0.00    +0.150 HD
BRANCH  26  29
ATOM     29  C   UNL     1       5.046   1.803  -0.064  0.00  0.00    +0.038 A 
ATOM     30  C   UNL     1       6.135   2.654  -0.261  0.00  0.00    +0.013 A 
ATOM     31  C   UNL     1       7.326   2.147  -0.738  0.00  0.00    +0.002 A 
ATOM     32  C   UNL     1       7.443   0.798  -1.022  0.00  0.00    +0.020 A 
ATOM     33  C   UNL     1       6.367  -0.052  -0.829  0.00  0.00    +0.042 A 
ATOM     34  C   UNL     1       5.171   0.442  -0.347  0.00  0.00    +0.033 A 
ATOM     35 CL   UNL     1       6.525  -1.744  -1.187  0.00  0.00    -0.084 Cl
ENDBRANCH  26  29
ENDBRANCH  24  25
BRANCH  24  37
ATOM     36  C   UNL     1       0.226   2.776   3.196  0.00  0.00    +0.009 C 
ATOM     37  C   UNL     1       1.495   2.102   2.672  0.00  0.00    +0.012 C 
ATOM     38  C   UNL     1       1.585   0.680   3.230  0.00  0.00    +0.009 C 
ENDBRANCH  24  37
ENDBRANCH   1  24
TORSDOF 10
