REMARK  Name = ZINC22688738
REMARK  9 active torsions:
REMARK  status: ('A' for Active; 'I' for Inactive)
REMARK    1  A    between atoms: C_1  and  C_2
REMARK    2  A    between atoms: C_2  and  C_4
REMARK    3  A    between atoms: C_2  and  O_27
REMARK    4  A    between atoms: N_6  and  N_7
REMARK    5  A    between atoms: C_8  and  C_10
REMARK    6  A    between atoms: C_15  and  N_16
REMARK    7  A    between atoms: N_16  and  S_17
REMARK    8  A    between atoms: S_17  and  C_20
REMARK    9  A    between atoms: O_27  and  C_28
REMARK                            x       y       z     vdW  Elec       q    Type
REMARK                         _______ _______ _______ _____ _____    ______ ____
ROOT
ATOM      1  N   UNL     1      -1.126   7.401   1.476  0.00  0.00    -0.230 N 
ATOM      2  C   UNL     1      -2.231   8.172   1.509  0.00  0.00    +0.262 C 
ATOM      3  O   UNL     1      -3.290   7.735   1.104  0.00  0.00    -0.269 OA
ATOM      4  H   UNL     1      -0.167   7.796   1.843  0.00  0.00    +0.173 HD
ENDROOT
BRANCH   2   5
ATOM      5  C   UNL     1      -2.154   9.546   2.038  0.00  0.00    +0.060 A 
ATOM      6  C   UNL     1      -0.939  10.051   2.511  0.00  0.00    +0.015 A 
ATOM      7  C   UNL     1      -0.873  11.338   2.999  0.00  0.00    +0.001 A 
ATOM      8  C   UNL     1      -2.008  12.133   3.034  0.00  0.00    +0.002 A 
ATOM      9  C   UNL     1      -3.216  11.647   2.576  0.00  0.00    +0.025 A 
ATOM     10  C   UNL     1      -3.301  10.354   2.075  0.00  0.00    +0.060 A 
BRANCH  10  11
ATOM     11  N   UNL     1      -4.516   9.863   1.615  0.00  0.00    -0.216 N 
ATOM     12  H   UNL     1      -4.775   8.805   1.769  0.00  0.00    +0.174 HD
BRANCH  11  13
ATOM     13  S   UNL     1      -5.573  10.869   0.834  0.00  0.00    +0.072 S 
ATOM     14  O   UNL     1      -6.648  10.057   0.381  0.00  0.00    -0.150 OA
ATOM     15  O   UNL     1      -5.771  11.990   1.685  0.00  0.00    -0.150 OA
BRANCH  13  16
ATOM     16  C   UNL     1      -4.754  11.470  -0.606  0.00  0.00    +0.109 A 
ATOM     17  C   UNL     1      -4.016  12.637  -0.545  0.00  0.00    +0.031 A 
ATOM     18  C   UNL     1      -3.369  13.106  -1.673  0.00  0.00    +0.040 A 
ATOM     19  C   UNL     1      -3.469  12.412  -2.866  0.00  0.00    +0.124 A 
ATOM     20  C   UNL     1      -4.213  11.246  -2.928  0.00  0.00    +0.040 A 
ATOM     21  C   UNL     1      -4.854  10.776  -1.798  0.00  0.00    +0.031 A 
ATOM     22  F   UNL     1      -2.841  12.873  -3.970  0.00  0.00    -0.205 F 
ENDBRANCH  13  16
ENDBRANCH  11  13
ENDBRANCH  10  11
ENDBRANCH   2   5
BRANCH   1  25
ATOM     23  C   UNL     1      -0.095   5.323   0.939  0.00  0.00    +0.270 C 
ATOM     24  O   UNL     1       0.962   5.759   1.344  0.00  0.00    -0.270 OA
ATOM     25  N   UNL     1      -1.199   6.095   0.973  0.00  0.00    -0.231 N 
ATOM     26  H   UNL     1      -2.158   5.700   0.606  0.00  0.00    +0.173 HD
BRANCH  23  28
ATOM     27  C   UNL     1      -0.520   3.964  -1.091  0.00  0.00    +0.062 C 
ATOM     28  C   UNL     1      -0.173   3.919   0.399  0.00  0.00    +0.257 C 
BRANCH  28  29
ATOM     29  O   UNL     1       1.088   3.269   0.575  0.00  0.00    -0.477 OA
BRANCH  29  30
ATOM     30  C   UNL     1       1.083   1.910   0.610  0.00  0.00    +0.157 A 
ATOM     31  C   UNL     1      -0.118   1.219   0.561  0.00  0.00    +0.048 A 
ATOM     32  C   UNL     1      -0.121  -0.163   0.597  0.00  0.00    +0.004 A 
ATOM     33  C   UNL     1       1.072  -0.856   0.682  0.00  0.00    +0.003 A 
ATOM     34  C   UNL     1       2.271  -0.171   0.730  0.00  0.00    +0.042 A 
ATOM     35  C   UNL     1       2.280   1.212   0.694  0.00  0.00    +0.165 A 
ATOM     36  F   UNL     1       3.452   1.882   0.742  0.00  0.00    -0.202 F 
ENDBRANCH  29  30
ENDBRANCH  28  29
ENDBRANCH  23  28
ENDBRANCH   1  25
TORSDOF 8
