REMARK  Name = ZINC08384599
REMARK  7 active torsions:
REMARK  status: ('A' for Active; 'I' for Inactive)
REMARK    1  A    between atoms: C_4  and  C_7
REMARK    2  A    between atoms: C_8  and  C_9
REMARK    3  A    between atoms: C_8  and  N_26
REMARK    4  A    between atoms: N_11  and  N_12
REMARK    5  A    between atoms: C_13  and  C_14
REMARK    6  A    between atoms: C_17  and  C_19
REMARK    7  A    between atoms: C_27  and  C_29
REMARK                            x       y       z     vdW  Elec       q    Type
REMARK                         _______ _______ _______ _____ _____    ______ ____
ROOT
ATOM      1  C   UNL     1      -2.267  -0.289   0.466  0.00  0.00    +0.036 C 
ATOM      2  C   UNL     1      -2.461   0.983   0.045  0.00  0.00    +0.098 C 
ENDROOT
BRANCH   1   6
ATOM      3  C   UNL     1      -5.523  -2.537   1.994  0.00  0.00    +0.000 A 
ATOM      4  C   UNL     1      -4.487  -3.182   1.341  0.00  0.00    +0.001 A 
ATOM      5  C   UNL     1      -3.425  -2.458   0.841  0.00  0.00    +0.008 A 
ATOM      6  C   UNL     1      -3.396  -1.069   0.996  0.00  0.00    -0.023 A 
ATOM      7  C   UNL     1      -4.444  -0.425   1.663  0.00  0.00    +0.008 A 
ATOM      8  C   UNL     1      -5.501  -1.162   2.152  0.00  0.00    +0.001 A 
ENDBRANCH   1   6
BRANCH   2   9
ATOM      9  C   UNL     1      -3.819   1.543  -0.000  0.00  0.00    +0.277 C 
ATOM     10  O   UNL     1      -4.125   2.457   0.743  0.00  0.00    -0.267 OA
ATOM     11  N   UNL     1      -4.725   1.044  -0.864  0.00  0.00    -0.202 N 
ATOM     12  H   UNL     1      -4.505   0.270  -1.405  0.00  0.00    +0.178 HD
BRANCH  11  13
ATOM     13  N   UNL     1      -5.986   1.644  -0.980  0.00  0.00    -0.184 NA
ATOM     14  C   UNL     1      -6.896   1.105  -1.741  0.00  0.00    +0.176 C 
BRANCH  14  15
ATOM     15  C   UNL     1      -8.174   1.788  -1.949  0.00  0.00    +0.148 A 
ATOM     16  C   UNL     1      -9.215   1.335  -2.729  0.00  0.00    +0.051 A 
ATOM     17  C   UNL     1     -10.233   2.294  -2.641  0.00  0.00    +0.050 A 
ATOM     18  C   UNL     1      -9.777   3.288  -1.827  0.00  0.00    +0.136 A 
ATOM     19  O   UNL     1      -8.534   2.973  -1.415  0.00  0.00    -0.454 OA
BRANCH  18  20
ATOM     20  C   UNL     1     -10.522   4.508  -1.458  0.00  0.00    +0.017 A 
ATOM     21  C   UNL     1     -11.808   4.723  -1.959  0.00  0.00    +0.012 A 
ATOM     22  C   UNL     1     -12.501   5.862  -1.607  0.00  0.00    +0.016 A 
ATOM     23  C   UNL     1     -11.920   6.798  -0.767  0.00  0.00    +0.018 A 
ATOM     24  C   UNL     1     -10.643   6.593  -0.271  0.00  0.00    +0.016 A 
ATOM     25  C   UNL     1      -9.942   5.456  -0.612  0.00  0.00    +0.012 A 
ATOM     26 BR   UNL     1     -12.874   8.361  -0.295  0.00  0.00    -0.050 Br
ENDBRANCH  18  20
ENDBRANCH  14  15
ENDBRANCH  11  13
ENDBRANCH   2   9
BRANCH   2  27
ATOM     27  N   UNL     1      -1.370   1.762  -0.348  0.00  0.00    -0.277 N 
ATOM     28  C   UNL     1      -1.572   2.985  -0.879  0.00  0.00    +0.248 C 
ATOM     29  O   UNL     1      -2.703   3.377  -1.089  0.00  0.00    -0.270 OA
ATOM     30  H   UNL     1      -0.467   1.424  -0.239  0.00  0.00    +0.155 HD
BRANCH  28  31
ATOM     31  C   UNL     1      -0.418   3.850  -1.202  0.00  0.00    +0.037 A 
ATOM     32  C   UNL     1       0.882   3.405  -0.957  0.00  0.00    +0.013 A 
ATOM     33  C   UNL     1       1.955   4.216  -1.264  0.00  0.00    +0.001 A 
ATOM     34  C   UNL     1       1.744   5.472  -1.805  0.00  0.00    +0.000 A 
ATOM     35  C   UNL     1       0.458   5.922  -2.044  0.00  0.00    +0.001 A 
ATOM     36  C   UNL     1      -0.624   5.119  -1.746  0.00  0.00    +0.013 A 
ENDBRANCH  28  31
ENDBRANCH   2  27
TORSDOF 7
