REMARK  Name = ZINC12885440
REMARK  6 active torsions:
REMARK  status: ('A' for Active; 'I' for Inactive)
REMARK    1  A    between atoms: C_1  and  C_2
REMARK    2  A    between atoms: C_16  and  C_18
REMARK    3  A    between atoms: C_18  and  C_19
REMARK    4  A    between atoms: C_22  and  O_25
REMARK    5  A    between atoms: N_28  and  C_31
REMARK    6  A    between atoms: C_31  and  C_32
REMARK                            x       y       z     vdW  Elec       q    Type
REMARK                         _______ _______ _______ _____ _____    ______ ____
ROOT
ATOM      1  C   UNL     1       5.438  -0.566  -1.281  0.00  0.00    +0.045 C 
ATOM      2  C   UNL     1       4.417  -0.319  -0.201  0.00  0.00    -0.029 A 
ATOM      3  C   UNL     1       4.550  -0.937   1.026  0.00  0.00    +0.005 A 
ATOM      4  C   UNL     1       3.618  -0.717   2.023  0.00  0.00    +0.001 A 
ATOM      5  C   UNL     1       2.547   0.128   1.791  0.00  0.00    +0.004 A 
ATOM      6  C   UNL     1       2.410   0.745   0.568  0.00  0.00    -0.027 A 
ATOM      7  C   UNL     1       3.342   0.532  -0.444  0.00  0.00    +0.039 A 
ATOM      8  N   UNL     1       2.995   1.264  -1.582  0.00  0.00    -0.286 N 
ATOM      9  C   UNL     1       1.864   1.974  -1.403  0.00  0.00    +0.211 C 
ATOM     10  O   UNL     1       1.327   2.697  -2.216  0.00  0.00    -0.277 OA
ATOM     11  C   UNL     1       1.395   1.695  -0.002  0.00  0.00    +0.050 C 
ATOM     12  C   UNL     1      -0.013   1.086   0.008  0.00  0.00    +0.088 C 
ATOM     13  C   UNL     1      -0.683   1.673   1.281  0.00  0.00    +0.073 C 
ATOM     14  C   UNL     1       0.396   2.577   1.916  0.00  0.00    -0.053 C 
ATOM     15  C   UNL     1      -1.803   2.523   0.726  0.00  0.00    +0.224 C 
ATOM     16  O   UNL     1      -2.582   3.175   1.387  0.00  0.00    -0.275 OA
ATOM     17  N   UNL     1      -1.800   2.444  -0.610  0.00  0.00    -0.237 N 
ATOM     18  C   UNL     1      -0.825   1.664  -1.129  0.00  0.00    +0.225 C 
ATOM     19  O   UNL     1      -0.630   1.452  -2.307  0.00  0.00    -0.275 OA
ATOM     20  H   UNL     1       3.508   1.260  -2.405  0.00  0.00    +0.155 HD
ATOM     21  N   UNL     1       1.288   2.900   0.801  0.00  0.00    +0.394 N 
ATOM     22  H   UNL     1       0.894   3.666   0.241  0.00  0.00    -0.083 HD
ATOM     23  H   UNL     1       2.212   3.175   1.154  0.00  0.00    -0.083 HD
ENDROOT
BRANCH  14  24
ATOM     24  C   UNL     1      -0.242   3.837   2.505  0.00  0.00    +0.020 C 
BRANCH  24  25
ATOM     25  C   UNL     1       0.822   4.678   3.161  0.00  0.00    -0.049 A 
ATOM     26  C   UNL     1       1.123   4.492   4.497  0.00  0.00    +0.007 A 
ATOM     27  C   UNL     1       2.103   5.258   5.100  0.00  0.00    +0.045 A 
ATOM     28  C   UNL     1       2.776   6.223   4.365  0.00  0.00    +0.117 A 
ATOM     29  C   UNL     1       2.468   6.413   3.026  0.00  0.00    +0.045 A 
ATOM     30  C   UNL     1       1.492   5.640   2.427  0.00  0.00    +0.007 A 
BRANCH  28  31
ATOM     31  O   UNL     1       3.735   6.983   4.957  0.00  0.00    -0.507 OA
ATOM     32  H   UNL     1       3.401   7.799   5.353  0.00  0.00    +0.292 HD
ENDBRANCH  28  31
ENDBRANCH  24  25
ENDBRANCH  14  24
BRANCH  17  33
ATOM     33  C   UNL     1      -2.769   3.156  -1.448  0.00  0.00    +0.151 C 
BRANCH  33  34
ATOM     34  C   UNL     1      -2.226   4.517  -1.798  0.00  0.00    -0.026 A 
ATOM     35  C   UNL     1      -2.495   5.599  -0.980  0.00  0.00    +0.009 A 
ATOM     36  C   UNL     1      -1.995   6.848  -1.296  0.00  0.00    +0.050 A 
ATOM     37  C   UNL     1      -1.231   7.022  -2.438  0.00  0.00    +0.166 A 
ATOM     38  C   UNL     1      -0.965   5.933  -3.265  0.00  0.00    +0.167 A 
ATOM     39  C   UNL     1      -1.465   4.683  -2.940  0.00  0.00    +0.054 A 
ATOM     40  O   UNL     1      -0.202   6.359  -4.314  0.00  0.00    -0.453 OA
ATOM     41  C   UNL     1       0.337   7.630  -3.907  0.00  0.00    +0.466 C 
ATOM     42  O   UNL     1      -0.635   8.129  -2.969  0.00  0.00    -0.453 OA
ENDBRANCH  33  34
ENDBRANCH  17  33
TORSDOF 5
