REMARK  Name = ZINC38999184
REMARK  6 active torsions:
REMARK  status: ('A' for Active; 'I' for Inactive)
REMARK    1  A    between atoms: C_6  and  C_7
REMARK    2  A    between atoms: C_7  and  S_8
REMARK    3  A    between atoms: S_8  and  C_9
REMARK    4  A    between atoms: C_14  and  C_16
REMARK    5  A    between atoms: C_18  and  N_34
REMARK    6  A    between atoms: C_23  and  C_28
REMARK                            x       y       z     vdW  Elec       q    Type
REMARK                         _______ _______ _______ _____ _____    ______ ____
ROOT
ATOM      1  C   UNL     1      -8.819  -5.245  -1.111  0.00  0.00    +0.155 C 
ATOM      2  C   UNL     1      -9.862  -4.993   0.003  0.00  0.00    +0.102 C 
ATOM      3  C   UNL     1     -10.563  -6.226   0.483  0.00  0.00    -0.021 C 
ATOM      4  C   UNL     1     -11.394  -6.306   1.537  0.00  0.00    +0.005 C 
ATOM      5  C   UNL     1     -11.894  -7.628   1.926  0.00  0.00    +0.023 C 
ATOM      6  C   UNL     1     -11.293  -8.747   1.447  0.00  0.00    +0.035 C 
ATOM      7  N   UNL     1     -10.208  -8.610   0.569  0.00  0.00    -0.328 N 
ATOM      8  C   UNL     1     -10.251  -7.472  -0.353  0.00  0.00    +0.157 C 
ATOM      9  S   UNL     1      -8.556  -7.067  -0.947  0.00  0.00    -0.119 S 
ATOM     10  H   UNL     1      -9.467  -9.236   0.573  0.00  0.00    +0.147 HD
ENDROOT
BRANCH   1  16
ATOM     11  C   UNL     1      -3.335  -1.973  -1.518  0.00  0.00    +0.160 A 
ATOM     12  N   UNL     1      -3.972  -2.358  -0.422  0.00  0.00    -0.133 NA
ATOM     13  N   UNL     1      -5.055  -3.003  -0.473  0.00  0.00    -0.125 NA
ATOM     14  C   UNL     1      -5.621  -3.335  -1.621  0.00  0.00    +0.189 A 
ATOM     15  N   UNL     1      -6.798  -4.036  -1.870  0.00  0.00    -0.262 N 
ATOM     16  C   UNL     1      -7.544  -4.486  -0.842  0.00  0.00    +0.234 C 
ATOM     17  O   UNL     1      -7.190  -4.281   0.300  0.00  0.00    -0.274 OA
ATOM     18  S   UNL     1      -4.444  -2.620  -2.766  0.00  0.00    -0.024 S 
ATOM     19  H   UNL     1      -7.082  -4.200  -2.783  0.00  0.00    +0.157 HD
BRANCH  11  20
ATOM     20  S   UNL     1      -1.829  -1.075  -1.696  0.00  0.00    -0.092 S 
BRANCH  20  21
ATOM     21  C   UNL     1      -1.293  -0.775   0.011  0.00  0.00    +0.111 C 
BRANCH  21  27
ATOM     22  C   UNL     1      -0.017   1.378   0.010  0.00  0.00    +0.006 A 
ATOM     23  C   UNL     1       1.171   2.086   0.002  0.00  0.00    +0.020 A 
ATOM     24  C   UNL     1       2.378   1.410  -0.013  0.00  0.00    +0.041 A 
ATOM     25  C   UNL     1       2.396   0.027  -0.021  0.00  0.00    +0.020 A 
ATOM     26  C   UNL     1       1.208  -0.679  -0.013  0.00  0.00    +0.006 A 
ATOM     27  C   UNL     1       0.002  -0.004   0.002  0.00  0.00    -0.037 A 
ATOM     28 CL   UNL     1       3.870   2.298  -0.023  0.00  0.00    -0.084 Cl
ENDBRANCH  21  27
ENDBRANCH  20  21
ENDBRANCH  11  20
ENDBRANCH   1  16
BRANCH   6  29
ATOM     29  C   UNL     1     -11.774 -10.086   1.843  0.00  0.00    -0.001 A 
ATOM     30  C   UNL     1     -11.156 -11.246   1.358  0.00  0.00    +0.027 A 
ATOM     31  C   UNL     1     -11.638 -12.476   1.755  0.00  0.00    +0.083 A 
ATOM     32  N   UNL     1     -12.665 -12.568   2.578  0.00  0.00    -0.367 N 
ATOM     33  C   UNL     1     -13.276 -11.502   3.058  0.00  0.00    +0.083 A 
ATOM     34  C   UNL     1     -12.857 -10.232   2.720  0.00  0.00    +0.027 A 
ATOM     35  H   UNL     1     -12.980 -13.447   2.839  0.00  0.00    +0.165 HD
ENDBRANCH   6  29
BRANCH   2  36
ATOM     36  N   UNL     1     -10.872  -4.056  -0.507  0.00  0.00    -0.323 NA
ATOM     37  H   UNL     1     -11.574  -3.865   0.193  0.00  0.00    +0.119 HD
ATOM     38  H   UNL     1     -10.442  -3.202  -0.830  0.00  0.00    +0.119 HD
ENDBRANCH   2  36
TORSDOF 6
