REMARK  Name = ZINC15678263
REMARK  8 active torsions:
REMARK  status: ('A' for Active; 'I' for Inactive)
REMARK    1  A    between atoms: C_1  and  C_2
REMARK    2  A    between atoms: C_8  and  C_9
REMARK    3  A    between atoms: C_8  and  N_78
REMARK    4  A    between atoms: C_9  and  N_10
REMARK    5  A    between atoms: C_16  and  C_32
REMARK    6  A    between atoms: C_19  and  C_20
REMARK    7  A    between atoms: C_19  and  C_21
REMARK    8  A    between atoms: N_23  and  C_24
REMARK                            x       y       z     vdW  Elec       q    Type
REMARK                         _______ _______ _______ _____ _____    ______ ____
ROOT
ATOM      1  N   UNL     1      -0.779   5.571  -0.192  0.00  0.00    -0.282 N 
ATOM      2  C   UNL     1      -1.488   4.437   0.018  0.00  0.00    +0.264 C 
ATOM      3  O   UNL     1      -2.693   4.458   0.192  0.00  0.00    -0.268 OA
ATOM      4  C   UNL     1      -0.728   3.183   0.024  0.00  0.00    +0.105 A 
ATOM      5  C   UNL     1      -1.151   1.883   0.017  0.00  0.00    +0.033 A 
ATOM      6  C   UNL     1      -0.013   1.076   0.008  0.00  0.00    +0.032 A 
ATOM      7  C   UNL     1       1.096   1.908   0.002  0.00  0.00    +0.085 A 
ATOM      8  N   UNL     1       0.662   3.192   0.020  0.00  0.00    -0.331 N 
ATOM      9  C   UNL     1       1.423   4.445   0.047  0.00  0.00    +0.157 C 
ATOM     10  C   UNL     1       0.609   5.542  -0.639  0.00  0.00    +0.128 C 
ATOM     11  C   UNL     1       1.254   6.896  -0.338  0.00  0.00    +0.043 C 
ENDROOT
BRANCH   7  12
ATOM     12  C   UNL     1       2.500   1.473  -0.020  0.00  0.00    +0.151 A 
ATOM     13  C   UNL     1       2.938   0.186  -0.129  0.00  0.00    +0.051 A 
ATOM     14  C   UNL     1       4.344   0.235  -0.112  0.00  0.00    +0.042 A 
ATOM     15  C   UNL     1       4.694   1.532   0.014  0.00  0.00    +0.196 A 
ATOM     16  O   UNL     1       3.579   2.276   0.069  0.00  0.00    -0.461 OA
ENDBRANCH   7  12
BRANCH  10  17
ATOM     17  C   UNL     1       0.636   5.310  -2.128  0.00  0.00    +0.238 C 
ATOM     18  O   UNL     1       1.489   5.838  -2.808  0.00  0.00    -0.273 OA
ATOM     19  N   UNL     1      -0.289   4.516  -2.703  0.00  0.00    -0.311 N 
ATOM     20  H   UNL     1      -0.971   4.093  -2.159  0.00  0.00    +0.149 HD
BRANCH  19  21
ATOM     21  C   UNL     1      -0.262   4.291  -4.151  0.00  0.00    +0.073 C 
ATOM     22  C   UNL     1      -1.010   5.424  -4.856  0.00  0.00    +0.022 C 
ATOM     23  C   UNL     1      -0.655   5.419  -6.345  0.00  0.00    +0.002 C 
ATOM     24  C   UNL     1       0.853   5.220  -6.510  0.00  0.00    +0.000 C 
ATOM     25  C   UNL     1       1.119   3.861  -7.162  0.00  0.00    +0.000 C 
ATOM     26  C   UNL     1       0.923   2.753  -6.126  0.00  0.00    +0.000 C 
ATOM     27  C   UNL     1      -0.572   2.529  -5.894  0.00  0.00    +0.002 C 
ATOM     28  C   UNL     1      -0.939   2.956  -4.472  0.00  0.00    +0.022 C 
ENDBRANCH  19  21
ENDBRANCH  10  17
BRANCH   1  29
ATOM     29  C   UNL     1      -1.424   6.866   0.038  0.00  0.00    +0.091 C 
BRANCH  29  30
ATOM     30  C   UNL     1      -1.208   7.294   1.490  0.00  0.00    -0.059 C 
BRANCH  30  37
ATOM     31  C   UNL     1      -0.453   8.849   3.711  0.00  0.00    -0.013 C 
ATOM     32  C   UNL     1      -1.874   8.925   3.151  0.00  0.00    -0.072 C 
ATOM     33  C   UNL     1      -2.421  10.342   3.339  0.00  0.00    -0.016 C 
ATOM     34  C   UNL     1      -3.836  10.419   2.759  0.00  0.00    -0.003 C 
ATOM     35  C   UNL     1      -3.795  10.021   1.280  0.00  0.00    -0.019 C 
ATOM     36  C   UNL     1      -3.208   8.614   1.152  0.00  0.00    -0.078 C 
ATOM     37  N   UNL     1      -1.838   8.613   1.706  0.00  0.00    +0.382 N 
ATOM     38  H   UNL     1      -1.284   9.330   1.224  0.00  0.00    -0.081 HD
ENDBRANCH  30  37
ENDBRANCH  29  30
ENDBRANCH   1  29
TORSDOF 6
