REMARK  Name = ZINC41918666
REMARK  7 active torsions:
REMARK  status: ('A' for Active; 'I' for Inactive)
REMARK    1  A    between atoms: C_1  and  C_2
REMARK    2  A    between atoms: C_2  and  C_3
REMARK    3  A    between atoms: C_4  and  C_20
REMARK    4  A    between atoms: N_6  and  C_9
REMARK    5  A    between atoms: C_7  and  C_8
REMARK    6  A    between atoms: C_9  and  C_17
REMARK    7  A    between atoms: C_14  and  C_16
REMARK                            x       y       z     vdW  Elec       q    Type
REMARK                         _______ _______ _______ _____ _____    ______ ____
ROOT
ATOM      1  C   UNL     1       1.350  -1.633   4.653  0.00  0.00    +0.166 C 
ATOM      2  C   UNL     1       0.953  -0.458   5.549  0.00  0.00    +0.042 C 
ATOM      3  C   UNL     1       1.932   0.698   5.337  0.00  0.00    +0.003 C 
ATOM      4  C   UNL     1       3.348   0.240   5.694  0.00  0.00    +0.000 C 
ATOM      5  C   UNL     1       3.745  -0.935   4.798  0.00  0.00    +0.006 C 
ATOM      6  C   UNL     1       2.765  -2.092   5.010  0.00  0.00    +0.025 C 
ATOM      7  C   UNL     1       3.162  -3.267   4.114  0.00  0.00    +0.010 C 
ENDROOT
BRANCH   1  11
ATOM      8  C   UNL     1       0.601  -0.521   1.306  0.00  0.00    -0.004 A 
ATOM      9  C   UNL     1       1.983  -0.720   1.218  0.00  0.00    +0.063 A 
ATOM     10  N   UNL     1       2.410  -1.134   2.384  0.00  0.00    -0.175 NA
ATOM     11  N   UNL     1       1.313  -1.212   3.250  0.00  0.00    -0.251 N 
ATOM     12  C   UNL     1       0.215  -0.826   2.566  0.00  0.00    +0.041 A 
ATOM     13  C   UNL     1      -1.189  -0.751   3.108  0.00  0.00    +0.065 C 
ATOM     14  C   UNL     1       2.832  -0.495  -0.006  0.00  0.00    +0.068 C 
BRANCH   8  16
ATOM     15  C   UNL     1      -0.374   1.482   0.217  0.00  0.00    +0.009 C 
ATOM     16  C   UNL     1      -0.298  -0.046   0.194  0.00  0.00    +0.035 C 
ENDBRANCH   8  16
ENDBRANCH   1  11
BRANCH   1  17
ATOM     17  C   UNL     1       0.386  -2.772   4.861  0.00  0.00    +0.383 C 
ATOM     18  O   UNL     1      -0.272  -3.193   3.925  0.00  0.00    -0.244 OA
ATOM     19  O   UNL     1       0.263  -3.273   5.966  0.00  0.00    -0.244 OA
ENDBRANCH   1  17
TORSDOF 3
