REMARK  Name = ZINC11617268
REMARK  13 active torsions:
REMARK  status: ('A' for Active; 'I' for Inactive)
REMARK    1  A    between atoms: C_1  and  C_2
REMARK    2  A    between atoms: C_6  and  C_29
REMARK    3  A    between atoms: C_8  and  O_11
REMARK    4  A    between atoms: O_11  and  P_12
REMARK    5  A    between atoms: P_12  and  N_14
REMARK    6  A    between atoms: P_12  and  O_15
REMARK    7  A    between atoms: O_15  and  C_16
REMARK    8  A    between atoms: C_19  and  C_28
REMARK    9  A    between atoms: C_23  and  C_25
REMARK   10  A    between atoms: C_25  and  C_26
REMARK   11  A    between atoms: C_25  and  C_27
REMARK   12  A    between atoms: C_29  and  C_30
REMARK   13  A    between atoms: C_29  and  C_31
REMARK                            x       y       z     vdW  Elec       q    Type
REMARK                         _______ _______ _______ _____ _____    ______ ____
ROOT
ATOM      1  P   UNL     1      -1.905   1.195  -1.363  0.00  0.00    +0.406 P 
ATOM      2  O   UNL     1      -2.895   0.347  -0.662  0.00  0.00    -0.240 OA
ENDROOT
BRANCH   1   3
ATOM      3  N   UNL     1      -1.277   0.354  -2.678  0.00  0.00    -0.236 NA
ATOM      4  H   UNL     1      -2.005   0.112  -3.334  0.00  0.00    +0.130 HD
ATOM      5  H   UNL     1      -0.545   0.882  -3.130  0.00  0.00    +0.130 HD
ENDBRANCH   1   3
BRANCH   1   6
ATOM      6  O   UNL     1      -2.622   2.541  -1.879  0.00  0.00    -0.293 OA
BRANCH   6  12
ATOM      7  C   UNL     1      -7.328   3.857  -1.355  0.00  0.00    +0.007 C 
ATOM      8  C   UNL     1      -6.298   3.204  -2.279  0.00  0.00    -0.012 C 
ATOM      9  C   UNL     1      -6.211   3.996  -3.585  0.00  0.00    +0.004 C 
ATOM     10  C   UNL     1      -5.181   3.344  -4.510  0.00  0.00    +0.006 C 
ATOM     11  C   UNL     1      -3.813   3.338  -3.825  0.00  0.00    +0.021 C 
ATOM     12  C   UNL     1      -3.900   2.546  -2.519  0.00  0.00    +0.133 C 
ATOM     13  C   UNL     1      -4.930   3.199  -1.594  0.00  0.00    +0.035 C 
BRANCH  11  14
ATOM     14  C   UNL     1      -2.783   2.686  -4.749  0.00  0.00    -0.012 C 
ATOM     15  C   UNL     1      -3.285   1.306  -5.179  0.00  0.00    +0.007 C 
ATOM     16  C   UNL     1      -2.580   3.563  -5.986  0.00  0.00    +0.007 C 
ENDBRANCH  11  14
ENDBRANCH   6  12
ENDBRANCH   1   6
BRANCH   1  17
ATOM     17  O   UNL     1      -0.713   1.576  -0.351  0.00  0.00    -0.293 OA
BRANCH  17  18
ATOM     18  C   UNL     1      -0.097   0.625   0.520  0.00  0.00    +0.133 C 
ATOM     19  C   UNL     1      -0.324   1.044   1.974  0.00  0.00    +0.035 C 
ATOM     20  C   UNL     1       0.293   2.424   2.210  0.00  0.00    -0.012 C 
ATOM     21  C   UNL     1       1.794   2.368   1.923  0.00  0.00    +0.004 C 
ATOM     22  C   UNL     1       2.021   1.949   0.469  0.00  0.00    +0.006 C 
ATOM     23  C   UNL     1       1.405   0.568   0.234  0.00  0.00    +0.021 C 
ATOM     24  C   UNL     1       0.066   2.843   3.664  0.00  0.00    +0.007 C 
BRANCH  23  25
ATOM     25  C   UNL     1       1.631   0.150  -1.220  0.00  0.00    -0.012 C 
ATOM     26  C   UNL     1       3.130   0.170  -1.529  0.00  0.00    +0.007 C 
ATOM     27  C   UNL     1       1.085  -1.263  -1.435  0.00  0.00    +0.007 C 
ENDBRANCH  23  25
ENDBRANCH  17  18
ENDBRANCH   1  17
TORSDOF 7
