REMARK  Name = ZINC09191826
REMARK  8 active torsions:
REMARK  status: ('A' for Active; 'I' for Inactive)
REMARK    1  A    between atoms: C_1  and  C_2
REMARK    2  A    between atoms: C_5  and  N_9
REMARK    3  A    between atoms: C_6  and  C_8
REMARK    4  A    between atoms: N_9  and  S_10
REMARK    5  A    between atoms: S_10  and  C_13
REMARK    6  A    between atoms: C_16  and  N_19
REMARK    7  A    between atoms: C_20  and  C_22
REMARK    8  A    between atoms: C_22  and  N_23
REMARK                            x       y       z     vdW  Elec       q    Type
REMARK                         _______ _______ _______ _____ _____    ______ ____
ROOT
ATOM      1  C   UNL     1       1.485   2.874   1.293  0.00  0.00    +0.109 A 
ATOM      2  C   UNL     1       0.972   4.155   1.200  0.00  0.00    +0.030 A 
ATOM      3  C   UNL     1       1.036   5.006   2.285  0.00  0.00    +0.025 A 
ATOM      4  C   UNL     1       1.627   4.579   3.467  0.00  0.00    +0.034 A 
ATOM      5  C   UNL     1       2.146   3.295   3.555  0.00  0.00    +0.025 A 
ATOM      6  C   UNL     1       2.074   2.446   2.468  0.00  0.00    +0.030 A 
ENDROOT
BRANCH   4   7
ATOM      7  N   UNL     1       1.698   5.442   4.566  0.00  0.00    -0.284 N 
ATOM      8  C   UNL     1       2.768   5.403   5.385  0.00  0.00    +0.237 C 
ATOM      9  O   UNL     1       3.629   4.565   5.218  0.00  0.00    -0.274 OA
ATOM     10  H   UNL     1       0.978   6.068   4.739  0.00  0.00    +0.155 HD
BRANCH   8  11
ATOM     11  C   UNL     1       2.896   6.401   6.507  0.00  0.00    +0.221 C 
BRANCH  11  12
ATOM     12  N   UNL     1       4.136   6.150   7.245  0.00  0.00    -0.293 N 
ATOM     13  C   UNL     1       5.304   6.783   6.857  0.00  0.00    +0.060 A 
ATOM     14  C   UNL     1       5.481   7.684   5.794  0.00  0.00    +0.027 A 
ATOM     15  C   UNL     1       6.713   8.233   5.531  0.00  0.00    +0.002 A 
ATOM     16  C   UNL     1       7.819   7.919   6.303  0.00  0.00    +0.001 A 
ATOM     17  C   UNL     1       7.675   7.035   7.358  0.00  0.00    +0.017 A 
ATOM     18  C   UNL     1       6.443   6.485   7.620  0.00  0.00    +0.041 A 
ATOM     19  S   UNL     1       5.829   5.343   8.834  0.00  0.00    -0.027 S 
ATOM     20  C   UNL     1       4.126   5.310   8.299  0.00  0.00    +0.292 A 
ATOM     21  O   UNL     1       3.192   4.685   8.767  0.00  0.00    -0.259 OA
ENDBRANCH  11  12
ENDBRANCH   8  11
ENDBRANCH   4   7
BRANCH   1  22
ATOM     22  S   UNL     1       1.396   1.788  -0.092  0.00  0.00    +0.072 S 
ATOM     23  O   UNL     1       2.439   0.837   0.070  0.00  0.00    -0.150 OA
ATOM     24  O   UNL     1       1.288   2.610  -1.246  0.00  0.00    -0.150 OA
BRANCH  22  25
ATOM     25  N   UNL     1      -0.029   0.955   0.030  0.00  0.00    -0.216 N 
ATOM     26  H   UNL     1      -0.021  -0.013   0.098  0.00  0.00    +0.174 HD
BRANCH  25  31
ATOM     27  C   UNL     1      -4.962   3.753   0.029  0.00  0.00    +0.044 C 
ATOM     28  C   UNL     1      -3.651   3.010   0.030  0.00  0.00    -0.050 A 
ATOM     29  C   UNL     1      -2.600   3.462  -0.747  0.00  0.00    +0.005 A 
ATOM     30  C   UNL     1      -1.398   2.783  -0.749  0.00  0.00    +0.025 A 
ATOM     31  C   UNL     1      -1.244   1.644   0.031  0.00  0.00    +0.051 A 
ATOM     32  C   UNL     1      -2.303   1.189   0.807  0.00  0.00    -0.028 A 
ATOM     33  C   UNL     1      -3.501   1.876   0.808  0.00  0.00    +0.008 A 
ATOM     34  C   UNL     1      -2.142  -0.050   1.650  0.00  0.00    +0.046 C 
ENDBRANCH  25  31
ENDBRANCH  22  25
ENDBRANCH   1  22
TORSDOF 6
