REMARK  Name = ZINC59598110
REMARK  10 active torsions:
REMARK  status: ('A' for Active; 'I' for Inactive)
REMARK    1  A    between atoms: C_1  and  C_2
REMARK    2  A    between atoms: C_5  and  N_8
REMARK    3  A    between atoms: N_11  and  N_12
REMARK    4  A    between atoms: C_13  and  C_14
REMARK    5  A    between atoms: C_16  and  C_36
REMARK    6  A    between atoms: N_17  and  C_20
REMARK    7  A    between atoms: C_18  and  C_19
REMARK    8  A    between atoms: C_23  and  S_26
REMARK    9  A    between atoms: S_26  and  C_27
REMARK   10  A    between atoms: C_30  and  N_33
REMARK                            x       y       z     vdW  Elec       q    Type
REMARK                         _______ _______ _______ _____ _____    ______ ____
ROOT
ATOM      1  C   UNL     1       0.413  -8.898  -1.394  0.00  0.00    +0.016 A 
ATOM      2  C   UNL     1       0.528 -10.346  -1.583  0.00  0.00    +0.032 A 
ATOM      3  C   UNL     1       0.487 -10.564  -2.911  0.00  0.00    +0.022 A 
ATOM      4  N   UNL     1       0.356  -9.366  -3.552  0.00  0.00    -0.317 N 
ATOM      5  C   UNL     1       0.304  -8.355  -2.642  0.00  0.00    +0.030 A 
ATOM      6  C   UNL     1       0.157  -6.889  -2.958  0.00  0.00    +0.064 C 
ATOM      7  C   UNL     1       0.572 -11.911  -3.581  0.00  0.00    +0.064 C 
ENDROOT
BRANCH   4   8
ATOM      8  C   UNL     1       0.279  -9.201  -4.943  0.00  0.00    +0.047 A 
ATOM      9  C   UNL     1       1.288  -8.529  -5.619  0.00  0.00    +0.027 A 
ATOM     10  C   UNL     1       1.214  -8.367  -6.988  0.00  0.00    +0.017 A 
ATOM     11  C   UNL     1       0.127  -8.877  -7.689  0.00  0.00    +0.013 A 
ATOM     12  C   UNL     1      -0.883  -9.549  -7.011  0.00  0.00    +0.017 A 
ATOM     13  C   UNL     1      -0.804  -9.715  -5.644  0.00  0.00    +0.027 A 
BRANCH  11  14
ATOM     14  S   UNL     1       0.030  -8.670  -9.436  0.00  0.00    -0.089 S 
BRANCH  14  15
ATOM     15  C   UNL     1       1.564  -7.913  -9.861  0.00  0.00    +0.013 A 
ATOM     16  C   UNL     1       2.688  -8.698 -10.090  0.00  0.00    +0.017 A 
ATOM     17  C   UNL     1       3.888  -8.102 -10.423  0.00  0.00    +0.034 A 
ATOM     18  C   UNL     1       3.972  -6.726 -10.530  0.00  0.00    +0.126 A 
ATOM     19  C   UNL     1       2.856  -5.941 -10.303  0.00  0.00    +0.034 A 
ATOM     20  C   UNL     1       1.651  -6.531  -9.975  0.00  0.00    +0.017 A 
BRANCH  18  21
ATOM     21  N   UNL     1       5.260  -6.090 -10.887  0.00  0.00    +0.056 N 
ATOM     22  O   UNL     1       6.237  -6.774 -11.085  0.00  0.00    -0.126 OA
ATOM     23  O   UNL     1       5.335  -4.887 -10.981  0.00  0.00    -0.126 OA
ENDBRANCH  18  21
ENDBRANCH  14  15
ENDBRANCH  11  14
ENDBRANCH   4   8
BRANCH   1  25
ATOM     24  N   UNL     1       0.293  -6.879  -0.097  0.00  0.00    -0.186 NA
ATOM     25  C   UNL     1       0.409  -8.171  -0.110  0.00  0.00    +0.140 C 
BRANCH  24  29
ATOM     26  N   UNL     1       0.052  -4.168  -0.022  0.00  0.00    -0.268 N 
ATOM     27  C   UNL     1       0.169  -4.847   1.137  0.00  0.00    +0.323 C 
ATOM     28  O   UNL     1       0.165  -4.248   2.195  0.00  0.00    -0.251 OA
ATOM     29  N   UNL     1       0.289  -6.189   1.123  0.00  0.00    -0.191 N 
ATOM     30  H   UNL     1      -0.013  -4.650  -0.861  0.00  0.00    +0.156 HD
ATOM     31  H   UNL     1       0.373  -6.677   1.957  0.00  0.00    +0.179 HD
BRANCH  26  36
ATOM     32  C   UNL     1      -0.060   1.504   0.012  0.00  0.00    +0.044 C 
ATOM     33  C   UNL     1      -0.030  -0.003   0.003  0.00  0.00    -0.050 A 
ATOM     34  C   UNL     1      -0.616  -0.711   1.037  0.00  0.00    +0.005 A 
ATOM     35  C   UNL     1      -0.591  -2.092   1.031  0.00  0.00    +0.023 A 
ATOM     36  C   UNL     1       0.024  -2.769  -0.013  0.00  0.00    +0.035 A 
ATOM     37  C   UNL     1       0.612  -2.055  -1.050  0.00  0.00    +0.023 A 
ATOM     38  C   UNL     1       0.578  -0.675  -1.041  0.00  0.00    +0.005 A 
ENDBRANCH  26  36
ENDBRANCH  24  29
ENDBRANCH   1  25
TORSDOF 7
