REMARK  Name = ZINC39684347
REMARK  8 active torsions:
REMARK  status: ('A' for Active; 'I' for Inactive)
REMARK    1  A    between atoms: C_1  and  C_2
REMARK    2  A    between atoms: C_2  and  C_4
REMARK    3  A    between atoms: C_2  and  N_8
REMARK    4  A    between atoms: C_4  and  C_5
REMARK    5  A    between atoms: C_4  and  C_6
REMARK    6  A    between atoms: C_4  and  C_7
REMARK    7  A    between atoms: C_9  and  C_11
REMARK    8  A    between atoms: C_22  and  C_24
REMARK                            x       y       z     vdW  Elec       q    Type
REMARK                         _______ _______ _______ _____ _____    ______ ____
ROOT
ATOM      1  C   UNL     1      -3.225  -1.335  -1.177  0.00  0.00    +0.100 C 
ATOM      2  C   UNL     1      -3.357  -2.818  -0.763  0.00  0.00    +0.121 C 
ATOM      3  N   UNL     1      -4.482  -3.335  -1.577  0.00  0.00    -0.296 N 
ATOM      4  C   UNL     1      -4.301  -2.698  -2.903  0.00  0.00    +0.115 C 
ATOM      5  C   UNL     1      -3.845  -1.261  -2.582  0.00  0.00    -0.004 C 
ATOM      6  C   UNL     1      -2.803  -0.800  -3.596  0.00  0.00    -0.010 C 
ATOM      7  C   UNL     1      -3.458  -0.678  -4.975  0.00  0.00    -0.082 C 
ATOM      8  N   UNL     1      -4.565   0.284  -4.910  0.00  0.00    +0.379 N 
ATOM      9  C   UNL     1      -5.606  -0.213  -4.003  0.00  0.00    -0.082 C 
ATOM     10  C   UNL     1      -5.042  -0.315  -2.583  0.00  0.00    -0.010 C 
ATOM     11  C   UNL     1      -5.451  -4.192  -1.196  0.00  0.00    +0.247 C 
ATOM     12  O   UNL     1      -6.260  -4.594  -2.010  0.00  0.00    -0.270 OA
ATOM     13  H   UNL     1      -4.219   1.169  -4.572  0.00  0.00    -0.086 HD
ATOM     14  H   UNL     1      -4.955   0.408  -5.832  0.00  0.00    -0.086 HD
ENDROOT
BRANCH  11  15
ATOM     15  C   UNL     1      -5.530  -4.641   0.208  0.00  0.00    +0.045 A 
ATOM     16  C   UNL     1      -4.391  -5.139   0.852  0.00  0.00    +0.014 A 
ATOM     17  C   UNL     1      -4.461  -5.559   2.162  0.00  0.00    +0.001 A 
ATOM     18  C   UNL     1      -5.659  -5.494   2.857  0.00  0.00    +0.012 A 
ATOM     19  C   UNL     1      -6.802  -5.003   2.237  0.00  0.00    +0.031 A 
ATOM     20  C   UNL     1      -6.743  -4.566   0.904  0.00  0.00    +0.006 A 
ATOM     21  C   UNL     1      -8.090  -4.090   0.499  0.00  0.00    -0.006 A 
ATOM     22  C   UNL     1      -8.568  -3.570  -0.696  0.00  0.00    +0.009 A 
ATOM     23  C   UNL     1      -9.898  -3.196  -0.807  0.00  0.00    +0.001 A 
ATOM     24  C   UNL     1     -10.756  -3.337   0.266  0.00  0.00    +0.001 A 
ATOM     25  C   UNL     1     -10.294  -3.855   1.466  0.00  0.00    +0.012 A 
ATOM     26  C   UNL     1      -8.964  -4.234   1.590  0.00  0.00    +0.030 A 
ATOM     27  C   UNL     1      -8.193  -4.818   2.714  0.00  0.00    +0.194 C 
ATOM     28  O   UNL     1      -8.618  -5.083   3.820  0.00  0.00    -0.287 OA
ENDBRANCH  11  15
BRANCH   1  30
ATOM     29  N   UNL     1      -1.435   0.370  -1.115  0.00  0.00    -0.312 N 
ATOM     30  C   UNL     1      -1.775  -0.929  -1.222  0.00  0.00    +0.218 C 
ATOM     31  O   UNL     1      -0.913  -1.772  -1.353  0.00  0.00    -0.275 OA
ATOM     32  H   UNL     1      -2.124   1.045  -1.009  0.00  0.00    +0.149 HD
BRANCH  29  34
ATOM     33  C   UNL     1       0.417   0.921  -2.615  0.00  0.00    +0.028 C 
ATOM     34  C   UNL     1      -0.025   0.765  -1.158  0.00  0.00    +0.075 C 
BRANCH  34  35
ATOM     35  C   UNL     1       0.155   2.096  -0.426  0.00  0.00    -0.020 C 
ATOM     36  C   UNL     1      -0.696   3.171  -1.105  0.00  0.00    +0.012 C 
ATOM     37  C   UNL     1      -0.286   1.940   1.031  0.00  0.00    +0.012 C 
ATOM     38  C   UNL     1       1.628   2.508  -0.471  0.00  0.00    +0.012 C 
ENDBRANCH  34  35
ENDBRANCH  29  34
ENDBRANCH   1  30
TORSDOF 4
