REMARK  Name = ZINC01877178
REMARK  13 active torsions:
REMARK  status: ('A' for Active; 'I' for Inactive)
REMARK    1  A    between atoms: C_1  and  C_2
REMARK    2  A    between atoms: C_2  and  C_3
REMARK    3  A    between atoms: C_2  and  C_4
REMARK    4  A    between atoms: C_4  and  C_5
REMARK    5  A    between atoms: N_7  and  C_8
REMARK    6  A    between atoms: C_8  and  C_32
REMARK    7  A    between atoms: N_17  and  C_20
REMARK    8  A    between atoms: C_20  and  C_21
REMARK    9  A    between atoms: C_21  and  C_22
REMARK   10  A    between atoms: C_25  and  O_30
REMARK   11  A    between atoms: C_26  and  O_28
REMARK   12  A    between atoms: O_28  and  C_29
REMARK   13  A    between atoms: O_30  and  C_31
REMARK                            x       y       z     vdW  Elec       q    Type
REMARK                         _______ _______ _______ _____ _____    ______ ____
ROOT
ATOM      1  C   UNL     1      -2.558  -4.183  -0.262  0.00  0.00    +0.240 C 
ATOM      2  C   UNL     1      -3.956  -4.741  -0.152  0.00  0.00    +0.098 A 
ATOM      3  C   UNL     1      -3.954  -5.582   0.968  0.00  0.00    +0.144 A 
ATOM      4  N   UNL     1      -5.083  -6.212   1.296  0.00  0.00    -0.177 NA
ATOM      5  C   UNL     1      -6.191  -6.050   0.581  0.00  0.00    +0.350 A 
ATOM      6  O   UNL     1      -7.205  -6.643   0.912  0.00  0.00    -0.245 OA
ATOM      7  N   UNL     1      -6.222  -5.249  -0.500  0.00  0.00    -0.273 N 
ATOM      8  C   UNL     1      -5.092  -4.579  -0.882  0.00  0.00    +0.262 A 
ATOM      9  O   UNL     1      -5.105  -3.770  -1.963  0.00  0.00    -0.267 OA
ATOM     10  N   UNL     1      -2.705  -5.595   1.551  0.00  0.00    -0.253 N 
ATOM     11  C   UNL     1      -1.825  -4.811   0.906  0.00  0.00    +0.258 C 
ATOM     12  O   UNL     1      -0.662  -4.638   1.202  0.00  0.00    -0.272 OA
ATOM     13  H   UNL     1      -7.043  -5.147  -1.006  0.00  0.00    +0.173 HD
ENDROOT
BRANCH   1  16
ATOM     14  C   UNL     1      -1.416  -2.035  -0.119  0.00  0.00    +0.214 C 
ATOM     15  O   UNL     1      -0.359  -2.623  -0.213  0.00  0.00    -0.276 OA
ATOM     16  N   UNL     1      -2.574  -2.724  -0.133  0.00  0.00    -0.291 N 
ATOM     17  H   UNL     1      -3.419  -2.253  -0.058  0.00  0.00    +0.150 HD
BRANCH  14  18
ATOM     18  C   UNL     1      -1.433  -0.534   0.013  0.00  0.00    +0.098 C 
BRANCH  18  20
ATOM     19  C   UNL     1      -0.019   1.526   0.010  0.00  0.00    +0.008 C 
ATOM     20  C   UNL     1       0.002  -0.004   0.002  0.00  0.00    -0.008 C 
ATOM     21  C   UNL     1       0.742  -0.511   1.242  0.00  0.00    +0.008 C 
ENDBRANCH  18  20
ENDBRANCH  14  18
ENDBRANCH   1  16
BRANCH   1  22
ATOM     22  C   UNL     1      -1.913  -4.597  -1.586  0.00  0.00    +0.424 C 
ATOM     23  F   UNL     1      -0.603  -4.107  -1.641  0.00  0.00    -0.167 F 
ATOM     24  F   UNL     1      -1.893  -5.992  -1.679  0.00  0.00    -0.167 F 
ATOM     25  F   UNL     1      -2.652  -4.069  -2.650  0.00  0.00    -0.167 F 
ENDBRANCH   1  22
BRANCH  10  26
ATOM     26  C   UNL     1      -2.373  -6.378   2.744  0.00  0.00    +0.120 C 
BRANCH  26  27
ATOM     27  C   UNL     1      -1.879  -7.764   2.324  0.00  0.00    +0.054 C 
BRANCH  27  28
ATOM     28  C   UNL     1      -1.537  -8.569   3.551  0.00  0.00    -0.042 A 
ATOM     29  C   UNL     1      -0.259  -8.520   4.075  0.00  0.00    +0.007 A 
ATOM     30  C   UNL     1       0.059  -9.257   5.200  0.00  0.00    +0.049 A 
ATOM     31  C   UNL     1      -0.904 -10.046   5.806  0.00  0.00    +0.161 A 
ATOM     32  C   UNL     1      -2.192 -10.096   5.279  0.00  0.00    +0.162 A 
ATOM     33  C   UNL     1      -2.505  -9.351   4.154  0.00  0.00    +0.053 A 
BRANCH  32  34
ATOM     34  O   UNL     1      -3.141 -10.869   5.871  0.00  0.00    -0.491 OA
ATOM     35  C   UNL     1      -4.440 -10.871   5.275  0.00  0.00    +0.277 C 
ENDBRANCH  32  34
BRANCH  31  36
ATOM     36  O   UNL     1      -0.593 -10.772   6.913  0.00  0.00    -0.491 OA
ATOM     37  C   UNL     1       0.748 -10.673   7.398  0.00  0.00    +0.277 C 
ENDBRANCH  31  36
ENDBRANCH  27  28
ENDBRANCH  26  27
ENDBRANCH  10  26
TORSDOF 9
