REMARK  Name = ZINC02120959
REMARK  15 active torsions:
REMARK  status: ('A' for Active; 'I' for Inactive)
REMARK    1  A    between atoms: C_1  and  C_2
REMARK    2  A    between atoms: C_2  and  C_3
REMARK    3  A    between atoms: C_3  and  C_4
REMARK    4  A    between atoms: C_4  and  N_81
REMARK    5  A    between atoms: C_5  and  C_6
REMARK    6  A    between atoms: C_5  and  N_81
REMARK    7  A    between atoms: C_6  and  C_7
REMARK    8  A    between atoms: C_7  and  C_8
REMARK    9  A    between atoms: C_9  and  C_10
REMARK   10  A    between atoms: C_9  and  N_81
REMARK   11  A    between atoms: C_10  and  C_11
REMARK   12  A    between atoms: C_11  and  N_12
REMARK   13  A    between atoms: C_32  and  C_34
REMARK   14  A    between atoms: C_39  and  O_40
REMARK   15  A    between atoms: O_40  and  C_41
REMARK                            x       y       z     vdW  Elec       q    Type
REMARK                         _______ _______ _______ _____ _____    ______ ____
ROOT
ATOM      1  N   UNL     1      -4.449   1.390   2.592  0.00  0.00    -0.291 N 
ATOM      2  C   UNL     1      -4.129   0.510   3.704  0.00  0.00    +0.203 C 
ATOM      3  C   UNL     1      -3.100  -0.508   3.337  0.00  0.00    +0.234 C 
ATOM      4  O   UNL     1      -2.734  -1.279   4.199  0.00  0.00    -0.274 OA
ATOM      5  N   UNL     1      -2.556  -0.627   2.124  0.00  0.00    -0.276 N 
ATOM      6  C   UNL     1      -2.965   0.188   0.981  0.00  0.00    +0.167 C 
ATOM      7  C   UNL     1      -3.932   1.259   1.372  0.00  0.00    +0.237 C 
ATOM      8  O   UNL     1      -4.268   2.058   0.524  0.00  0.00    -0.274 OA
ATOM      9  C   UNL     1      -3.603  -0.718  -0.081  0.00  0.00    +0.069 C 
ATOM     10  C   UNL     1      -2.744  -1.945  -0.255  0.00  0.00    -0.015 A 
ATOM     11  C   UNL     1      -2.747  -2.895  -1.349  0.00  0.00    +0.003 A 
ATOM     12  C   UNL     1      -3.493  -2.980  -2.528  0.00  0.00    +0.010 A 
ATOM     13  C   UNL     1      -3.226  -4.042  -3.356  0.00  0.00    +0.001 A 
ATOM     14  C   UNL     1      -2.266  -4.992  -3.048  0.00  0.00    +0.002 A 
ATOM     15  C   UNL     1      -1.512  -4.931  -1.889  0.00  0.00    +0.026 A 
ATOM     16  C   UNL     1      -1.761  -3.863  -1.029  0.00  0.00    +0.047 A 
ATOM     17  N   UNL     1      -1.214  -3.506   0.169  0.00  0.00    -0.356 N 
ATOM     18  H   UNL     1      -0.511  -3.991   0.629  0.00  0.00    +0.166 HD
ATOM     19  C   UNL     1      -1.806  -2.358   0.625  0.00  0.00    +0.046 A 
ATOM     20  C   UNL     1      -1.490  -1.629   1.911  0.00  0.00    +0.157 C 
ENDROOT
BRANCH  20  21
ATOM     21  C   UNL     1      -0.155  -0.940   1.794  0.00  0.00    +0.020 A 
ATOM     22  C   UNL     1       0.433  -0.777   0.555  0.00  0.00    +0.009 A 
ATOM     23  C   UNL     1       1.658  -0.144   0.447  0.00  0.00    +0.001 A 
ATOM     24  C   UNL     1       2.297   0.327   1.579  0.00  0.00    +0.004 A 
ATOM     25  C   UNL     1       1.714   0.166   2.821  0.00  0.00    +0.046 A 
ATOM     26  C   UNL     1       0.485  -0.468   2.931  0.00  0.00    +0.125 A 
BRANCH  26  27
ATOM     27  O   UNL     1      -0.091  -0.628   4.152  0.00  0.00    -0.495 OA
ATOM     28  C   UNL     1       0.624  -0.117   5.279  0.00  0.00    +0.277 C 
ENDBRANCH  26  27
ENDBRANCH  20  21
BRANCH   1  29
ATOM     29  C   UNL     1      -5.394   2.484   2.828  0.00  0.00    +0.106 C 
BRANCH  29  30
ATOM     30  C   UNL     1      -6.816   2.000   2.540  0.00  0.00    +0.000 C 
BRANCH  30  31
ATOM     31  C   UNL     1      -7.804   3.143   2.785  0.00  0.00    -0.077 C 
BRANCH  31  32
ATOM     32  N   UNL     1      -9.174   2.653   2.524  0.00  0.00    +0.380 N 
ATOM     33  H   UNL     1      -9.326   1.788   3.055  0.00  0.00    -0.082 HD
BRANCH  32  34
ATOM     34  C   UNL     1     -10.162   3.663   2.956  0.00  0.00    -0.079 C 
BRANCH  34  35
ATOM     35  C   UNL     1     -10.306   3.588   4.478  0.00  0.00    -0.019 C 
BRANCH  35  37
ATOM     36  C   UNL     1     -11.472   4.550   6.467  0.00  0.00    +0.004 C 
ATOM     37  C   UNL     1     -11.329   4.625   4.946  0.00  0.00    -0.005 C 
ENDBRANCH  35  37
ENDBRANCH  34  35
ENDBRANCH  32  34
BRANCH  32  38
ATOM     38  C   UNL     1      -9.342   2.367   1.083  0.00  0.00    -0.079 C 
BRANCH  38  39
ATOM     39  C   UNL     1     -10.613   1.538   0.892  0.00  0.00    -0.019 C 
BRANCH  39  40
ATOM     40  C   UNL     1     -10.714   1.089  -0.567  0.00  0.00    -0.005 C 
ATOM     41  C   UNL     1     -11.986   0.260  -0.759  0.00  0.00    +0.004 C 
ENDBRANCH  39  40
ENDBRANCH  38  39
ENDBRANCH  32  38
ENDBRANCH  31  32
ENDBRANCH  30  31
ENDBRANCH  29  30
ENDBRANCH   1  29
TORSDOF 12
