REMARK  Name = ZINC49112788
REMARK  12 active torsions:
REMARK  status: ('A' for Active; 'I' for Inactive)
REMARK    1  A    between atoms: C_3  and  C_8
REMARK    2  A    between atoms: C_6  and  O_7
REMARK    3  A    between atoms: C_8  and  C_9
REMARK    4  A    between atoms: C_9  and  CA_10
REMARK    5  A    between atoms: CA_10  and  C_12
REMARK    6  A    between atoms: CA_10  and  N_40
REMARK    7  A    between atoms: N_14  and  CA_15
REMARK    8  A    between atoms: CA_15  and  C_17
REMARK    9  A    between atoms: CA_15  and  C_37
REMARK   10  A    between atoms: C_19  and  O_36
REMARK   11  A    between atoms: C_21  and  O_35
REMARK   12  A    between atoms: C_23  and  N_26
REMARK                            x       y       z     vdW  Elec       q    Type
REMARK                         _______ _______ _______ _____ _____    ______ ____
ROOT
ATOM      1  CA  UNL     1      -0.605  -5.245  -4.708  0.00  0.00    +0.218 C 
ENDROOT
BRANCH   1   2
ATOM      2  C   UNL     1      -2.030  -5.795  -4.806  0.00  0.00    +0.183 C 
ATOM      3  C   UNL     1      -2.258  -6.415  -6.198  0.00  0.00    +0.178 C 
ATOM      4  C   UNL     1      -3.454  -5.621  -6.776  0.00  0.00    +0.195 C 
ATOM      5  C   UNL     1      -4.107  -5.040  -5.496  0.00  0.00    +0.255 C 
ATOM      6  O   UNL     1      -2.978  -4.725  -4.651  0.00  0.00    -0.345 OA
BRANCH   5   7
ATOM      7  N   UNL     1      -4.874  -3.832  -5.811  0.00  0.00    -0.271 N 
ATOM      8  C   UNL     1      -4.225  -2.719  -6.271  0.00  0.00    +0.098 A 
ATOM      9  C   UNL     1      -4.932  -1.605  -6.561  0.00  0.00    +0.088 A 
ATOM     10  C   UNL     1      -6.336  -1.614  -6.382  0.00  0.00    +0.254 A 
ATOM     11  O   UNL     1      -6.995  -0.622  -6.638  0.00  0.00    -0.268 OA
ATOM     12  N   UNL     1      -6.938  -2.732  -5.927  0.00  0.00    -0.275 N 
ATOM     13  H   UNL     1      -7.899  -2.746  -5.802  0.00  0.00    +0.173 HD
ATOM     14  C   UNL     1      -6.210  -3.830  -5.650  0.00  0.00    +0.331 A 
ATOM     15  O   UNL     1      -6.766  -4.832  -5.245  0.00  0.00    -0.246 OA
ENDBRANCH   5   7
BRANCH   4  16
ATOM     16  O   UNL     1      -4.358  -6.488  -7.463  0.00  0.00    -0.385 OA
ATOM     17  H   UNL     1      -3.966  -6.945  -8.220  0.00  0.00    +0.210 HD
ENDBRANCH   4  16
BRANCH   3  18
ATOM     18  O   UNL     1      -2.584  -7.801  -6.080  0.00  0.00    -0.386 OA
ATOM     19  H   UNL     1      -2.738  -8.242  -6.927  0.00  0.00    +0.210 HD
ENDBRANCH   3  18
ENDBRANCH   1   2
BRANCH   1  22
ATOM     20  C   UNL     1       0.896  -4.704  -2.867  0.00  0.00    +0.199 C 
ATOM     21  O   UNL     1       1.827  -5.056  -3.560  0.00  0.00    -0.278 OA
ATOM     22  N   UNL     1      -0.362  -4.760  -3.347  0.00  0.00    -0.302 N 
ATOM     23  H   UNL     1      -1.106  -4.478  -2.793  0.00  0.00    +0.150 HD
BRANCH  20  24
ATOM     24  CA  UNL     1       1.147  -4.204  -1.467  0.00  0.00    +0.013 C 
BRANCH  24  25
ATOM     25  N   UNL     1       2.462  -4.671  -1.009  0.00  0.00    +0.386 N 
ATOM     26  H1  UNL     1       2.630  -4.336  -0.072  0.00  0.00    -0.089 HD
ATOM     27  H2  UNL     1       2.482  -5.679  -1.014  0.00  0.00    -0.089 HD
ATOM     28  H3  UNL     1       3.178  -4.317  -1.625  0.00  0.00    -0.089 HD
ENDBRANCH  24  25
BRANCH  24  29
ATOM     29  C   UNL     1       1.117  -2.674  -1.459  0.00  0.00    -0.001 C 
BRANCH  29  30
ATOM     30  C   UNL     1       1.247  -2.169  -0.021  0.00  0.00    +0.052 C 
BRANCH  30  33
ATOM     31  C   UNL     1      -0.017   1.381   0.010  0.00  0.00    +0.048 A 
ATOM     32  C   UNL     1       0.002  -0.004   0.002  0.00  0.00    +0.025 A 
ATOM     33  C   UNL     1       1.218  -0.662  -0.013  0.00  0.00    +0.016 A 
ATOM     34  N   UNL     1       2.352   0.010  -0.020  0.00  0.00    -0.361 N 
ATOM     35  C   UNL     1       2.377   1.328  -0.013  0.00  0.00    +0.128 A 
ATOM     36  C   UNL     1       1.198   2.059   0.002  0.00  0.00    +0.133 A 
ATOM     37  H   UNL     1       3.190  -0.478  -0.031  0.00  0.00    +0.165 HD
BRANCH  36  38
ATOM     38  O   UNL     1       1.230   3.418   0.008  0.00  0.00    -0.505 OA
ATOM     39  H   UNL     1       1.247   3.807   0.893  0.00  0.00    +0.292 HD
ENDBRANCH  36  38
ENDBRANCH  30  33
ENDBRANCH  29  30
ENDBRANCH  24  29
ENDBRANCH  20  24
ENDBRANCH   1  22
BRANCH   1  40
ATOM     40  C   UNL     1      -0.436  -4.110  -5.685  0.00  0.00    +0.378 C 
ATOM     41  O   UNL     1      -0.140  -2.998  -5.282  0.00  0.00    -0.244 OA
ATOM     42  OXT UNL     1      -0.596  -4.304  -6.878  0.00  0.00    -0.244 OA
ENDBRANCH   1  40
TORSDOF 12
