REMARK  Name = ZINC13981601
REMARK  9 active torsions:
REMARK  status: ('A' for Active; 'I' for Inactive)
REMARK    1  A    between atoms: C_4  and  C_7
REMARK    2  A    between atoms: C_10  and  O_13
REMARK    3  A    between atoms: O_13  and  C_14
REMARK    4  A    between atoms: C_14  and  C_15
REMARK    5  A    between atoms: N_17  and  N_18
REMARK    6  A    between atoms: C_19  and  C_21
REMARK    7  A    between atoms: C_21  and  C_22
REMARK    8  A    between atoms: C_22  and  C_23
REMARK    9  A    between atoms: N_25  and  C_26
REMARK                            x       y       z     vdW  Elec       q    Type
REMARK                         _______ _______ _______ _____ _____    ______ ____
ROOT
ATOM      1  C   UNL     1      -1.176   7.738  -0.005  0.00  0.00    +0.267 C 
ATOM      2  O   UNL     1      -0.062   8.217  -0.010  0.00  0.00    -0.271 OA
ATOM      3  N   UNL     1      -2.256   8.544   0.016  0.00  0.00    -0.232 N 
ATOM      4  H   UNL     1      -3.147   8.161   0.019  0.00  0.00    +0.173 HD
ENDROOT
BRANCH   3   5
ATOM      5  N   UNL     1      -2.092   9.935   0.032  0.00  0.00    -0.234 N 
ATOM      6  C   UNL     1      -3.172  10.741   0.053  0.00  0.00    +0.230 C 
ATOM      7  O   UNL     1      -4.286  10.262   0.058  0.00  0.00    -0.274 OA
ATOM      8  H   UNL     1      -1.201  10.318   0.028  0.00  0.00    +0.173 HD
BRANCH   6   9
ATOM      9  C   UNL     1      -2.996  12.237   0.071  0.00  0.00    +0.106 C 
BRANCH   9  10
ATOM     10  C   UNL     1      -4.368  12.913   0.093  0.00  0.00    +0.105 C 
BRANCH  10  11
ATOM     11  C   UNL     1      -4.192  14.409   0.111  0.00  0.00    +0.218 C 
ATOM     12  O   UNL     1      -3.077  14.888   0.106  0.00  0.00    -0.275 OA
ATOM     13  N   UNL     1      -5.272  15.215   0.132  0.00  0.00    -0.284 N 
ATOM     14  H   UNL     1      -6.162  14.835   0.070  0.00  0.00    +0.155 HD
BRANCH  13  15
ATOM     15  C   UNL     1      -5.109  16.601   0.243  0.00  0.00    +0.052 A 
ATOM     16  C   UNL     1      -4.022  17.224  -0.356  0.00  0.00    +0.026 A 
ATOM     17  C   UNL     1      -3.864  18.592  -0.245  0.00  0.00    +0.022 A 
ATOM     18  C   UNL     1      -4.787  19.342   0.462  0.00  0.00    +0.042 A 
ATOM     19  C   UNL     1      -5.872  18.725   1.059  0.00  0.00    +0.041 A 
ATOM     20  C   UNL     1      -6.038  17.357   0.948  0.00  0.00    +0.064 A 
ATOM     21 CL   UNL     1      -7.402  16.584   1.693  0.00  0.00    -0.082 Cl
ATOM     22 CL   UNL     1      -4.585  21.061   0.598  0.00  0.00    -0.083 Cl
ENDBRANCH  13  15
ENDBRANCH  10  11
ENDBRANCH   9  10
ENDBRANCH   6   9
ENDBRANCH   3   5
BRANCH   1  23
ATOM     23  C   UNL     1      -1.353   6.241  -0.023  0.00  0.00    +0.326 C 
BRANCH  23  24
ATOM     24  O   UNL     1      -0.071   5.611  -0.044  0.00  0.00    -0.483 OA
BRANCH  24  28
ATOM     25  C   UNL     1      -0.014   1.482  -0.099  0.00  0.00    -0.018 A 
ATOM     26  C   UNL     1      -1.230   2.164  -0.084  0.00  0.00    +0.012 A 
ATOM     27  C   UNL     1      -1.245   3.542  -0.060  0.00  0.00    +0.046 A 
ATOM     28  C   UNL     1      -0.052   4.252  -0.062  0.00  0.00    +0.121 A 
ATOM     29  C   UNL     1       1.161   3.576  -0.082  0.00  0.00    +0.046 A 
ATOM     30  C   UNL     1       1.183   2.197  -0.101  0.00  0.00    +0.012 A 
BRANCH  25  34
ATOM     31  C   UNL     1       0.045  -2.769  -0.157  0.00  0.00    +0.000 A 
ATOM     32  C   UNL     1      -1.163  -2.097  -0.136  0.00  0.00    +0.001 A 
ATOM     33  C   UNL     1      -1.188  -0.717  -0.117  0.00  0.00    +0.008 A 
ATOM     34  C   UNL     1       0.007  -0.001  -0.119  0.00  0.00    -0.018 A 
ATOM     35  C   UNL     1       1.222  -0.683  -0.145  0.00  0.00    +0.008 A 
ATOM     36  C   UNL     1       1.235  -2.063  -0.159  0.00  0.00    +0.001 A 
ENDBRANCH  25  34
ENDBRANCH  24  28
ENDBRANCH  23  24
ENDBRANCH   1  23
TORSDOF 9
