REMARK  Name = ZINC14551706
REMARK  8 active torsions:
REMARK  status: ('A' for Active; 'I' for Inactive)
REMARK    1  A    between atoms: C_1  and  O_2
REMARK    2  A    between atoms: O_2  and  C_3
REMARK    3  A    between atoms: C_6  and  N_9
REMARK    4  A    between atoms: N_9  and  S_10
REMARK    5  A    between atoms: S_10  and  C_13
REMARK    6  A    between atoms: C_26  and  C_29
REMARK    7  A    between atoms: C_32  and  S_35
REMARK    8  A    between atoms: S_35  and  C_36
REMARK                            x       y       z     vdW  Elec       q    Type
REMARK                         _______ _______ _______ _____ _____    ______ ____
ROOT
ATOM      1  C   UNL     1      -1.410  -2.561   0.893  0.00  0.00    +0.109 A 
ATOM      2  C   UNL     1      -2.786  -2.558   1.028  0.00  0.00    +0.030 A 
ATOM      3  C   UNL     1      -3.420  -1.446   1.544  0.00  0.00    +0.025 A 
ATOM      4  C   UNL     1      -2.677  -0.336   1.926  0.00  0.00    +0.031 A 
ATOM      5  C   UNL     1      -1.296  -0.335   1.794  0.00  0.00    -0.018 A 
ATOM      6  C   UNL     1      -0.671  -1.459   1.272  0.00  0.00    +0.034 A 
ATOM      7  C   UNL     1      -0.455   0.834   2.196  0.00  0.00    +0.049 C 
ATOM      8  C   UNL     1       0.032   1.606   0.993  0.00  0.00    -0.023 C 
ATOM      9  C   UNL     1       0.059   2.889   1.258  0.00  0.00    -0.030 C 
ATOM     10  C   UNL     1      -0.402   3.147   2.680  0.00  0.00    +0.033 C 
ATOM     11  C   UNL     1      -1.230   1.875   3.026  0.00  0.00    +0.029 C 
ATOM     12  C   UNL     1      -2.631   2.071   2.438  0.00  0.00    +0.105 C 
ATOM     13  N   UNL     1      -3.334   0.784   2.446  0.00  0.00    -0.336 N 
ATOM     14  H   UNL     1      -4.234   0.712   2.800  0.00  0.00    +0.147 HD
ENDROOT
BRANCH  12  15
ATOM     15  C   UNL     1      -3.394   3.068   3.273  0.00  0.00    -0.027 A 
ATOM     16  C   UNL     1      -3.980   2.668   4.460  0.00  0.00    +0.006 A 
ATOM     17  C   UNL     1      -4.675   3.580   5.230  0.00  0.00    +0.015 A 
ATOM     18  C   UNL     1      -4.795   4.897   4.805  0.00  0.00    +0.008 A 
ATOM     19  C   UNL     1      -4.209   5.294   3.608  0.00  0.00    +0.015 A 
ATOM     20  C   UNL     1      -3.511   4.378   2.846  0.00  0.00    +0.006 A 
BRANCH  18  21
ATOM     21  S   UNL     1      -5.686   6.063   5.781  0.00  0.00    -0.129 S 
ATOM     22  C   UNL     1      -6.249   5.098   7.210  0.00  0.00    +0.090 C 
ENDBRANCH  18  21
ENDBRANCH  12  15
BRANCH   1  23
ATOM     23  S   UNL     1      -0.597  -3.978   0.233  0.00  0.00    +0.072 S 
ATOM     24  O   UNL     1      -1.518  -4.600  -0.653  0.00  0.00    -0.150 OA
ATOM     25  O   UNL     1       0.692  -3.549  -0.186  0.00  0.00    -0.150 OA
BRANCH  23  26
ATOM     26  N   UNL     1      -0.359  -5.034   1.486  0.00  0.00    -0.216 N 
ATOM     27  H   UNL     1      -0.783  -5.906   1.473  0.00  0.00    +0.174 HD
BRANCH  26  31
ATOM     28  C   UNL     1       2.066  -3.946   4.697  0.00  0.00    +0.120 A 
ATOM     29  C   UNL     1       0.687  -3.955   4.842  0.00  0.00    +0.047 A 
ATOM     30  C   UNL     1      -0.117  -4.316   3.779  0.00  0.00    +0.028 A 
ATOM     31  C   UNL     1       0.455  -4.669   2.564  0.00  0.00    +0.048 A 
ATOM     32  C   UNL     1       1.837  -4.664   2.421  0.00  0.00    +0.028 A 
ATOM     33  C   UNL     1       2.639  -4.298   3.484  0.00  0.00    +0.047 A 
BRANCH  28  35
ATOM     34  C   UNL     1       4.269  -3.604   5.525  0.00  0.00    +0.277 C 
ATOM     35  O   UNL     1       2.857  -3.591   5.745  0.00  0.00    -0.495 OA
ENDBRANCH  28  35
ENDBRANCH  26  31
ENDBRANCH  23  26
ENDBRANCH   1  23
TORSDOF 6
