REMARK  Name = ZINC31169880
REMARK  5 active torsions:
REMARK  status: ('A' for Active; 'I' for Inactive)
REMARK    1  A    between atoms: C_1  and  C_2
REMARK    2  A    between atoms: C_2  and  C_35
REMARK    3  A    between atoms: N_11  and  O_33
REMARK    4  A    between atoms: C_19  and  C_20
REMARK    5  A    between atoms: C_19  and  C_21
REMARK                            x       y       z     vdW  Elec       q    Type
REMARK                         _______ _______ _______ _____ _____    ______ ____
ROOT
ATOM      1  C   UNL     1      -1.794   1.980  -1.454  0.00  0.00    +0.060 C 
ATOM      2  C   UNL     1      -1.331   1.803  -0.007  0.00  0.00    +0.124 C 
ATOM      3  C   UNL     1      -0.013   1.077   0.008  0.00  0.00    +0.020 C 
ATOM      4  C   UNL     1       1.131   1.759   0.001  0.00  0.00    +0.013 C 
ATOM      5  C   UNL     1       1.074   3.229   0.051  0.00  0.00    +0.040 A 
ATOM      6  C   UNL     1      -0.150   3.852   0.347  0.00  0.00    +0.131 A 
ATOM      7  C   UNL     1      -0.254   5.231   0.379  0.00  0.00    +0.047 A 
ATOM      8  C   UNL     1       0.846   6.042   0.130  0.00  0.00    +0.010 A 
ATOM      9  C   UNL     1       2.059   5.443  -0.139  0.00  0.00    -0.007 A 
ATOM     10  C   UNL     1       2.189   4.044  -0.184  0.00  0.00    +0.079 A 
ATOM     11  N   UNL     1       3.496   3.700  -0.469  0.00  0.00    -0.150 N 
ATOM     12  C   UNL     1       4.306   4.782  -0.527  0.00  0.00    +0.254 C 
ATOM     13  O   UNL     1       5.517   4.752  -0.605  0.00  0.00    -0.272 OA
ATOM     14  C   UNL     1       3.415   5.998  -0.422  0.00  0.00    +0.084 C 
ATOM     15  C   UNL     1       3.923   6.886   0.737  0.00  0.00    +0.057 C 
ATOM     16  C   UNL     1       3.779   8.304   0.227  0.00  0.00    +0.116 C 
ATOM     17  C   UNL     1       4.012   8.195  -1.298  0.00  0.00    +0.031 C 
ATOM     18  C   UNL     1       3.451   6.843  -1.707  0.00  0.00    -0.011 C 
ATOM     19  C   UNL     1       4.390   6.197  -2.744  0.00  0.00    +0.012 C 
ATOM     20  C   UNL     1       2.063   6.952  -2.336  0.00  0.00    +0.012 C 
ATOM     21  C   UNL     1       3.545   9.454  -1.996  0.00  0.00    +0.042 C 
ATOM     22  C   UNL     1       3.350  10.521  -0.903  0.00  0.00    +0.114 C 
ATOM     23  C   UNL     1       2.971  11.883  -1.440  0.00  0.00    +0.037 C 
ATOM     24  C   UNL     1       1.421  11.889  -1.416  0.00  0.00    +0.022 C 
ATOM     25  C   UNL     1       1.070  10.926  -0.259  0.00  0.00    +0.109 C 
ATOM     26  N   UNL     1       2.185  10.021  -0.118  0.00  0.00    -0.285 N 
ATOM     27  C   UNL     1       2.399   8.860   0.552  0.00  0.00    +0.240 C 
ATOM     28  O   UNL     1       1.623   8.367   1.342  0.00  0.00    -0.273 OA
ATOM     29  C   UNL     1       4.529  10.524   0.045  0.00  0.00    +0.238 C 
ATOM     30  O   UNL     1       5.222  11.501   0.239  0.00  0.00    -0.273 OA
ATOM     31  N   UNL     1       4.758   9.305   0.677  0.00  0.00    -0.299 N 
ATOM     32  O   UNL     1      -1.232   3.079   0.614  0.00  0.00    -0.482 OA
ATOM     33  C   UNL     1      -2.365   0.963   0.749  0.00  0.00    +0.060 C 
ATOM     34  H   UNL     1       5.527   9.030   1.415  0.00  0.00    +0.150 HD
ENDROOT
BRANCH  11  35
ATOM     35  O   UNL     1       3.956   2.375  -0.664  0.00  0.00    -0.288 OA
ATOM     36  H   UNL     1       5.017   2.189  -0.889  0.00  0.00    +0.242 HD
ENDBRANCH  11  35
TORSDOF 1
