REMARK  Name = ZINC08582491
REMARK  11 active torsions:
REMARK  status: ('A' for Active; 'I' for Inactive)
REMARK    1  A    between atoms: C_1  and  C_2
REMARK    2  A    between atoms: C_2  and  O_3
REMARK    3  A    between atoms: O_3  and  C_4
REMARK    4  A    between atoms: C_4  and  C_6
REMARK    5  A    between atoms: C_11  and  C_13
REMARK    6  A    between atoms: C_11  and  C_26
REMARK    7  A    between atoms: C_11  and  N_72
REMARK    8  A    between atoms: C_16  and  C_25
REMARK    9  A    between atoms: C_19  and  C_24
REMARK   10  A    between atoms: C_22  and  O_23
REMARK   11  A    between atoms: N_30  and  C_31
REMARK                            x       y       z     vdW  Elec       q    Type
REMARK                         _______ _______ _______ _____ _____    ______ ____
ROOT
ATOM      1  C   UNL     1      -0.264   1.251  -0.205  0.00  0.00    +0.039 C 
ENDROOT
BRANCH   1   2
ATOM      2  C   UNL     1      -1.023   1.923  -1.320  0.00  0.00    +0.008 A 
ATOM      3  C   UNL     1      -0.456   2.954  -2.008  0.00  0.00    +0.018 A 
ATOM      4  C   UNL     1      -1.198   3.552  -3.046  0.00  0.00    +0.004 A 
ATOM      5  C   UNL     1      -0.673   4.615  -3.798  0.00  0.00    -0.041 A 
ATOM      6  C   UNL     1      -1.422   5.171  -4.790  0.00  0.00    +0.004 A 
ATOM      7  C   UNL     1      -2.703   4.699  -5.069  0.00  0.00    +0.006 A 
ATOM      8  C   UNL     1      -3.242   3.670  -4.360  0.00  0.00    -0.024 A 
ATOM      9  C   UNL     1      -2.499   3.070  -3.328  0.00  0.00    +0.078 A 
ATOM     10  N   UNL     1      -3.005   2.058  -2.615  0.00  0.00    -0.213 NA
ATOM     11  C   UNL     1      -2.315   1.493  -1.647  0.00  0.00    +0.215 A 
ATOM     12  C   UNL     1      -4.629   3.175  -4.680  0.00  0.00    +0.046 C 
ATOM     13  C   UNL     1       0.710   5.138  -3.509  0.00  0.00    +0.044 C 
BRANCH  11  14
ATOM     14  O   UNL     1      -2.867   0.469  -0.951  0.00  0.00    -0.492 OA
ATOM     15  H   UNL     1      -3.307   0.741  -0.134  0.00  0.00    +0.294 HD
ENDBRANCH  11  14
ENDBRANCH   1   2
BRANCH   1  21
ATOM     16  C   UNL     1       3.881   0.504  -0.938  0.00  0.00    +0.094 C 
ATOM     17  C   UNL     1       3.442   1.037   0.428  0.00  0.00    -0.004 C 
ATOM     18  C   UNL     1       1.952   0.747   0.628  0.00  0.00    -0.077 C 
ATOM     19  C   UNL     1       1.551   0.861  -1.759  0.00  0.00    -0.077 C 
ATOM     20  C   UNL     1       3.028   1.154  -2.030  0.00  0.00    -0.004 C 
ATOM     21  N   UNL     1       1.184   1.421  -0.441  0.00  0.00    +0.389 N 
ATOM     22  H   UNL     1       1.409   2.423  -0.431  0.00  0.00    -0.080 HD
BRANCH  16  23
ATOM     23  C   UNL     1       5.333   0.838  -1.165  0.00  0.00    +0.310 C 
ATOM     24  O   UNL     1       5.954   1.441  -0.322  0.00  0.00    -0.251 OA
BRANCH  23  25
ATOM     25  O   UNL     1       5.937   0.466  -2.305  0.00  0.00    -0.465 OA
BRANCH  25  27
ATOM     26  C   UNL     1       7.848   0.317  -3.807  0.00  0.00    +0.048 C 
ATOM     27  C   UNL     1       7.337   0.821  -2.456  0.00  0.00    +0.229 C 
ENDBRANCH  25  27
ENDBRANCH  23  25
ENDBRANCH  16  23
ENDBRANCH   1  21
BRANCH   1  28
ATOM     28  C   UNL     1      -0.624   1.898   1.108  0.00  0.00    +0.143 A 
ATOM     29  N   UNL     1      -1.454   1.431   2.009  0.00  0.00    -0.115 NA
ATOM     30  N   UNL     1      -1.492   2.269   2.987  0.00  0.00    -0.023 NA
ATOM     31  N   UNL     1      -0.708   3.258   2.733  0.00  0.00    -0.044 NA
ATOM     32  N   UNL     1      -0.150   3.063   1.586  0.00  0.00    -0.227 N 
BRANCH  32  33
ATOM     33  C   UNL     1       0.815   3.946   0.927  0.00  0.00    +0.111 C 
ATOM     34  C   UNL     1       2.021   4.160   1.844  0.00  0.00    +0.027 C 
ATOM     35  C   UNL     1       3.028   5.083   1.156  0.00  0.00    +0.002 C 
ATOM     36  C   UNL     1       2.367   6.430   0.860  0.00  0.00    +0.000 C 
ATOM     37  C   UNL     1       1.161   6.216  -0.058  0.00  0.00    +0.002 C 
ATOM     38  C   UNL     1       0.154   5.294   0.631  0.00  0.00    +0.027 C 
ENDBRANCH  32  33
ENDBRANCH   1  28
TORSDOF 8
