REMARK  Name = ZINC08627145
REMARK  9 active torsions:
REMARK  status: ('A' for Active; 'I' for Inactive)
REMARK    1  A    between atoms: C_3  and  C_8
REMARK    2  A    between atoms: C_8  and  N_61
REMARK    3  A    between atoms: C_9  and  C_10
REMARK    4  A    between atoms: C_9  and  N_61
REMARK    5  A    between atoms: C_12  and  O_36
REMARK    6  A    between atoms: C_14  and  O_35
REMARK    7  A    between atoms: C_16  and  C_19
REMARK    8  A    between atoms: C_19  and  C_20
REMARK    9  A    between atoms: N_25  and  C_28
REMARK                            x       y       z     vdW  Elec       q    Type
REMARK                         _______ _______ _______ _____ _____    ______ ____
ROOT
ATOM      1  C   UNL     1       4.582  -0.123  -2.924  0.00  0.00    +0.133 C 
ATOM      2  C   UNL     1       5.883  -0.952  -3.007  0.00  0.00    +0.172 C 
ATOM      3  C   UNL     1       6.643  -0.337  -4.203  0.00  0.00    +0.174 C 
ATOM      4  C   UNL     1       5.712   0.791  -4.701  0.00  0.00    +0.158 C 
ATOM      5  O   UNL     1       4.902   1.136  -3.554  0.00  0.00    -0.369 OA
ENDROOT
BRANCH   3   6
ATOM      6  O   UNL     1       6.839  -1.313  -5.228  0.00  0.00    -0.387 OA
ATOM      7  H   UNL     1       7.368  -2.074  -4.951  0.00  0.00    +0.210 HD
ENDBRANCH   3   6
BRANCH   2   8
ATOM      8  O   UNL     1       5.586  -2.327  -3.257  0.00  0.00    -0.387 OA
ATOM      9  H   UNL     1       6.367  -2.893  -3.319  0.00  0.00    +0.210 HD
ENDBRANCH   2   8
BRANCH   1  10
ATOM     10  C   UNL     1       4.185   0.098  -1.463  0.00  0.00    -0.048 C 
BRANCH  10  11
ATOM     11  N   UNL     1       2.898   0.819  -1.416  0.00  0.00    +0.383 N 
ATOM     12  H   UNL     1       2.999   1.723  -1.891  0.00  0.00    -0.085 HD
ATOM     13  H   UNL     1       2.180   0.260  -1.891  0.00  0.00    -0.085 HD
BRANCH  11  14
ATOM     14  C   UNL     1       2.490   1.047  -0.017  0.00  0.00    -0.047 C 
BRANCH  14  17
ATOM     15  C   UNL     1      -1.219   1.750   0.017  0.00  0.00    +0.002 A 
ATOM     16  C   UNL     1      -0.013   1.076   0.008  0.00  0.00    +0.002 A 
ATOM     17  C   UNL     1       1.175   1.783   0.000  0.00  0.00    -0.063 A 
ATOM     18  C   UNL     1       1.157   3.165   0.008  0.00  0.00    +0.021 A 
ATOM     19  C   UNL     1      -0.050   3.841   0.023  0.00  0.00    +0.041 A 
ATOM     20  C   UNL     1      -1.239   3.132   0.031  0.00  0.00    +0.020 A 
ATOM     21 CL   UNL     1      -0.074   5.576   0.032  0.00  0.00    -0.084 Cl
ENDBRANCH  14  17
ENDBRANCH  11  14
ENDBRANCH  10  11
ENDBRANCH   1  10
BRANCH   4  22
ATOM     22  C   UNL     1       6.533   1.998  -5.159  0.00  0.00    +0.130 C 
BRANCH  22  23
ATOM     23  C   UNL     1       5.615   3.034  -5.752  0.00  0.00    +0.218 C 
ATOM     24  O   UNL     1       4.421   2.828  -5.804  0.00  0.00    -0.276 OA
ATOM     25  N   UNL     1       6.120   4.191  -6.226  0.00  0.00    -0.298 N 
ATOM     26  C   UNL     1       7.564   4.463  -6.167  0.00  0.00    +0.126 C 
ATOM     27  C   UNL     1       8.032   4.887  -7.569  0.00  0.00    +0.124 C 
ATOM     28  N   UNL     1       7.207   6.009  -8.036  0.00  0.00    -0.327 N 
ATOM     29  C   UNL     1       5.800   5.612  -8.180  0.00  0.00    +0.124 C 
ATOM     30  C   UNL     1       5.242   5.216  -6.809  0.00  0.00    +0.126 C 
BRANCH  28  31
ATOM     31  C   UNL     1       7.705   6.533  -9.233  0.00  0.00    +0.030 A 
ATOM     32  C   UNL     1       6.886   6.614 -10.351  0.00  0.00    +0.026 A 
ATOM     33  C   UNL     1       7.379   7.136 -11.531  0.00  0.00    +0.040 A 
ATOM     34  C   UNL     1       8.692   7.569 -11.602  0.00  0.00    +0.124 A 
ATOM     35  C   UNL     1       9.512   7.485 -10.490  0.00  0.00    +0.040 A 
ATOM     36  C   UNL     1       9.022   6.969  -9.306  0.00  0.00    +0.026 A 
ATOM     37  F   UNL     1       9.173   8.076 -12.758  0.00  0.00    -0.205 F 
ENDBRANCH  28  31
ENDBRANCH  22  23
ENDBRANCH   4  22
TORSDOF 9
