REMARK  Name = ZINC65329872
REMARK  9 active torsions:
REMARK  status: ('A' for Active; 'I' for Inactive)
REMARK    1  A    between atoms: C_1  and  C_2
REMARK    2  A    between atoms: C_5  and  C_8
REMARK    3  A    between atoms: C_8  and  N_10
REMARK    4  A    between atoms: N_12  and  C_13
REMARK    5  A    between atoms: C_15  and  C_20
REMARK    6  A    between atoms: C_17  and  C_19
REMARK    7  A    between atoms: N_21  and  C_22
REMARK    8  A    between atoms: C_22  and  C_23
REMARK    9  A    between atoms: C_23  and  C_24
REMARK                            x       y       z     vdW  Elec       q    Type
REMARK                         _______ _______ _______ _____ _____    ______ ____
ROOT
ATOM      1  N   UNL     1      -0.889  -5.278   0.993  0.00  0.00    -0.143 NA
ATOM      2  C   UNL     1       0.137  -6.116   0.981  0.00  0.00    +0.194 C 
ATOM      3  N   UNL     1       0.569  -6.650  -0.199  0.00  0.00    -0.328 N 
ATOM      4  N   UNL     1       0.762  -6.444   2.148  0.00  0.00    -0.357 N 
ATOM      5  H   UNL     1       0.911  -7.557  -0.224  0.00  0.00    +0.169 HD
ATOM      6  H   UNL     1       0.412  -6.122   2.993  0.00  0.00    +0.162 HD
ENDROOT
BRANCH   3   7
ATOM      7  C   UNL     1       0.516  -5.889  -1.372  0.00  0.00    +0.042 A 
ATOM      8  C   UNL     1       0.420  -4.505  -1.300  0.00  0.00    +0.029 A 
ATOM      9  C   UNL     1       0.368  -3.757  -2.459  0.00  0.00    -0.048 A 
ATOM     10  C   UNL     1       0.413  -4.384  -3.691  0.00  0.00    +0.006 A 
ATOM     11  C   UNL     1       0.509  -5.761  -3.766  0.00  0.00    -0.048 A 
ATOM     12  C   UNL     1       0.567  -6.515  -2.610  0.00  0.00    +0.029 A 
ATOM     13  C   UNL     1       0.557  -6.441  -5.111  0.00  0.00    +0.044 C 
ATOM     14  C   UNL     1       0.264  -2.256  -2.382  0.00  0.00    +0.044 C 
ENDBRANCH   3   7
BRANCH   1  15
ATOM     15  C   UNL     1      -1.769  -5.283  -0.017  0.00  0.00    +0.270 C 
ATOM     16  O   UNL     1      -1.702  -6.141  -0.880  0.00  0.00    -0.268 OA
BRANCH  15  21
ATOM     17  C   UNL     1      -5.870  -1.251  -0.281  0.00  0.00    +0.044 C 
ATOM     18  C   UNL     1      -4.796  -2.306  -0.212  0.00  0.00    -0.050 A 
ATOM     19  C   UNL     1      -4.654  -3.213  -1.247  0.00  0.00    +0.004 A 
ATOM     20  C   UNL     1      -3.674  -4.182  -1.190  0.00  0.00    +0.013 A 
ATOM     21  C   UNL     1      -2.824  -4.245  -0.086  0.00  0.00    +0.039 A 
ATOM     22  C   UNL     1      -2.972  -3.328   0.955  0.00  0.00    +0.013 A 
ATOM     23  C   UNL     1      -3.953  -2.360   0.883  0.00  0.00    +0.004 A 
ENDBRANCH  15  21
ENDBRANCH   1  15
BRANCH   4  24
ATOM     24  C   UNL     1       1.962  -7.285   2.124  0.00  0.00    +0.120 C 
BRANCH  24  25
ATOM     25  C   UNL     1       2.397  -7.593   3.558  0.00  0.00    +0.054 C 
BRANCH  25  26
ATOM     26  C   UNL     1       3.696  -8.356   3.536  0.00  0.00    -0.040 C 
ATOM     27  C   UNL     1       4.942  -7.844   3.657  0.00  0.00    -0.001 A 
ATOM     28  C   UNL     1       5.442  -6.476   3.838  0.00  0.00    +0.010 A 
ATOM     29  C   UNL     1       6.775  -6.271   3.927  0.00  0.00    +0.001 A 
ATOM     30  C   UNL     1       7.691  -7.330   3.852  0.00  0.00    +0.002 A 
ATOM     31  C   UNL     1       7.308  -8.614   3.687  0.00  0.00    +0.026 A 
ATOM     32  C   UNL     1       5.929  -8.945   3.581  0.00  0.00    +0.043 A 
ATOM     33  N   UNL     1       5.317 -10.093   3.419  0.00  0.00    -0.380 N 
ATOM     34  C   UNL     1       3.871  -9.850   3.380  0.00  0.00    +0.144 C 
ATOM     35  H   UNL     1       5.748 -10.958   3.342  0.00  0.00    +0.160 HD
ENDBRANCH  25  26
ENDBRANCH  24  25
ENDBRANCH   4  24
TORSDOF 6
