REMARK  Name = ZINC12135376
REMARK  9 active torsions:
REMARK  status: ('A' for Active; 'I' for Inactive)
REMARK    1  A    between atoms: C_1  and  O_2
REMARK    2  A    between atoms: O_2  and  C_3
REMARK    3  A    between atoms: C_8  and  C_9
REMARK    4  A    between atoms: C_20  and  C_21
REMARK    5  A    between atoms: C_20  and  N_66
REMARK    6  A    between atoms: C_21  and  N_22
REMARK    7  A    between atoms: C_23  and  C_25
REMARK    8  A    between atoms: C_25  and  C_26
REMARK    9  A    between atoms: C_26  and  N_27
REMARK                            x       y       z     vdW  Elec       q    Type
REMARK                         _______ _______ _______ _____ _____    ______ ____
ROOT
ATOM      1  C   UNL     1       2.156   0.716  -1.978  0.00  0.00    +0.191 C 
ATOM      2  C   UNL     1       1.924   2.072  -1.347  0.00  0.00    -0.028 C 
ATOM      3  C   UNL     1      -0.018   1.512   0.010  0.00  0.00    -0.039 C 
ATOM      4  C   UNL     1       0.002  -0.004   0.002  0.00  0.00    -0.022 A 
ATOM      5  C   UNL     1      -0.421  -0.710   1.110  0.00  0.00    +0.005 A 
ATOM      6  C   UNL     1      -0.415  -2.093   1.084  0.00  0.00    +0.000 A 
ATOM      7  C   UNL     1       0.011  -2.764  -0.048  0.00  0.00    +0.004 A 
ATOM      8  C   UNL     1       0.440  -2.057  -1.155  0.00  0.00    +0.046 A 
ATOM      9  C   UNL     1       0.444  -0.669  -1.125  0.00  0.00    +0.123 A 
ATOM     10  O   UNL     1       0.912   0.036  -2.191  0.00  0.00    -0.486 OA
ATOM     11  N   UNL     1       1.387   1.985   0.027  0.00  0.00    +0.386 N 
ATOM     12  H   UNL     1       1.953   1.315   0.561  0.00  0.00    -0.081 HD
ENDROOT
BRANCH   1  18
ATOM     13  C   UNL     1       4.235   1.040  -3.341  0.00  0.00    +0.127 A 
ATOM     14  C   UNL     1       4.877   1.201  -4.560  0.00  0.00    +0.046 A 
ATOM     15  C   UNL     1       4.141   1.229  -5.729  0.00  0.00    +0.004 A 
ATOM     16  C   UNL     1       2.766   1.091  -5.684  0.00  0.00    +0.001 A 
ATOM     17  C   UNL     1       2.124   0.924  -4.471  0.00  0.00    +0.011 A 
ATOM     18  C   UNL     1       2.856   0.896  -3.300  0.00  0.00    +0.032 A 
BRANCH  13  20
ATOM     19  C   UNL     1       6.372   1.172  -2.308  0.00  0.00    +0.277 C 
ATOM     20  O   UNL     1       4.956   1.018  -2.189  0.00  0.00    -0.495 OA
ENDBRANCH  13  20
ENDBRANCH   1  18
BRANCH  11  21
ATOM     21  C   UNL     1       1.466   3.302   0.679  0.00  0.00    -0.059 C 
BRANCH  21  22
ATOM     22  C   UNL     1       1.155   3.125   2.167  0.00  0.00    +0.085 C 
BRANCH  22  23
ATOM     23  N   UNL     1       1.257   4.420   2.845  0.00  0.00    -0.317 N 
ATOM     24  C   UNL     1       1.022   4.507   4.169  0.00  0.00    +0.215 C 
ATOM     25  O   UNL     1       0.727   3.514   4.800  0.00  0.00    -0.276 OA
ATOM     26  H   UNL     1       1.493   5.214   2.340  0.00  0.00    +0.149 HD
BRANCH  24  27
ATOM     27  C   UNL     1       1.128   5.839   4.866  0.00  0.00    +0.117 C 
BRANCH  27  28
ATOM     28  C   UNL     1       0.816   5.662   6.353  0.00  0.00    +0.136 C 
BRANCH  28  29
ATOM     29  N   UNL     1       0.918   6.957   7.031  0.00  0.00    -0.292 N 
ATOM     30  C   UNL     1      -0.118   7.872   7.202  0.00  0.00    +0.070 A 
ATOM     31  C   UNL     1      -1.455   7.875   6.833  0.00  0.00    +0.028 A 
ATOM     32  C   UNL     1      -2.254   8.956   7.153  0.00  0.00    +0.002 A 
ATOM     33  C   UNL     1      -1.726  10.035   7.841  0.00  0.00    +0.002 A 
ATOM     34  C   UNL     1      -0.396  10.040   8.213  0.00  0.00    +0.028 A 
ATOM     35  C   UNL     1       0.414   8.960   7.896  0.00  0.00    +0.067 A 
ATOM     36  N   UNL     1       1.758   8.673   8.125  0.00  0.00    -0.306 N 
ATOM     37  H   UNL     1       2.390   9.245   8.588  0.00  0.00    +0.170 HD
ATOM     38  C   UNL     1       2.028   7.463   7.600  0.00  0.00    +0.328 A 
ATOM     39  O   UNL     1       3.113   6.912   7.632  0.00  0.00    -0.247 OA
ENDBRANCH  28  29
ENDBRANCH  27  28
ENDBRANCH  24  27
ENDBRANCH  22  23
ENDBRANCH  21  22
ENDBRANCH  11  21
TORSDOF 8
