REMARK  Name = ZINC39455136
REMARK  9 active torsions:
REMARK  status: ('A' for Active; 'I' for Inactive)
REMARK    1  A    between atoms: C_1  and  C_2
REMARK    2  A    between atoms: C_2  and  C_3
REMARK    3  A    between atoms: C_2  and  C_4
REMARK    4  A    between atoms: C_4  and  C_5
REMARK    5  A    between atoms: C_5  and  N_6
REMARK    6  A    between atoms: C_19  and  N_23
REMARK    7  A    between atoms: N_23  and  C_24
REMARK    8  A    between atoms: C_24  and  C_25
REMARK    9  A    between atoms: C_25  and  C_26
REMARK                            x       y       z     vdW  Elec       q    Type
REMARK                         _______ _______ _______ _____ _____    ______ ____
ROOT
ATOM      1  N   UNL     1       2.873  -0.545  -2.413  0.00  0.00    -0.262 N 
ATOM      2  C   UNL     1       3.465  -1.786  -2.426  0.00  0.00    +0.186 C 
ATOM      3  N   UNL     1       3.733  -2.389  -3.526  0.00  0.00    -0.261 NA
ATOM      4  C   UNL     1       3.443  -1.815  -4.837  0.00  0.00    +0.184 C 
ATOM      5  C   UNL     1       3.533  -0.270  -4.766  0.00  0.00    +0.137 C 
ATOM      6  C   UNL     1       2.920   0.233  -3.511  0.00  0.00    +0.230 C 
ATOM      7  O   UNL     1       2.446   1.348  -3.480  0.00  0.00    -0.274 OA
ATOM      8  C   UNL     1       4.970   0.183  -4.824  0.00  0.00    -0.046 C 
ATOM      9  C   UNL     1       5.843  -0.643  -5.396  0.00  0.00    -0.014 C 
ATOM     10  S   UNL     1       4.910  -2.115  -5.922  0.00  0.00    -0.102 S 
ATOM     11  C   UNL     1       7.314  -0.414  -5.588  0.00  0.00    +0.026 C 
ATOM     12  C   UNL     1       7.614   1.072  -5.356  0.00  0.00    -0.067 C 
ATOM     13  C   UNL     1       6.931   1.510  -4.056  0.00  0.00    -0.011 C 
ATOM     14  C   UNL     1       5.415   1.528  -4.257  0.00  0.00    +0.031 C 
ENDROOT
BRANCH  12  15
ATOM     15  N   UNL     1       9.066   1.271  -5.245  0.00  0.00    +0.381 N 
ATOM     16  H   UNL     1       9.257   2.233  -5.011  0.00  0.00    -0.086 HD
ATOM     17  H   UNL     1       9.434   0.670  -4.523  0.00  0.00    -0.086 HD
BRANCH  15  18
ATOM     18  C   UNL     1       9.704   0.943  -6.527  0.00  0.00    -0.075 C 
BRANCH  18  19
ATOM     19  C   UNL     1      11.215   1.149  -6.412  0.00  0.00    +0.055 C 
BRANCH  19  20
ATOM     20  C   UNL     1      11.870   0.812  -7.727  0.00  0.00    +0.106 A 
ATOM     21  N   UNL     1      11.740  -0.319  -8.357  0.00  0.00    -0.233 NA
ATOM     22  C   UNL     1      12.461  -0.287  -9.507  0.00  0.00    +0.089 A 
ATOM     23  C   UNL     1      12.673  -1.207 -10.536  0.00  0.00    +0.030 A 
ATOM     24  C   UNL     1      13.474  -0.874 -11.592  0.00  0.00    +0.002 A 
ATOM     25  C   UNL     1      14.081   0.371 -11.655  0.00  0.00    +0.002 A 
ATOM     26  C   UNL     1      13.886   1.295 -10.650  0.00  0.00    +0.028 A 
ATOM     27  C   UNL     1      13.076   0.975  -9.569  0.00  0.00    +0.066 A 
ATOM     28  N   UNL     1      12.678   1.649  -8.432  0.00  0.00    -0.342 N 
ATOM     29  H   UNL     1      12.930   2.552  -8.182  0.00  0.00    +0.167 HD
ENDBRANCH  19  20
ENDBRANCH  18  19
ENDBRANCH  15  18
ENDBRANCH  12  15
BRANCH   1  30
ATOM     30  C   UNL     1       2.187  -0.073  -1.207  0.00  0.00    +0.115 C 
BRANCH  30  31
ATOM     31  C   UNL     1       0.718  -0.497  -1.257  0.00  0.00    +0.022 C 
BRANCH  31  33
ATOM     32  C   UNL     1      -0.019   1.526   0.010  0.00  0.00    +0.007 C 
ATOM     33  C   UNL     1       0.002  -0.004   0.002  0.00  0.00    -0.016 C 
ATOM     34  C   UNL     1      -1.433  -0.534   0.013  0.00  0.00    +0.007 C 
ENDBRANCH  31  33
ENDBRANCH  30  31
ENDBRANCH   1  30
TORSDOF 7
