REMARK  Name = ZINC40826716
REMARK  7 active torsions:
REMARK  status: ('A' for Active; 'I' for Inactive)
REMARK    1  A    between atoms: C_1  and  C_2
REMARK    2  A    between atoms: C_6  and  C_12
REMARK    3  A    between atoms: C_10  and  C_11
REMARK    4  A    between atoms: C_12  and  C_13
REMARK    5  A    between atoms: N_15  and  N_16
REMARK    6  A    between atoms: C_23  and  C_34
REMARK    7  A    between atoms: C_24  and  C_26
REMARK                            x       y       z     vdW  Elec       q    Type
REMARK                         _______ _______ _______ _____ _____    ______ ____
ROOT
ATOM      1  N   UNL     1       3.061  -6.917  -2.326  0.00  0.00    -0.184 NA
ATOM      2  C   UNL     1       3.306  -7.885  -3.155  0.00  0.00    +0.070 C 
ATOM      3  C   UNL     1       2.205  -8.758  -3.739  0.00  0.00    +0.058 C 
ATOM      4  C   UNL     1       2.688 -10.212  -3.725  0.00  0.00    +0.014 C 
ATOM      5  C   UNL     1       3.895 -10.389  -4.649  0.00  0.00    +0.075 C 
ATOM      6  C   UNL     1       4.952  -9.375  -4.293  0.00  0.00    +0.115 A 
ATOM      7  C   UNL     1       4.676  -8.216  -3.606  0.00  0.00    +0.042 A 
ATOM      8  C   UNL     1       5.881  -7.517  -3.456  0.00  0.00    +0.009 A 
ATOM      9  C   UNL     1       6.841  -8.276  -4.066  0.00  0.00    +0.193 A 
ATOM     10  O   UNL     1       6.257  -9.396  -4.557  0.00  0.00    -0.454 OA
ATOM     11  C   UNL     1       6.079  -6.194  -2.762  0.00  0.00    +0.048 C 
ENDROOT
BRANCH   9  12
ATOM     12  C   UNL     1       8.266  -7.941  -4.160  0.00  0.00    +0.285 C 
ATOM     13  O   UNL     1       8.682  -6.908  -3.669  0.00  0.00    -0.266 OA
ATOM     14  N   UNL     1       9.114  -8.777  -4.791  0.00  0.00    -0.258 N 
ATOM     15  C   UNL     1      10.463  -8.459  -4.880  0.00  0.00    +0.165 A 
ATOM     16  N   UNL     1      11.087  -7.401  -4.409  0.00  0.00    -0.233 NA
ATOM     17  C   UNL     1      12.387  -7.243  -4.579  0.00  0.00    +0.120 A 
ATOM     18  C   UNL     1      13.042  -8.217  -5.256  0.00  0.00    +0.068 A 
ATOM     19  S   UNL     1      11.698  -9.338  -5.611  0.00  0.00    -0.061 S 
ATOM     20  H   UNL     1       8.783  -9.600  -5.182  0.00  0.00    +0.157 HD
ENDBRANCH   9  12
BRANCH   1  23
ATOM     21  C   UNL     1       1.489  -5.643  -1.072  0.00  0.00    +0.237 C 
ATOM     22  O   UNL     1       2.401  -4.971  -0.637  0.00  0.00    -0.274 OA
ATOM     23  N   UNL     1       1.744  -6.648  -1.933  0.00  0.00    -0.206 N 
ATOM     24  H   UNL     1       1.015  -7.185  -2.281  0.00  0.00    +0.177 HD
BRANCH  21  25
ATOM     25  C   UNL     1       0.071  -5.354  -0.650  0.00  0.00    +0.136 C 
BRANCH  25  31
ATOM     26  C   UNL     1      -0.018   1.503   0.010  0.00  0.00    +0.044 C 
ATOM     27  C   UNL     1       0.002  -0.004   0.002  0.00  0.00    -0.044 A 
ATOM     28  C   UNL     1       0.006  -0.684  -1.207  0.00  0.00    +0.004 A 
ATOM     29  C   UNL     1       0.024  -2.051  -1.233  0.00  0.00    +0.012 A 
ATOM     30  C   UNL     1       0.039  -2.764  -0.035  0.00  0.00    +0.024 A 
ATOM     31  C   UNL     1       0.060  -4.191   0.309  0.00  0.00    +0.007 A 
ATOM     32  C   UNL     1       0.068  -4.252   1.648  0.00  0.00    +0.200 A 
ATOM     33  O   UNL     1       0.054  -3.012   2.168  0.00  0.00    -0.462 OA
ATOM     34  C   UNL     1       0.036  -2.082   1.192  0.00  0.00    +0.138 A 
ATOM     35  C   UNL     1       0.023  -0.693   1.196  0.00  0.00    -0.005 A 
ATOM     36  C   UNL     1       0.025   0.060   2.502  0.00  0.00    +0.048 C 
ENDBRANCH  25  31
ENDBRANCH  21  25
ENDBRANCH   1  23
TORSDOF 4
