REMARK  Name = ZINC11393101
REMARK  8 active torsions:
REMARK  status: ('A' for Active; 'I' for Inactive)
REMARK    1  A    between atoms: C_2  and  C_3
REMARK    2  A    between atoms: C_3  and  N_4
REMARK    3  A    between atoms: C_8  and  S_10
REMARK    4  A    between atoms: S_10  and  C_11
REMARK    5  A    between atoms: C_11  and  C_12
REMARK    6  A    between atoms: N_14  and  C_15
REMARK    7  A    between atoms: C_19  and  S_21
REMARK    8  A    between atoms: S_21  and  N_24
REMARK                            x       y       z     vdW  Elec       q    Type
REMARK                         _______ _______ _______ _____ _____    ______ ____
ROOT
ATOM      1  C   UNL     1       2.709   7.791   3.960  0.00  0.00    +0.035 A 
ATOM      2  C   UNL     1       3.964   7.266   4.244  0.00  0.00    +0.023 A 
ATOM      3  C   UNL     1       4.242   5.947   3.945  0.00  0.00    +0.004 A 
ATOM      4  C   UNL     1       3.272   5.147   3.369  0.00  0.00    +0.029 A 
ATOM      5  C   UNL     1       2.024   5.668   3.081  0.00  0.00    +0.114 A 
ATOM      6  C   UNL     1       1.739   6.987   3.377  0.00  0.00    +0.052 A 
ENDROOT
BRANCH   1   9
ATOM      7  C   UNL     1       1.179   9.482   4.638  0.00  0.00    +0.227 C 
ATOM      8  O   UNL     1       0.331   8.631   4.806  0.00  0.00    -0.275 OA
ATOM      9  N   UNL     1       2.424   9.127   4.262  0.00  0.00    -0.285 N 
ATOM     10  H   UNL     1       3.122   9.798   4.201  0.00  0.00    +0.155 HD
BRANCH   7  11
ATOM     11  C   UNL     1       0.840  10.935   4.847  0.00  0.00    +0.172 C 
BRANCH  11  12
ATOM     12  S   UNL     1      -0.898  11.086   5.344  0.00  0.00    -0.088 S 
BRANCH  12  17
ATOM     13  N   UNL     1      -2.520  16.581   6.232  0.00  0.00    -0.319 N 
ATOM     14  C   UNL     1      -1.913  15.359   5.966  0.00  0.00    +0.183 A 
ATOM     15  N   UNL     1      -0.672  15.105   5.600  0.00  0.00    -0.125 NA
ATOM     16  N   UNL     1      -0.273  13.806   5.386  0.00  0.00    -0.133 NA
ATOM     17  C   UNL     1      -1.134  12.820   5.548  0.00  0.00    +0.160 A 
ATOM     18  S   UNL     1      -2.606  13.714   6.022  0.00  0.00    -0.025 S 
ATOM     19  H   UNL     1      -3.453  16.611   6.495  0.00  0.00    +0.148 HD
BRANCH  13  20
ATOM     20  C   UNL     1      -1.751  17.822   6.115  0.00  0.00    +0.130 C 
BRANCH  20  22
ATOM     21  C   UNL     1      -2.272  19.839   7.388  0.00  0.00    +0.005 C 
ATOM     22  C   UNL     1      -2.635  18.994   6.455  0.00  0.00    -0.016 C 
ENDBRANCH  20  22
ENDBRANCH  13  20
ENDBRANCH  12  17
ENDBRANCH  11  12
ENDBRANCH   7  11
ENDBRANCH   1   9
BRANCH   5  23
ATOM     23  S   UNL     1       0.794   4.646   2.341  0.00  0.00    +0.100 S 
ATOM     24  O   UNL     1      -0.464   5.216   2.678  0.00  0.00    -0.146 OA
ATOM     25  O   UNL     1       1.133   3.304   2.664  0.00  0.00    -0.146 OA
BRANCH  23  26
ATOM     26  N   UNL     1       0.956   4.794   0.700  0.00  0.00    -0.118 NA
ATOM     27  C   UNL     1       0.167   4.141  -0.089  0.00  0.00    +0.117 C 
ATOM     28  C   UNL     1      -0.890   3.256   0.445  0.00  0.00    +0.073 C 
ATOM     29  C   UNL     1      -0.490   1.782   0.628  0.00  0.00    +0.008 C 
ATOM     30  C   UNL     1       0.367   1.313  -0.577  0.00  0.00    +0.002 C 
ATOM     31  C   UNL     1      -0.139   1.861  -1.884  0.00  0.00    +0.019 C 
ATOM     32  C   UNL     1       0.705   3.105  -2.184  0.00  0.00    +0.102 C 
ATOM     33  N   UNL     1       0.282   4.247  -1.484  0.00  0.00    -0.331 N 
ATOM     34  H   UNL     1       0.077   5.075  -1.946  0.00  0.00    +0.147 HD
ENDBRANCH  23  26
ENDBRANCH   5  23
TORSDOF 8
