REMARK  Name = ZINC47340971
REMARK  3 active torsions:
REMARK  status: ('A' for Active; 'I' for Inactive)
REMARK    1  A    between atoms: C_2  and  C_11
REMARK    2  A    between atoms: N_13  and  N_14
REMARK    3  A    between atoms: N_14  and  C_15
REMARK                            x       y       z     vdW  Elec       q    Type
REMARK                         _______ _______ _______ _____ _____    ______ ____
ROOT
ATOM      1  C   UNL     1       1.187   3.579  -0.298  0.00  0.00    +0.260 C 
ATOM      2  O   UNL     1       0.133   4.180  -0.387  0.00  0.00    -0.269 OA
ATOM      3  N   UNL     1       2.334   4.257  -0.097  0.00  0.00    -0.232 N 
ATOM      4  H   UNL     1       3.174   3.778  -0.025  0.00  0.00    +0.173 HD
ENDROOT
BRANCH   1   6
ATOM      5  C   UNL     1       0.020   1.403  -0.618  0.00  0.00    +0.062 A 
ATOM      6  C   UNL     1       1.209   2.108  -0.409  0.00  0.00    +0.043 A 
ATOM      7  C   UNL     1       2.418   1.416  -0.307  0.00  0.00    +0.037 A 
ATOM      8  C   UNL     1       2.436   0.041  -0.412  0.00  0.00    +0.087 A 
ATOM      9  C   UNL     1       1.255  -0.660  -0.620  0.00  0.00    +0.184 A 
ATOM     10  C   UNL     1       0.044   0.026  -0.722  0.00  0.00    +0.168 A 
ATOM     11  O   UNL     1      -0.955  -0.882  -0.923  0.00  0.00    -0.453 OA
ATOM     12  C   UNL     1      -0.296  -2.090  -1.349  0.00  0.00    +0.466 C 
ATOM     13  O   UNL     1       1.012  -1.995  -0.755  0.00  0.00    -0.451 OA
ATOM     14 CL   UNL     1       3.941  -0.816  -0.285  0.00  0.00    -0.080 Cl
ENDBRANCH   1   6
BRANCH   3  15
ATOM     15  N   UNL     1       2.313   5.654   0.009  0.00  0.00    -0.259 N 
ATOM     16  H   UNL     1       1.466   6.128   0.015  0.00  0.00    +0.170 HD
BRANCH  15  17
ATOM     17  C   UNL     1       3.515   6.368   0.107  0.00  0.00    +0.121 A 
ATOM     18  C   UNL     1       4.639   5.936  -0.587  0.00  0.00    +0.186 A 
ATOM     19  C   UNL     1       5.826   6.643  -0.489  0.00  0.00    +0.198 A 
ATOM     20  C   UNL     1       5.894   7.779   0.302  0.00  0.00    +0.199 A 
ATOM     21  C   UNL     1       4.775   8.210   0.996  0.00  0.00    +0.198 A 
ATOM     22  C   UNL     1       3.584   7.510   0.895  0.00  0.00    +0.186 A 
ATOM     23  F   UNL     1       2.491   7.934   1.567  0.00  0.00    -0.200 F 
ATOM     24  F   UNL     1       4.843   9.318   1.767  0.00  0.00    -0.199 F 
ATOM     25  F   UNL     1       7.053   8.466   0.397  0.00  0.00    -0.199 F 
ATOM     26  F   UNL     1       6.918   6.224  -1.165  0.00  0.00    -0.199 F 
ATOM     27  F   UNL     1       4.573   4.829  -1.358  0.00  0.00    -0.200 F 
ENDBRANCH  15  17
ENDBRANCH   3  15
TORSDOF 3
