REMARK  Name = ZINC14475877
REMARK  3 active torsions:
REMARK  status: ('A' for Active; 'I' for Inactive)
REMARK    1  A    between atoms: C_9  and  C_18
REMARK    2  A    between atoms: C_20  and  N_25
REMARK    3  A    between atoms: C_23  and  O_24
REMARK                            x       y       z     vdW  Elec       q    Type
REMARK                         _______ _______ _______ _____ _____    ______ ____
ROOT
ATOM      1  C   UNL     1      -0.017   1.378   0.010  0.00  0.00    +0.001 A 
ATOM      2  C   UNL     1       1.172   2.086   0.002  0.00  0.00    +0.006 A 
ATOM      3  C   UNL     1       2.378   1.419  -0.009  0.00  0.00    -0.018 A 
ATOM      4  C   UNL     1       2.405   0.020  -0.003  0.00  0.00    +0.046 A 
ATOM      5  C   UNL     1       1.205  -0.681  -0.004  0.00  0.00    +0.039 A 
ATOM      6  C   UNL     1       0.002  -0.004   0.002  0.00  0.00    +0.017 A 
ATOM      7 BR   UNL     1       1.221  -2.572  -0.017  0.00  0.00    -0.048 Br
ATOM      8  N   UNL     1       3.614  -0.688   0.029  0.00  0.00    -0.336 N 
ATOM      9  C   UNL     1       4.915   0.016   0.020  0.00  0.00    +0.109 C 
ATOM     10  C   UNL     1       4.692   1.298   0.801  0.00  0.00    +0.029 C 
ATOM     11  C   UNL     1       3.676   2.127  -0.040  0.00  0.00    +0.049 C 
ATOM     12  C   UNL     1       3.832   3.503   0.498  0.00  0.00    -0.023 C 
ATOM     13  C   UNL     1       5.067   3.638   0.965  0.00  0.00    -0.030 C 
ATOM     14  C   UNL     1       5.844   2.312   0.826  0.00  0.00    +0.033 C 
ATOM     15  H   UNL     1       3.597  -1.657   0.058  0.00  0.00    +0.147 HD
ENDROOT
BRANCH   9  16
ATOM     16  C   UNL     1       5.326   0.331  -1.395  0.00  0.00    +0.017 A 
ATOM     17  C   UNL     1       4.367   0.458  -2.382  0.00  0.00    +0.041 A 
ATOM     18  C   UNL     1       4.744   0.747  -3.681  0.00  0.00    +0.127 A 
ATOM     19  C   UNL     1       6.081   0.908  -3.995  0.00  0.00    +0.036 A 
ATOM     20  C   UNL     1       7.043   0.781  -3.013  0.00  0.00    +0.048 A 
ATOM     21  C   UNL     1       6.667   0.498  -1.708  0.00  0.00    +0.122 A 
BRANCH  18  22
ATOM     22  N   UNL     1       3.715   0.882  -4.736  0.00  0.00    +0.056 N 
ATOM     23  O   UNL     1       2.546   0.741  -4.462  0.00  0.00    -0.126 OA
ATOM     24  O   UNL     1       4.044   1.134  -5.872  0.00  0.00    -0.126 OA
ENDBRANCH  18  22
BRANCH  21  25
ATOM     25  O   UNL     1       7.612   0.378  -0.738  0.00  0.00    -0.506 OA
ATOM     26  H   UNL     1       7.953  -0.521  -0.630  0.00  0.00    +0.292 HD
ENDBRANCH  21  25
ENDBRANCH   9  16
TORSDOF 3
