REMARK  Name = ZINC02465193
REMARK  3 active torsions:
REMARK  status: ('A' for Active; 'I' for Inactive)
REMARK    1  A    between atoms: C_1  and  C_2
REMARK    2  A    between atoms: N_8  and  S_9
REMARK    3  A    between atoms: S_9  and  C_12
REMARK                            x       y       z     vdW  Elec       q    Type
REMARK                         _______ _______ _______ _____ _____    ______ ____
ROOT
ATOM      1  S   UNL     1       0.045  -1.881   3.766  0.00  0.00    +0.103 S 
ATOM      2  O   UNL     1       1.282  -1.184   3.835  0.00  0.00    -0.146 OA
ATOM      3  O   UNL     1      -1.209  -1.217   3.846  0.00  0.00    -0.146 OA
ENDROOT
BRANCH   1   4
ATOM      4  C   UNL     1       0.067  -3.074   5.062  0.00  0.00    +0.138 A 
ATOM      5  C   UNL     1       1.136  -3.153   5.900  0.00  0.00    +0.031 A 
ATOM      6  C   UNL     1       1.174  -4.089   6.931  0.00  0.00    +0.003 A 
ATOM      7  C   UNL     1       0.140  -4.953   7.130  0.00  0.00    +0.010 A 
ATOM      8  C   UNL     1      -0.980  -4.899   6.284  0.00  0.00    +0.002 A 
ATOM      9  C   UNL     1      -1.023  -3.945   5.238  0.00  0.00    +0.098 A 
ATOM     10  N   UNL     1      -2.089  -3.887   4.433  0.00  0.00    -0.253 NA
ATOM     11  C   UNL     1      -3.107  -4.697   4.593  0.00  0.00    +0.111 A 
ATOM     12  C   UNL     1      -3.131  -5.654   5.604  0.00  0.00    +0.020 A 
ATOM     13  C   UNL     1      -2.070  -5.774   6.455  0.00  0.00    +0.011 A 
ENDBRANCH   1   4
BRANCH   1  21
ATOM     14  C   UNL     1      -0.018   1.503   0.010  0.00  0.00    +0.063 C 
ATOM     15  C   UNL     1       0.002  -0.004   0.002  0.00  0.00    +0.015 A 
ATOM     16  C   UNL     1       0.005  -0.665  -1.175  0.00  0.00    +0.021 A 
ATOM     17  C   UNL     1       0.024  -2.070  -1.202  0.00  0.00    +0.005 A 
ATOM     18  C   UNL     1       0.039  -2.765  -0.034  0.00  0.00    +0.048 A 
ATOM     19  C   UNL     1       0.036  -2.058   1.192  0.00  0.00    +0.153 A 
ATOM     20  N   UNL     1       0.022  -0.684   1.183  0.00  0.00    -0.343 N 
ATOM     21  N   UNL     1       0.050  -2.713   2.334  0.00  0.00    -0.111 NA
ATOM     22  H   UNL     1       0.024  -0.196   2.021  0.00  0.00    +0.167 HD
ENDBRANCH   1  21
TORSDOF 2
