REMARK  Name = ZINC36500771
REMARK  11 active torsions:
REMARK  status: ('A' for Active; 'I' for Inactive)
REMARK    1  A    between atoms: C_1  and  C_2
REMARK    2  A    between atoms: C_2  and  C_4
REMARK    3  A    between atoms: C_2  and  C_10
REMARK    4  A    between atoms: C_10  and  C_12
REMARK    5  A    between atoms: C_10  and  N_21
REMARK    6  A    between atoms: N_14  and  C_15
REMARK    7  A    between atoms: N_21  and  C_22
REMARK    8  A    between atoms: C_22  and  C_23
REMARK    9  A    between atoms: C_28  and  C_30
REMARK   10  A    between atoms: C_34  and  O_37
REMARK   11  A    between atoms: C_35  and  O_36
REMARK                            x       y       z     vdW  Elec       q    Type
REMARK                         _______ _______ _______ _____ _____    ______ ____
ROOT
ATOM      1  C   UNL     1       0.805   0.044  -1.890  0.00  0.00    +0.170 C 
ENDROOT
BRANCH   1   2
ATOM      2  C   UNL     1       1.692  -1.144  -1.620  0.00  0.00    +0.234 C 
ATOM      3  O   UNL     1       1.768  -2.041  -2.433  0.00  0.00    -0.274 OA
ATOM      4  N   UNL     1       2.402  -1.209  -0.476  0.00  0.00    -0.311 N 
ATOM      5  H   UNL     1       2.341  -0.492   0.174  0.00  0.00    +0.149 HD
BRANCH   4   6
ATOM      6  C   UNL     1       3.264  -2.365  -0.214  0.00  0.00    +0.073 C 
ATOM      7  C   UNL     1       2.434  -3.490   0.408  0.00  0.00    +0.022 C 
ATOM      8  C   UNL     1       3.335  -4.696   0.682  0.00  0.00    +0.002 C 
ATOM      9  C   UNL     1       4.450  -4.291   1.647  0.00  0.00    +0.000 C 
ATOM     10  C   UNL     1       5.280  -3.166   1.025  0.00  0.00    +0.002 C 
ATOM     11  C   UNL     1       4.379  -1.960   0.752  0.00  0.00    +0.022 C 
ENDBRANCH   4   6
ENDBRANCH   1   2
BRANCH   1  12
ATOM     12  N   UNL     1       0.148  -0.122  -3.188  0.00  0.00    -0.278 N 
ATOM     13  C   UNL     1       0.345   0.787  -4.164  0.00  0.00    +0.251 C 
ATOM     14  O   UNL     1       1.051   1.755  -3.960  0.00  0.00    -0.270 OA
BRANCH  13  15
ATOM     15  C   UNL     1      -0.296   0.606  -5.481  0.00  0.00    +0.082 A 
ATOM     16  C   UNL     1      -1.540  -0.027  -5.576  0.00  0.00    +0.017 A 
ATOM     17  C   UNL     1      -2.135  -0.194  -6.806  0.00  0.00    +0.005 A 
ATOM     18  C   UNL     1      -1.509   0.263  -7.955  0.00  0.00    +0.049 A 
ATOM     19  C   UNL     1      -0.278   0.891  -7.877  0.00  0.00    +0.159 A 
ATOM     20  C   UNL     1       0.334   1.072  -6.640  0.00  0.00    +0.171 A 
BRANCH  20  21
ATOM     21  O   UNL     1       1.538   1.693  -6.559  0.00  0.00    -0.503 OA
ATOM     22  H   UNL     1       2.295   1.094  -6.627  0.00  0.00    +0.292 HD
ENDBRANCH  20  21
BRANCH  19  23
ATOM     23  O   UNL     1       0.331   1.336  -9.009  0.00  0.00    -0.503 OA
ATOM     24  H   UNL     1       0.103   2.245  -9.246  0.00  0.00    +0.292 HD
ENDBRANCH  19  23
ENDBRANCH  13  15
BRANCH  12  25
ATOM     25  C   UNL     1      -0.724  -1.275  -3.426  0.00  0.00    +0.183 C 
BRANCH  25  26
ATOM     26  C   UNL     1      -1.982  -1.131  -2.608  0.00  0.00    +0.122 A 
ATOM     27  C   UNL     1      -2.970  -0.248  -2.836  0.00  0.00    +0.046 A 
ATOM     28  C   UNL     1      -3.947  -0.460  -1.835  0.00  0.00    +0.041 A 
ATOM     29  C   UNL     1      -3.496  -1.460  -1.057  0.00  0.00    +0.195 A 
ATOM     30  O   UNL     1      -2.308  -1.867  -1.533  0.00  0.00    -0.466 OA
ENDBRANCH  25  26
ENDBRANCH  12  25
ENDBRANCH   1  12
BRANCH   1  32
ATOM     31  C   UNL     1      -1.155   1.356  -1.065  0.00  0.00    +0.015 C 
ATOM     32  C   UNL     1      -0.254   0.149  -0.791  0.00  0.00    +0.045 C 
BRANCH  32  33
ATOM     33  C   UNL     1       0.422   0.320   0.545  0.00  0.00    -0.042 A 
ATOM     34  C   UNL     1       1.240   1.411   0.771  0.00  0.00    +0.004 A 
ATOM     35  C   UNL     1       1.860   1.568   1.996  0.00  0.00    +0.000 A 
ATOM     36  C   UNL     1       1.662   0.634   2.995  0.00  0.00    +0.000 A 
ATOM     37  C   UNL     1       0.844  -0.457   2.770  0.00  0.00    +0.000 A 
ATOM     38  C   UNL     1       0.220  -0.612   1.546  0.00  0.00    +0.004 A 
ENDBRANCH  32  33
ENDBRANCH   1  32
TORSDOF 10
