REMARK  Name = ZINC39594619
REMARK  7 active torsions:
REMARK  status: ('A' for Active; 'I' for Inactive)
REMARK    1  A    between atoms: C_1  and  C_2
REMARK    2  A    between atoms: C_2  and  C_8
REMARK    3  A    between atoms: C_12  and  C_21
REMARK    4  A    between atoms: N_23  and  C_24
REMARK    5  A    between atoms: C_24  and  C_25
REMARK    6  A    between atoms: C_25  and  C_27
REMARK    7  A    between atoms: C_25  and  N_33
REMARK                            x       y       z     vdW  Elec       q    Type
REMARK                         _______ _______ _______ _____ _____    ______ ____
ROOT
ATOM      1  C   UNL     1      -1.448  -0.416  -0.037  0.00  0.00    +0.222 C 
ATOM      2  O   UNL     1      -1.999  -0.957   0.897  0.00  0.00    -0.275 OA
ATOM      3  N   UNL     1      -2.167  -0.019  -1.106  0.00  0.00    -0.300 N 
ATOM      4  C   UNL     1      -1.665   0.557  -2.376  0.00  0.00    +0.121 C 
ATOM      5  C   UNL     1      -2.550  -0.079  -3.471  0.00  0.00    +0.100 C 
ATOM      6  C   UNL     1      -3.845  -0.482  -2.744  0.00  0.00    -0.004 C 
ATOM      7  C   UNL     1      -3.639  -0.068  -1.280  0.00  0.00    +0.115 C 
ATOM      8  C   UNL     1      -4.054  -1.990  -2.835  0.00  0.00    -0.010 C 
ATOM      9  C   UNL     1      -5.376  -2.359  -2.155  0.00  0.00    -0.082 C 
ATOM     10  N   UNL     1      -6.481  -1.651  -2.813  0.00  0.00    +0.379 N 
ATOM     11  C   UNL     1      -6.320  -0.202  -2.640  0.00  0.00    -0.082 C 
ATOM     12  C   UNL     1      -5.038   0.258  -3.341  0.00  0.00    -0.010 C 
ATOM     13  H   UNL     1      -6.483  -1.873  -3.797  0.00  0.00    -0.086 HD
ATOM     14  H   UNL     1      -7.356  -1.942  -2.403  0.00  0.00    -0.086 HD
ENDROOT
BRANCH   1  16
ATOM     15  C   UNL     1       0.716  -1.065  -1.059  0.00  0.00    +0.021 C 
ATOM     16  C   UNL     1       0.041  -0.186  -0.004  0.00  0.00    +0.044 C 
ATOM     17  C   UNL     1       0.581  -0.546   1.381  0.00  0.00    +0.016 C 
ATOM     18  C   UNL     1      -0.094   0.333   2.436  0.00  0.00    +0.001 C 
ATOM     19  C   UNL     1       0.202   1.805   2.139  0.00  0.00    +0.000 C 
ATOM     20  C   UNL     1      -0.339   2.164   0.754  0.00  0.00    +0.001 C 
ATOM     21  C   UNL     1       0.337   1.286  -0.301  0.00  0.00    +0.016 C 
ENDBRANCH   1  16
BRANCH   5  22
ATOM     22  C   UNL     1      -2.845   0.924  -4.556  0.00  0.00    +0.218 C 
ATOM     23  O   UNL     1      -2.937   2.102  -4.284  0.00  0.00    -0.275 OA
ATOM     24  N   UNL     1      -3.007   0.511  -5.829  0.00  0.00    -0.316 N 
ATOM     25  H   UNL     1      -2.934  -0.431  -6.046  0.00  0.00    +0.149 HD
BRANCH  24  26
ATOM     26  C   UNL     1      -3.294   1.486  -6.884  0.00  0.00    +0.093 C 
BRANCH  26  27
ATOM     27  C   UNL     1      -3.536   0.753  -8.204  0.00  0.00    -0.019 C 
BRANCH  27  28
ATOM     28  C   UNL     1      -2.267   0.064  -8.636  0.00  0.00    -0.041 A 
ATOM     29  C   UNL     1      -2.095  -1.294  -8.417  0.00  0.00    +0.005 A 
ATOM     30  C   UNL     1      -0.912  -1.885  -8.831  0.00  0.00    +0.020 A 
ATOM     31  C   UNL     1       0.051  -1.106  -9.445  0.00  0.00    +0.111 A 
ATOM     32  N   UNL     1      -0.146   0.184  -9.636  0.00  0.00    -0.263 NA
ATOM     33  C   UNL     1      -1.262   0.778  -9.261  0.00  0.00    +0.112 A 
ENDBRANCH  27  28
BRANCH  27  34
ATOM     34  N   UNL     1      -3.944   1.718  -9.233  0.00  0.00    +0.385 N 
ATOM     35  C   UNL     1      -4.234   1.015 -10.509  0.00  0.00    -0.078 C 
ATOM     36  C   UNL     1      -5.151   2.012 -11.263  0.00  0.00    -0.020 C 
ATOM     37  C   UNL     1      -6.017   2.609 -10.130  0.00  0.00    -0.020 C 
ATOM     38  C   UNL     1      -5.208   2.379  -8.841  0.00  0.00    -0.078 C 
ATOM     39  H   UNL     1      -3.220   2.407  -9.372  0.00  0.00    -0.081 HD
ENDBRANCH  27  34
ENDBRANCH  26  27
ENDBRANCH  24  26
ENDBRANCH   5  22
TORSDOF 6
