REMARK  Name = ZINC20348673
REMARK  14 active torsions:
REMARK  status: ('A' for Active; 'I' for Inactive)
REMARK    1  A    between atoms: C_1  and  C_2
REMARK    2  A    between atoms: C_2  and  N_3
REMARK    3  A    between atoms: N_3  and  C_4
REMARK    4  A    between atoms: C_4  and  C_5
REMARK    5  A    between atoms: C_6  and  C_8
REMARK    6  A    between atoms: C_8  and  S_9
REMARK    7  A    between atoms: S_9  and  C_10
REMARK    8  A    between atoms: C_11  and  C_36
REMARK    9  A    between atoms: C_12  and  C_29
REMARK   10  A    between atoms: C_14  and  C_18
REMARK   11  A    between atoms: C_15  and  C_17
REMARK   12  A    between atoms: N_20  and  C_21
REMARK   13  A    between atoms: C_26  and  O_27
REMARK   14  A    between atoms: O_27  and  C_28
REMARK                            x       y       z     vdW  Elec       q    Type
REMARK                         _______ _______ _______ _____ _____    ______ ____
ROOT
ATOM      1  C   UNL     1       3.598   3.284   0.347  0.00  0.00    +0.080 C 
ATOM      2  C   UNL     1       2.476   4.050   0.288  0.00  0.00    +0.069 C 
ATOM      3  C   UNL     1       1.151   3.462  -0.111  0.00  0.00    +0.101 C 
ATOM      4  C   UNL     1       1.184   1.964  -0.017  0.00  0.00    +0.044 C 
ATOM      5  C   UNL     1       2.340   1.286   0.052  0.00  0.00    +0.014 C 
ATOM      6  N   UNL     1       3.542   1.940   0.054  0.00  0.00    -0.312 N 
ATOM      7  C   UNL     1       2.315  -0.219   0.130  0.00  0.00    +0.061 C 
ATOM      8  H   UNL     1       4.465   1.389  -0.180  0.00  0.00    +0.152 HD
ENDROOT
BRANCH   3   9
ATOM      9  C   UNL     1       0.831   3.863  -1.528  0.00  0.00    +0.000 A 
ATOM     10  C   UNL     1       1.666   3.478  -2.561  0.00  0.00    +0.007 A 
ATOM     11  C   UNL     1       1.373   3.846  -3.861  0.00  0.00    +0.000 A 
ATOM     12  C   UNL     1       0.245   4.598  -4.130  0.00  0.00    +0.003 A 
ATOM     13  C   UNL     1      -0.592   4.983  -3.100  0.00  0.00    +0.038 A 
ATOM     14  C   UNL     1      -0.301   4.612  -1.798  0.00  0.00    +0.127 A 
ATOM     15  F   UNL     1      -1.121   4.984  -0.790  0.00  0.00    -0.205 F 
ENDBRANCH   3   9
BRANCH   4  16
ATOM     16  C   UNL     1      -0.037   1.247  -0.008  0.00  0.00    +0.247 C 
ATOM     17  O   UNL     1      -0.682   1.156   1.021  0.00  0.00    -0.270 OA
ATOM     18  N   UNL     1      -0.482   0.659  -1.136  0.00  0.00    -0.279 N 
ATOM     19  H   UNL     1       0.142   0.663  -2.042  0.00  0.00    +0.155 HD
BRANCH  18  20
ATOM     20  C   UNL     1      -1.741   0.045  -1.156  0.00  0.00    +0.076 A 
ATOM     21  C   UNL     1      -2.725   0.447  -0.265  0.00  0.00    +0.027 A 
ATOM     22  C   UNL     1      -3.968  -0.158  -0.290  0.00  0.00    +0.002 A 
ATOM     23  C   UNL     1      -4.230  -1.171  -1.194  0.00  0.00    +0.004 A 
ATOM     24  C   UNL     1      -3.252  -1.581  -2.081  0.00  0.00    +0.047 A 
ATOM     25  C   UNL     1      -2.006  -0.976  -2.067  0.00  0.00    +0.141 A 
BRANCH  25  26
ATOM     26  O   UNL     1      -1.043  -1.378  -2.939  0.00  0.00    -0.493 OA
ATOM     27  C   UNL     1      -1.385  -2.429  -3.844  0.00  0.00    +0.277 C 
ENDBRANCH  25  26
ENDBRANCH  18  20
ENDBRANCH   4  16
BRANCH   2  28
ATOM     28  C   UNL     1       2.559   5.444   0.606  0.00  0.00    +0.098 C 
ATOM     29  N   UNL     1       2.626   6.550   0.858  0.00  0.00    -0.191 NA
ENDBRANCH   2  28
BRANCH   1  30
ATOM     30  S   UNL     1       5.135   4.017   0.802  0.00  0.00    -0.100 S 
BRANCH  30  31
ATOM     31  C   UNL     1       6.214   2.567   0.709  0.00  0.00    +0.171 C 
BRANCH  31  33
ATOM     32  N   UNL     1       8.605   2.043   1.067  0.00  0.00    -0.301 N 
ATOM     33  C   UNL     1       7.622   2.966   1.068  0.00  0.00    +0.226 C 
ATOM     34  O   UNL     1       7.872   4.116   1.359  0.00  0.00    -0.275 OA
BRANCH  32  36
ATOM     35  C   UNL     1      10.179   2.274   2.925  0.00  0.00    +0.024 C 
ATOM     36  C   UNL     1       9.974   2.430   1.417  0.00  0.00    +0.104 C 
ENDBRANCH  32  36
BRANCH  32  37
ATOM     37  C   UNL     1       8.304   0.653   0.716  0.00  0.00    +0.104 C 
ATOM     38  C   UNL     1       8.470   0.460  -0.793  0.00  0.00    +0.024 C 
ENDBRANCH  32  37
ENDBRANCH  31  33
ENDBRANCH  30  31
ENDBRANCH   1  30
TORSDOF 10
