REMARK  Name = ZINC09323034
REMARK  11 active torsions:
REMARK  status: ('A' for Active; 'I' for Inactive)
REMARK    1  A    between atoms: C_1  and  O_2
REMARK    2  A    between atoms: O_2  and  C_3
REMARK    3  A    between atoms: C_5  and  C_19
REMARK    4  A    between atoms: C_8  and  O_9
REMARK    5  A    between atoms: O_9  and  C_10
REMARK    6  A    between atoms: C_10  and  C_11
REMARK    7  A    between atoms: C_20  and  C_21
REMARK    8  A    between atoms: C_20  and  C_23
REMARK    9  A    between atoms: N_25  and  C_26
REMARK   10  A    between atoms: C_26  and  C_27
REMARK   11  A    between atoms: C_27  and  C_28
REMARK                            x       y       z     vdW  Elec       q    Type
REMARK                         _______ _______ _______ _____ _____    ______ ____
ROOT
ATOM      1  C   UNL     1      -1.254  -0.756   0.009  0.00  0.00    +0.032 C 
ATOM      2  C   UNL     1      -1.236  -2.129  -0.102  0.00  0.00    +0.114 C 
ENDROOT
BRANCH   1   5
ATOM      3  C   UNL     1       1.368   1.921  -0.031  0.00  0.00    +0.164 A 
ATOM      4  C   UNL     1       0.196   1.239  -0.288  0.00  0.00    +0.057 A 
ATOM      5  C   UNL     1      -0.013  -0.027   0.278  0.00  0.00    -0.019 A 
ATOM      6  C   UNL     1       0.970  -0.592   1.103  0.00  0.00    +0.032 A 
ATOM      7  C   UNL     1       2.136   0.097   1.353  0.00  0.00    +0.087 A 
ATOM      8  C   UNL     1       2.341   1.352   0.791  0.00  0.00    +0.181 A 
ATOM      9 CL   UNL     1       3.353  -0.604   2.373  0.00  0.00    -0.080 Cl
BRANCH   3  11
ATOM     10  C   UNL     1       0.535   3.671  -1.409  0.00  0.00    +0.277 C 
ATOM     11  O   UNL     1       1.574   3.148  -0.579  0.00  0.00    -0.491 OA
ENDBRANCH   3  11
BRANCH   8  12
ATOM     12  O   UNL     1       3.493   2.026   1.041  0.00  0.00    -0.482 OA
BRANCH  12  13
ATOM     13  C   UNL     1       4.583   1.804   0.144  0.00  0.00    +0.267 C 
BRANCH  13  14
ATOM     14  C   UNL     1       5.766   2.630   0.577  0.00  0.00    +0.025 A 
ATOM     15  C   UNL     1       5.672   3.442   1.692  0.00  0.00    +0.010 A 
ATOM     16  C   UNL     1       6.760   4.195   2.093  0.00  0.00    +0.001 A 
ATOM     17  C   UNL     1       7.939   4.146   1.373  0.00  0.00    +0.003 A 
ATOM     18  C   UNL     1       8.034   3.339   0.255  0.00  0.00    +0.039 A 
ATOM     19  C   UNL     1       6.947   2.579  -0.144  0.00  0.00    +0.130 A 
ATOM     20  F   UNL     1       7.039   1.791  -1.237  0.00  0.00    -0.205 F 
ENDBRANCH  13  14
ENDBRANCH  12  13
ENDBRANCH   8  12
ENDBRANCH   1   5
BRANCH   2  21
ATOM     21  C   UNL     1      -2.500  -2.876  -0.205  0.00  0.00    +0.254 C 
ATOM     22  O   UNL     1      -3.561  -2.280  -0.192  0.00  0.00    -0.269 OA
ATOM     23  N   UNL     1      -2.482  -4.219  -0.315  0.00  0.00    -0.310 N 
ATOM     24  H   UNL     1      -1.637  -4.693  -0.325  0.00  0.00    +0.149 HD
BRANCH  23  25
ATOM     25  C   UNL     1      -3.741  -4.962  -0.417  0.00  0.00    +0.109 C 
BRANCH  25  26
ATOM     26  C   UNL     1      -3.442  -6.458  -0.529  0.00  0.00    +0.056 C 
BRANCH  26  27
ATOM     27  C   UNL     1      -4.736  -7.223  -0.635  0.00  0.00    -0.021 A 
ATOM     28  C   UNL     1      -5.407  -7.801   0.374  0.00  0.00    +0.087 A 
ATOM     29  N   UNL     1      -6.540  -8.402  -0.103  0.00  0.00    -0.360 N 
ATOM     30  H   UNL     1      -7.186  -8.882   0.438  0.00  0.00    +0.165 HD
ATOM     31  C   UNL     1      -6.624  -8.227  -1.466  0.00  0.00    +0.047 A 
ATOM     32  C   UNL     1      -5.498  -7.481  -1.859  0.00  0.00    +0.003 A 
ATOM     33  C   UNL     1      -5.317  -7.149  -3.203  0.00  0.00    +0.010 A 
ATOM     34  C   UNL     1      -6.236  -7.551  -4.131  0.00  0.00    +0.001 A 
ATOM     35  C   UNL     1      -7.348  -8.288  -3.748  0.00  0.00    +0.002 A 
ATOM     36  C   UNL     1      -7.546  -8.626  -2.428  0.00  0.00    +0.026 A 
ENDBRANCH  26  27
ENDBRANCH  25  26
ENDBRANCH  23  25
ENDBRANCH   2  21
BRANCH   2  37
ATOM     37  C   UNL     1       0.012  -2.830  -0.117  0.00  0.00    +0.104 C 
ATOM     38  N   UNL     1       1.003  -3.386  -0.130  0.00  0.00    -0.191 NA
ENDBRANCH   2  37
TORSDOF 10
