REMARK  Name = ZINC06050096
REMARK  7 active torsions:
REMARK  status: ('A' for Active; 'I' for Inactive)
REMARK    1  A    between atoms: C_1  and  C_2
REMARK    2  A    between atoms: C_2  and  C_3
REMARK    3  A    between atoms: C_3  and  C_4
REMARK    4  A    between atoms: C_4  and  N_5
REMARK    5  A    between atoms: C_11  and  C_16
REMARK    6  A    between atoms: N_18  and  N_19
REMARK    7  A    between atoms: C_20  and  C_22
REMARK                            x       y       z     vdW  Elec       q    Type
REMARK                         _______ _______ _______ _____ _____    ______ ____
ROOT
ATOM      1  C   UNL     1       1.328   7.353   0.027  0.00  0.00    +0.260 C 
ATOM      2  O   UNL     1       2.543   7.375   0.016  0.00  0.00    -0.269 OA
ATOM      3  N   UNL     1       0.633   8.507   0.040  0.00  0.00    -0.230 N 
ATOM      4  H   UNL     1      -0.337   8.489   0.049  0.00  0.00    +0.173 HD
ENDROOT
BRANCH   1  11
ATOM      5  N   UNL     1      -0.018   1.461   0.010  0.00  0.00    -0.234 N 
ATOM      6  C   UNL     1      -1.137   2.206   0.019  0.00  0.00    +0.254 C 
ATOM      7  O   UNL     1      -2.274   1.779   0.022  0.00  0.00    -0.270 OA
ATOM      8  C   UNL     1      -0.751   3.636   0.028  0.00  0.00    +0.049 A 
ATOM      9  C   UNL     1      -1.460   4.826   0.041  0.00  0.00    +0.014 A 
ATOM     10  C   UNL     1      -0.782   6.033   0.041  0.00  0.00    +0.014 A 
ATOM     11  C   UNL     1       0.612   6.057   0.027  0.00  0.00    +0.039 A 
ATOM     12  C   UNL     1       1.335   4.861   0.015  0.00  0.00    +0.027 A 
ATOM     13  C   UNL     1       0.659   3.653   0.015  0.00  0.00    +0.050 A 
ATOM     14  C   UNL     1       1.081   2.237   0.004  0.00  0.00    +0.254 C 
ATOM     15  O   UNL     1       2.229   1.839  -0.009  0.00  0.00    -0.270 OA
BRANCH   5  16
ATOM     16  C   UNL     1       0.002  -0.004   0.002  0.00  0.00    +0.117 C 
BRANCH  16  17
ATOM     17  C   UNL     1       0.023  -0.522   1.442  0.00  0.00    +0.019 C 
BRANCH  17  19
ATOM     18  C   UNL     1       0.064  -2.569   2.873  0.00  0.00    +0.004 C 
ATOM     19  C   UNL     1       0.043  -2.052   1.433  0.00  0.00    -0.002 C 
ENDBRANCH  17  19
ENDBRANCH  16  17
ENDBRANCH   5  16
ENDBRANCH   1  11
BRANCH   3  20
ATOM     20  N   UNL     1       1.311   9.733   0.040  0.00  0.00    -0.234 N 
ATOM     21  C   UNL     1       0.616  10.888   0.052  0.00  0.00    +0.235 C 
ATOM     22  O   UNL     1      -0.597  10.865   0.063  0.00  0.00    -0.274 OA
ATOM     23  H   UNL     1       2.281   9.751   0.030  0.00  0.00    +0.173 HD
BRANCH  21  24
ATOM     24  C   UNL     1       1.345  12.207   0.052  0.00  0.00    +0.049 C 
ATOM     25  C   UNL     1       2.234  12.298   1.293  0.00  0.00    +0.019 C 
ATOM     26  C   UNL     1       2.975  13.637   1.293  0.00  0.00    -0.009 C 
ATOM     27  C   UNL     1       1.959  14.781   1.308  0.00  0.00    +0.007 C 
ATOM     28  C   UNL     1       1.070  14.690   0.067  0.00  0.00    -0.009 C 
ATOM     29  C   UNL     1       0.329  13.351   0.067  0.00  0.00    +0.019 C 
ATOM     30  C   UNL     1       1.936  14.793  -1.190  0.00  0.00    +0.007 C 
ATOM     31  C   UNL     1       2.951  13.649  -1.205  0.00  0.00    -0.009 C 
ATOM     32  C   UNL     1       3.841  13.740   0.036  0.00  0.00    +0.007 C 
ATOM     33  C   UNL     1       2.211  12.310  -1.205  0.00  0.00    +0.019 C 
ENDBRANCH  21  24
ENDBRANCH   3  20
TORSDOF 6
