REMARK  Name = ZINC00626541
REMARK  11 active torsions:
REMARK  status: ('A' for Active; 'I' for Inactive)
REMARK    1  A    between atoms: N_14  and  C_15
REMARK    2  A    between atoms: C_15  and  C_16
REMARK    3  A    between atoms: C_16  and  C_18
REMARK    4  A    between atoms: C_16  and  O_25
REMARK    5  A    between atoms: C_18  and  N_48
REMARK    6  A    between atoms: C_19  and  C_20
REMARK    7  A    between atoms: C_19  and  N_48
REMARK    8  A    between atoms: C_20  and  O_21
REMARK    9  A    between atoms: C_22  and  C_23
REMARK   10  A    between atoms: C_22  and  N_48
REMARK   11  A    between atoms: C_23  and  O_24
REMARK                            x       y       z     vdW  Elec       q    Type
REMARK                         _______ _______ _______ _____ _____    ______ ____
ROOT
ATOM      1  C   UNL     1      -0.648   2.347  -0.056  0.00  0.00    +0.022 A 
ATOM      2  C   UNL     1       0.460   3.168  -0.060  0.00  0.00    +0.028 A 
ATOM      3  C   UNL     1       1.732   2.619  -0.185  0.00  0.00    +0.050 A 
ATOM      4  C   UNL     1       1.873   1.229  -0.306  0.00  0.00    +0.009 A 
ATOM      5  C   UNL     1       0.746   0.411  -0.300  0.00  0.00    +0.030 A 
ATOM      6  C   UNL     1      -0.508   0.973  -0.182  0.00  0.00    +0.042 A 
ATOM      7 CL   UNL     1      -1.915  -0.043  -0.183  0.00  0.00    -0.084 Cl
ATOM      8  C   UNL     1       3.319   0.963  -0.419  0.00  0.00    +0.009 A 
ATOM      9  C   UNL     1       4.071  -0.201  -0.561  0.00  0.00    +0.030 A 
ATOM     10  C   UNL     1       5.446  -0.123  -0.642  0.00  0.00    +0.042 A 
ATOM     11  C   UNL     1       6.080   1.110  -0.583  0.00  0.00    +0.022 A 
ATOM     12  C   UNL     1       5.347   2.268  -0.443  0.00  0.00    +0.028 A 
ATOM     13  C   UNL     1       3.959   2.210  -0.359  0.00  0.00    +0.050 A 
ATOM     14  N   UNL     1       2.993   3.190  -0.219  0.00  0.00    -0.337 N 
ATOM     15 CL   UNL     1       6.386  -1.572  -0.819  0.00  0.00    -0.084 Cl
ENDROOT
BRANCH  14  16
ATOM     16  C   UNL     1       3.265   4.626  -0.120  0.00  0.00    +0.151 C 
BRANCH  16  17
ATOM     17  C   UNL     1       3.268   5.242  -1.521  0.00  0.00    +0.118 C 
BRANCH  17  18
ATOM     18  O   UNL     1       4.356   4.703  -2.275  0.00  0.00    -0.392 OA
ATOM     19  H   UNL     1       5.225   4.870  -1.887  0.00  0.00    +0.210 HD
ENDBRANCH  17  18
BRANCH  17  20
ATOM     20  C   UNL     1       3.428   6.760  -1.410  0.00  0.00    -0.045 C 
BRANCH  20  21
ATOM     21  N   UNL     1       3.330   7.349  -2.762  0.00  0.00    +0.384 N 
ATOM     22  H   UNL     1       3.982   6.860  -3.387  0.00  0.00    -0.082 HD
BRANCH  21  23
ATOM     23  C   UNL     1       1.956   7.193  -3.283  0.00  0.00    -0.050 C 
BRANCH  23  24
ATOM     24  C   UNL     1       1.970   7.454  -4.790  0.00  0.00    +0.137 C 
BRANCH  24  25
ATOM     25  O   UNL     1       2.773   6.465  -5.438  0.00  0.00    -0.397 OA
ATOM     26  H   UNL     1       2.826   6.569  -6.398  0.00  0.00    +0.209 HD
ENDBRANCH  24  25
ENDBRANCH  23  24
ENDBRANCH  21  23
BRANCH  21  27
ATOM     27  C   UNL     1       3.693   8.781  -2.716  0.00  0.00    -0.050 C 
BRANCH  27  28
ATOM     28  C   UNL     1       5.217   8.899  -2.643  0.00  0.00    +0.137 C 
BRANCH  28  29
ATOM     29  O   UNL     1       5.792   8.385  -3.846  0.00  0.00    -0.397 OA
ATOM     30  H   UNL     1       6.758   8.357  -3.839  0.00  0.00    +0.209 HD
ENDBRANCH  28  29
ENDBRANCH  27  28
ENDBRANCH  21  27
ENDBRANCH  20  21
ENDBRANCH  17  20
ENDBRANCH  16  17
ENDBRANCH  14  16
TORSDOF 11
