REMARK  Name = ZINC13363688
REMARK  8 active torsions:
REMARK  status: ('A' for Active; 'I' for Inactive)
REMARK    1  A    between atoms: C_1  and  C_2
REMARK    2  A    between atoms: C_2  and  C_4
REMARK    3  A    between atoms: C_2  and  S_14
REMARK    4  A    between atoms: N_6  and  C_7
REMARK    5  A    between atoms: S_14  and  C_15
REMARK    6  A    between atoms: C_19  and  C_29
REMARK    7  A    between atoms: N_25  and  C_26
REMARK    8  A    between atoms: C_26  and  C_27
REMARK                            x       y       z     vdW  Elec       q    Type
REMARK                         _______ _______ _______ _____ _____    ______ ____
ROOT
ATOM      1  C   UNL     1      -2.045   2.007  -2.308  0.00  0.00    +0.173 A 
ATOM      2  N   UNL     1      -2.737   1.653  -3.363  0.00  0.00    -0.223 NA
ATOM      3  C   UNL     1      -3.603   0.613  -3.325  0.00  0.00    +0.080 A 
ATOM      4  C   UNL     1      -4.345   0.240  -4.450  0.00  0.00    +0.043 A 
ATOM      5  C   UNL     1      -5.222  -0.834  -4.364  0.00  0.00    +0.065 A 
ATOM      6  C   UNL     1      -5.365  -1.540  -3.162  0.00  0.00    +0.016 A 
ATOM      7  C   UNL     1      -4.647  -1.184  -2.057  0.00  0.00    +0.016 A 
ATOM      8  C   UNL     1      -3.760  -0.109  -2.121  0.00  0.00    +0.065 A 
ATOM      9  C   UNL     1      -2.966   0.307  -0.954  0.00  0.00    +0.263 A 
ATOM     10  O   UNL     1      -3.057  -0.275   0.111  0.00  0.00    -0.267 OA
ATOM     11  N   UNL     1      -2.131   1.361  -1.108  0.00  0.00    -0.283 N 
ENDROOT
BRANCH   5  12
ATOM     12  C   UNL     1      -6.010  -1.235  -5.550  0.00  0.00    +0.387 C 
ATOM     13  O   UNL     1      -5.889  -0.626  -6.594  0.00  0.00    -0.241 OA
ATOM     14  O   UNL     1      -6.862  -2.275  -5.472  0.00  0.00    -0.241 OA
ENDBRANCH   5  12
BRANCH   1  15
ATOM     15  S   UNL     1      -0.945   3.377  -2.446  0.00  0.00    -0.075 S 
BRANCH  15  17
ATOM     16  C   UNL     1      -2.665   4.310  -4.353  0.00  0.00    +0.029 C 
ATOM     17  C   UNL     1      -1.223   3.830  -4.177  0.00  0.00    +0.137 C 
BRANCH  17  18
ATOM     18  C   UNL     1      -0.274   4.934  -4.566  0.00  0.00    +0.230 C 
ATOM     19  O   UNL     1       0.246   5.617  -3.709  0.00  0.00    -0.274 OA
ATOM     20  N   UNL     1      -0.004   5.163  -5.866  0.00  0.00    -0.285 N 
ATOM     21  H   UNL     1      -0.366   4.575  -6.548  0.00  0.00    +0.155 HD
BRANCH  20  22
ATOM     22  C   UNL     1       0.800   6.248  -6.233  0.00  0.00    +0.033 A 
ATOM     23  C   UNL     1       0.544   6.936  -7.412  0.00  0.00    +0.024 A 
ATOM     24  C   UNL     1       1.336   8.010  -7.769  0.00  0.00    +0.017 A 
ATOM     25  C   UNL     1       2.390   8.393  -6.959  0.00  0.00    +0.018 A 
ATOM     26  C   UNL     1       2.651   7.706  -5.787  0.00  0.00    +0.017 A 
ATOM     27  C   UNL     1       1.859   6.635  -5.422  0.00  0.00    +0.024 A 
ATOM     28 BR   UNL     1       3.476   9.860  -7.454  0.00  0.00    -0.050 Br
ENDBRANCH  20  22
ENDBRANCH  17  18
ENDBRANCH  15  17
ENDBRANCH   1  15
BRANCH  11  29
ATOM     29  C   UNL     1      -1.319   1.815   0.022  0.00  0.00    +0.154 C 
BRANCH  29  30
ATOM     30  C   UNL     1       0.001   1.089   0.017  0.00  0.00    -0.013 C 
ATOM     31  C   UNL     1       1.122   1.767   0.011  0.00  0.00    +0.005 C 
ENDBRANCH  29  30
ENDBRANCH  11  29
TORSDOF 7
