REMARK  Name = ZINC00706120
REMARK  4 active torsions:
REMARK  status: ('A' for Active; 'I' for Inactive)
REMARK    1  A    between atoms: C_4  and  C_7
REMARK    2  A    between atoms: C_12  and  C_20
REMARK    3  A    between atoms: C_14  and  C_18
REMARK    4  A    between atoms: C_15  and  N_17
REMARK                            x       y       z     vdW  Elec       q    Type
REMARK                         _______ _______ _______ _____ _____    ______ ____
ROOT
ATOM      1  C   UNL     1       2.451   3.937   0.001  0.00  0.00    +0.034 C 
ATOM      2  C   UNL     1       2.513   4.825  -1.243  0.00  0.00    +0.083 C 
ATOM      3  C   UNL     1       3.793   5.628  -1.230  0.00  0.00    +0.115 C 
ATOM      4  C   UNL     1       4.352   6.010  -0.067  0.00  0.00    +0.046 C 
ATOM      5  C   UNL     1       5.625   6.822  -0.057  0.00  0.00    +0.101 C 
ATOM      6  C   UNL     1       5.845   7.454  -1.403  0.00  0.00    +0.098 C 
ATOM      7  C   UNL     1       5.199   6.981  -2.496  0.00  0.00    +0.198 C 
ATOM      8  O   UNL     1       4.353   5.942  -2.413  0.00  0.00    -0.445 OA
ATOM      9  C   UNL     1       3.776   5.663   1.170  0.00  0.00    +0.164 C 
ATOM     10  O   UNL     1       4.300   6.042   2.199  0.00  0.00    -0.292 OA
ATOM     11  C   UNL     1       2.524   4.833   1.242  0.00  0.00    +0.088 C 
ENDROOT
BRANCH   5  12
ATOM     12  C   UNL     1       6.787   5.920   0.269  0.00  0.00    -0.032 A 
ATOM     13  C   UNL     1       7.554   6.160   1.394  0.00  0.00    +0.005 A 
ATOM     14  C   UNL     1       8.621   5.333   1.694  0.00  0.00    +0.003 A 
ATOM     15  C   UNL     1       8.922   4.266   0.869  0.00  0.00    +0.038 A 
ATOM     16  C   UNL     1       8.155   4.025  -0.258  0.00  0.00    +0.124 A 
ATOM     17  C   UNL     1       7.083   4.850  -0.554  0.00  0.00    +0.043 A 
ATOM     18  F   UNL     1       8.448   2.982  -1.065  0.00  0.00    -0.205 F 
ENDBRANCH   5  12
BRANCH   1  22
ATOM     19  C   UNL     1      -1.219   1.751   0.017  0.00  0.00    +0.000 A 
ATOM     20  C   UNL     1      -0.013   1.076   0.008  0.00  0.00    +0.000 A 
ATOM     21  C   UNL     1       1.175   1.783   0.000  0.00  0.00    +0.004 A 
ATOM     22  C   UNL     1       1.156   3.165   0.008  0.00  0.00    -0.043 A 
ATOM     23  C   UNL     1      -0.050   3.840   0.023  0.00  0.00    +0.004 A 
ATOM     24  C   UNL     1      -1.238   3.133   0.029  0.00  0.00    +0.000 A 
ENDBRANCH   1  22
BRANCH   7  25
ATOM     25  N   UNL     1       5.414   7.578  -3.714  0.00  0.00    -0.328 N 
ATOM     26  H   UNL     1       4.957   7.247  -4.503  0.00  0.00    +0.145 HD
ATOM     27  H   UNL     1       6.023   8.329  -3.785  0.00  0.00    +0.145 HD
ENDBRANCH   7  25
BRANCH   6  28
ATOM     28  C   UNL     1       6.744   8.561  -1.530  0.00  0.00    +0.101 C 
ATOM     29  N   UNL     1       7.457   9.440  -1.632  0.00  0.00    -0.191 NA
ENDBRANCH   6  28
TORSDOF 4
