REMARK  Name = ZINC66134404
REMARK  7 active torsions:
REMARK  status: ('A' for Active; 'I' for Inactive)
REMARK    1  A    between atoms: C_1  and  C_2
REMARK    2  A    between atoms: C_3  and  C_20
REMARK    3  A    between atoms: C_4  and  C_8
REMARK    4  A    between atoms: C_8  and  C_10
REMARK    5  A    between atoms: C_8  and  O_11
REMARK    6  A    between atoms: O_11  and  C_12
REMARK    7  A    between atoms: N_22  and  N_23
REMARK                            x       y       z     vdW  Elec       q    Type
REMARK                         _______ _______ _______ _____ _____    ______ ____
ROOT
ATOM      1  C   UNL     1       0.635   1.359   0.318  0.00  0.00    +0.068 C 
ATOM      2  C   UNL     1       0.517  -0.139   0.209  0.00  0.00    +0.072 A 
ATOM      3  C   UNL     1       0.291  -0.870  -0.979  0.00  0.00    +0.085 A 
ATOM      4  C   UNL     1       0.252  -2.206  -0.635  0.00  0.00    +0.088 A 
ATOM      5  N   UNL     1       0.445  -2.285   0.691  0.00  0.00    -0.277 N 
ATOM      6  H   UNL     1       0.468  -3.102   1.213  0.00  0.00    +0.189 HD
ATOM      7  N   UNL     1       0.613  -0.989   1.193  0.00  0.00    -0.178 NA
ENDROOT
BRANCH   3   8
ATOM      8  C   UNL     1       0.126  -0.310  -2.333  0.00  0.00    +0.261 C 
ATOM      9  O   UNL     1       1.097  -0.149  -3.047  0.00  0.00    -0.269 OA
ATOM     10  N   UNL     1      -1.101   0.024  -2.779  0.00  0.00    -0.249 N 
ATOM     11  H   UNL     1      -1.876  -0.104  -2.210  0.00  0.00    +0.169 HD
BRANCH  10  12
ATOM     12  N   UNL     1      -1.254   0.543  -4.034  0.00  0.00    -0.254 NA
ATOM     13  H   UNL     1      -2.224   0.743  -4.227  0.00  0.00    +0.140 HD
ATOM     14  H   UNL     1      -0.683   1.366  -4.157  0.00  0.00    +0.140 HD
ENDBRANCH  10  12
ENDBRANCH   3   8
BRANCH   4  15
ATOM     15  C   UNL     1       0.033  -3.363  -1.575  0.00  0.00    +0.219 C 
ATOM     16  C   UNL     1       1.368  -3.771  -2.202  0.00  0.00    +0.059 C 
BRANCH  15  17
ATOM     17  O   UNL     1      -0.510  -4.469  -0.851  0.00  0.00    -0.482 OA
BRANCH  17  18
ATOM     18  C   UNL     1      -1.237  -5.374  -1.559  0.00  0.00    +0.140 A 
ATOM     19  C   UNL     1      -1.330  -5.263  -2.938  0.00  0.00    +0.048 A 
ATOM     20  C   UNL     1      -2.069  -6.183  -3.656  0.00  0.00    +0.023 A 
ATOM     21  C   UNL     1      -2.717  -7.215  -3.001  0.00  0.00    +0.043 A 
ATOM     22  C   UNL     1      -2.626  -7.328  -1.625  0.00  0.00    +0.043 A 
ATOM     23  C   UNL     1      -1.882  -6.413  -0.903  0.00  0.00    +0.084 A 
ATOM     24 CL   UNL     1      -1.762  -6.559   0.823  0.00  0.00    -0.080 Cl
ATOM     25 CL   UNL     1      -3.645  -8.369  -3.906  0.00  0.00    -0.083 Cl
ENDBRANCH  17  18
ENDBRANCH  15  17
ENDBRANCH   4  15
TORSDOF 5
