REMARK  Name = ZINC39663745
REMARK  10 active torsions:
REMARK  status: ('A' for Active; 'I' for Inactive)
REMARK    1  A    between atoms: C_1  and  N_2
REMARK    2  A    between atoms: N_2  and  C_3
REMARK    3  A    between atoms: N_2  and  C_4
REMARK    4  A    between atoms: C_4  and  C_6
REMARK    5  A    between atoms: C_4  and  C_30
REMARK    6  A    between atoms: C_6  and  N_7
REMARK    7  A    between atoms: C_8  and  C_10
REMARK    8  A    between atoms: C_21  and  C_23
REMARK    9  A    between atoms: C_33  and  O_36
REMARK   10  A    between atoms: O_36  and  C_37
REMARK                            x       y       z     vdW  Elec       q    Type
REMARK                         _______ _______ _______ _____ _____    ______ ____
ROOT
ATOM      1  C   UNL     1      -2.461   4.367  -1.573  0.00  0.00    +0.100 C 
ATOM      2  C   UNL     1      -0.965   4.517  -1.931  0.00  0.00    +0.121 C 
ATOM      3  N   UNL     1      -0.958   4.864  -3.371  0.00  0.00    -0.296 N 
ATOM      4  C   UNL     1      -2.104   5.791  -3.533  0.00  0.00    +0.115 C 
ATOM      5  C   UNL     1      -3.205   5.208  -2.624  0.00  0.00    -0.004 C 
ATOM      6  C   UNL     1      -3.982   6.333  -1.948  0.00  0.00    -0.010 C 
ATOM      7  C   UNL     1      -4.760   7.119  -3.007  0.00  0.00    -0.082 C 
ATOM      8  N   UNL     1      -5.678   6.217  -3.712  0.00  0.00    +0.379 N 
ATOM      9  C   UNL     1      -4.917   5.193  -4.436  0.00  0.00    -0.082 C 
ATOM     10  C   UNL     1      -4.146   4.325  -3.437  0.00  0.00    -0.010 C 
ATOM     11  C   UNL     1      -0.102   4.435  -4.320  0.00  0.00    +0.247 C 
ATOM     12  O   UNL     1       0.729   3.590  -4.052  0.00  0.00    -0.270 OA
ATOM     13  H   UNL     1      -6.288   5.771  -3.044  0.00  0.00    -0.086 HD
ATOM     14  H   UNL     1      -6.233   6.748  -4.367  0.00  0.00    -0.086 HD
ENDROOT
BRANCH  11  15
ATOM     15  C   UNL     1      -0.175   4.993  -5.687  0.00  0.00    +0.037 A 
ATOM     16  C   UNL     1      -0.775   6.234  -5.907  0.00  0.00    +0.014 A 
ATOM     17  C   UNL     1      -0.839   6.749  -7.184  0.00  0.00    +0.021 A 
ATOM     18  C   UNL     1      -0.310   6.037  -8.248  0.00  0.00    +0.041 A 
ATOM     19  C   UNL     1       0.287   4.806  -8.036  0.00  0.00    +0.021 A 
ATOM     20  C   UNL     1       0.362   4.283  -6.763  0.00  0.00    +0.014 A 
ATOM     21 CL   UNL     1      -0.396   6.692  -9.854  0.00  0.00    -0.084 Cl
ENDBRANCH  11  15
BRANCH   1  23
ATOM     22  N   UNL     1      -3.918   2.475  -0.929  0.00  0.00    -0.316 N 
ATOM     23  C   UNL     1      -2.881   2.923  -1.664  0.00  0.00    +0.218 C 
ATOM     24  O   UNL     1      -2.285   2.164  -2.398  0.00  0.00    -0.275 OA
ATOM     25  H   UNL     1      -4.394   3.082  -0.342  0.00  0.00    +0.149 HD
BRANCH  22  26
ATOM     26  C   UNL     1      -4.326   1.071  -1.017  0.00  0.00    +0.093 C 
BRANCH  26  27
ATOM     27  C   UNL     1      -5.451   0.802  -0.015  0.00  0.00    -0.021 C 
BRANCH  27  28
ATOM     28  C   UNL     1      -6.634   1.676  -0.343  0.00  0.00    -0.059 A 
ATOM     29  C   UNL     1      -7.502   1.312  -1.355  0.00  0.00    +0.005 A 
ATOM     30  C   UNL     1      -8.587   2.112  -1.657  0.00  0.00    +0.046 A 
ATOM     31  C   UNL     1      -8.806   3.281  -0.944  0.00  0.00    +0.120 A 
ATOM     32  C   UNL     1      -7.933   3.644   0.072  0.00  0.00    +0.046 A 
ATOM     33  C   UNL     1      -6.853   2.838   0.374  0.00  0.00    +0.005 A 
BRANCH  31  34
ATOM     34  O   UNL     1      -9.872   4.070  -1.239  0.00  0.00    -0.495 OA
ATOM     35  C   UNL     1     -10.035   5.259  -0.463  0.00  0.00    +0.277 C 
ENDBRANCH  31  34
ENDBRANCH  27  28
BRANCH  27  37
ATOM     36  C   UNL     1      -4.683  -1.462   0.178  0.00  0.00    -0.096 C 
ATOM     37  N   UNL     1      -5.849  -0.610  -0.093  0.00  0.00    +0.382 N 
ATOM     38  C   UNL     1      -6.894  -0.879   0.903  0.00  0.00    -0.096 C 
ATOM     39  H   UNL     1      -6.204  -0.809  -1.016  0.00  0.00    -0.082 HD
ENDBRANCH  27  37
ENDBRANCH  26  27
ENDBRANCH  22  26
ENDBRANCH   1  23
TORSDOF 7
