REMARK  Name = ZINC36688102
REMARK  9 active torsions:
REMARK  status: ('A' for Active; 'I' for Inactive)
REMARK    1  A    between atoms: C_1  and  C_2
REMARK    2  A    between atoms: C_2  and  C_3
REMARK    3  A    between atoms: C_3  and  N_4
REMARK    4  A    between atoms: C_8  and  C_35
REMARK    5  A    between atoms: N_13  and  C_14
REMARK    6  A    between atoms: C_14  and  C_16
REMARK    7  A    between atoms: C_19  and  S_22
REMARK    8  A    between atoms: S_22  and  N_25
REMARK    9  A    between atoms: C_35  and  C_36
REMARK                            x       y       z     vdW  Elec       q    Type
REMARK                         _______ _______ _______ _____ _____    ______ ____
ROOT
ATOM      1  C   UNL     1      -3.465  -2.453  -3.642  0.00  0.00    +0.039 A 
ATOM      2  C   UNL     1      -3.652  -1.074  -3.736  0.00  0.00    +0.015 A 
ATOM      3  C   UNL     1      -4.774  -0.573  -4.363  0.00  0.00    +0.029 A 
ATOM      4  C   UNL     1      -5.714  -1.436  -4.897  0.00  0.00    +0.106 A 
ATOM      5  C   UNL     1      -5.536  -2.805  -4.807  0.00  0.00    +0.029 A 
ATOM      6  C   UNL     1      -4.414  -3.318  -4.189  0.00  0.00    +0.015 A 
ENDROOT
BRANCH   4   7
ATOM      7  S   UNL     1      -7.146  -0.789  -5.695  0.00  0.00    +0.061 S 
ATOM      8  O   UNL     1      -8.140  -1.802  -5.630  0.00  0.00    -0.153 OA
ATOM      9  O   UNL     1      -7.350   0.515  -5.168  0.00  0.00    -0.153 OA
BRANCH   7  10
ATOM     10  N   UNL     1      -6.769  -0.598  -7.296  0.00  0.00    -0.172 NA
ATOM     11  C   UNL     1      -6.191   0.658  -7.803  0.00  0.00    +0.114 C 
ATOM     12  C   UNL     1      -4.786   0.352  -8.320  0.00  0.00    +0.052 C 
ATOM     13  C   UNL     1      -4.793  -0.868  -9.203  0.00  0.00    -0.042 A 
ATOM     14  C   UNL     1      -3.727  -1.035 -10.079  0.00  0.00    +0.004 A 
ATOM     15  C   UNL     1      -3.667  -2.135 -10.908  0.00  0.00    +0.000 A 
ATOM     16  C   UNL     1      -4.673  -3.082 -10.868  0.00  0.00    +0.000 A 
ATOM     17  C   UNL     1      -5.734  -2.917 -10.002  0.00  0.00    +0.005 A 
ATOM     18  C   UNL     1      -5.799  -1.807  -9.171  0.00  0.00    -0.028 A 
ATOM     19  C   UNL     1      -6.993  -1.675  -8.266  0.00  0.00    +0.144 C 
ENDBRANCH   7  10
ENDBRANCH   4   7
BRANCH   1  20
ATOM     20  C   UNL     1      -2.262  -2.997  -2.971  0.00  0.00    +0.269 C 
ATOM     21  O   UNL     1      -2.100  -4.203  -2.895  0.00  0.00    -0.268 OA
BRANCH  20  31
ATOM     22  N   UNL     1       0.738  -1.962  -1.265  0.00  0.00    -0.321 N 
ATOM     23  C   UNL     1       1.786  -2.645  -0.676  0.00  0.00    +0.058 A 
ATOM     24  C   UNL     1       2.918  -2.136  -0.024  0.00  0.00    +0.027 A 
ATOM     25  C   UNL     1       3.863  -2.986   0.504  0.00  0.00    +0.006 A 
ATOM     26  C   UNL     1       3.725  -4.361   0.407  0.00  0.00    -0.046 A 
ATOM     27  C   UNL     1       2.616  -4.888  -0.232  0.00  0.00    +0.020 A 
ATOM     28  C   UNL     1       1.671  -4.040  -0.759  0.00  0.00    +0.039 A 
ATOM     29  S   UNL     1       0.144  -4.268  -1.633  0.00  0.00    -0.052 S 
ATOM     30  C   UNL     1      -0.276  -2.654  -1.846  0.00  0.00    +0.167 A 
ATOM     31  N   UNL     1      -1.355  -2.166  -2.448  0.00  0.00    -0.152 NA
BRANCH  26  32
ATOM     32  C   UNL     1       4.771  -5.273   0.992  0.00  0.00    +0.032 C 
ATOM     33  C   UNL     1       4.412  -5.598   2.443  0.00  0.00    +0.009 C 
ENDBRANCH  26  32
BRANCH  22  34
ATOM     34  C   UNL     1       0.718  -0.497  -1.257  0.00  0.00    +0.124 C 
BRANCH  34  36
ATOM     35  C   UNL     1      -0.019   1.526   0.010  0.00  0.00    +0.005 C 
ATOM     36  C   UNL     1       0.002  -0.004   0.002  0.00  0.00    +0.018 C 
ENDBRANCH  34  36
ENDBRANCH  22  34
ENDBRANCH  20  31
ENDBRANCH   1  20
TORSDOF 7
