REMARK  Name = ZINC66929179
REMARK  6 active torsions:
REMARK  status: ('A' for Active; 'I' for Inactive)
REMARK    1  A    between atoms: C_1  and  C_2
REMARK    2  A    between atoms: N_11  and  C_15
REMARK    3  A    between atoms: C_15  and  C_16
REMARK    4  A    between atoms: N_18  and  C_19
REMARK    5  A    between atoms: C_19  and  C_20
REMARK    6  A    between atoms: C_20  and  O_30
REMARK                            x       y       z     vdW  Elec       q    Type
REMARK                         _______ _______ _______ _____ _____    ______ ____
ROOT
ATOM      1  C   UNL     1       3.407   2.891   2.203  0.00  0.00    +0.231 C 
ATOM      2  O   UNL     1       2.413   3.251   1.609  0.00  0.00    -0.274 OA
ATOM      3  N   UNL     1       4.364   3.786   2.520  0.00  0.00    -0.311 N 
ATOM      4  H   UNL     1       5.159   3.498   2.995  0.00  0.00    +0.149 HD
ENDROOT
BRANCH   1   5
ATOM      5  C   UNL     1       3.573   1.443   2.587  0.00  0.00    +0.213 C 
BRANCH   5  15
ATOM      6  C   UNL     1       0.000   1.533  -0.039  0.00  0.00    +0.010 C 
ATOM      7  C   UNL     1       0.093   0.016  -0.211  0.00  0.00    +0.018 C 
ATOM      8  C   UNL     1       0.726  -0.305  -1.568  0.00  0.00    +0.006 C 
ATOM      9  C   UNL     1       0.837  -1.822  -1.731  0.00  0.00    +0.000 C 
ATOM     10  C   UNL     1       1.721  -2.392  -0.620  0.00  0.00    +0.003 C 
ATOM     11  C   UNL     1       1.092  -2.080   0.741  0.00  0.00    +0.035 C 
ATOM     12  C   UNL     1       0.952  -0.571   0.904  0.00  0.00    +0.115 C 
ATOM     13  C   UNL     1       2.312   0.088   0.925  0.00  0.00    +0.247 C 
ATOM     14  O   UNL     1       3.143   0.083   0.042  0.00  0.00    -0.273 OA
ATOM     15  N   UNL     1       2.406   0.681   2.133  0.00  0.00    -0.215 N 
ATOM     16  C   UNL     1       1.303   0.487   2.865  0.00  0.00    +0.310 C 
ATOM     17  O   UNL     1       1.152   0.925   3.989  0.00  0.00    -0.252 OA
ATOM     18  N   UNL     1       0.379  -0.248   2.217  0.00  0.00    -0.285 N 
ATOM     19  H   UNL     1      -0.493  -0.511   2.551  0.00  0.00    +0.151 HD
ENDBRANCH   5  15
ENDBRANCH   1   5
BRANCH   3  20
ATOM     20  C   UNL     1       4.202   5.194   2.148  0.00  0.00    +0.143 C 
BRANCH  20  21
ATOM     21  C   UNL     1       5.354   6.012   2.735  0.00  0.00    +0.107 C 
ATOM     22  C   UNL     1       5.388   5.818   4.250  0.00  0.00    +0.041 C 
ATOM     23  C   UNL     1       6.400   6.807   4.841  0.00  0.00    +0.008 C 
ATOM     24  C   UNL     1       5.828   8.217   4.711  0.00  0.00    +0.035 C 
ATOM     25  C   UNL     1       5.379   8.478   3.297  0.00  0.00    -0.041 A 
ATOM     26  C   UNL     1       5.158   7.465   2.391  0.00  0.00    -0.011 A 
ATOM     27  C   UNL     1       4.738   7.773   1.103  0.00  0.00    +0.007 A 
ATOM     28  C   UNL     1       4.544   9.086   0.725  0.00  0.00    +0.000 A 
ATOM     29  C   UNL     1       4.770  10.103   1.633  0.00  0.00    +0.000 A 
ATOM     30  C   UNL     1       5.185   9.798   2.913  0.00  0.00    +0.004 A 
BRANCH  21  31
ATOM     31  O   UNL     1       6.588   5.558   2.175  0.00  0.00    -0.382 OA
ATOM     32  H   UNL     1       6.638   5.641   1.213  0.00  0.00    +0.211 HD
ENDBRANCH  21  31
ENDBRANCH  20  21
ENDBRANCH   3  20
TORSDOF 5
