REMARK  Name = ZINC43758508
REMARK  15 active torsions:
REMARK  status: ('A' for Active; 'I' for Inactive)
REMARK    1  A    between atoms: C_1  and  C_2
REMARK    2  A    between atoms: C_2  and  C_4
REMARK    3  A    between atoms: C_2  and  C_12
REMARK    4  A    between atoms: C_5  and  C_6
REMARK    5  A    between atoms: C_6  and  C_8
REMARK    6  A    between atoms: C_6  and  C_9
REMARK    7  A    between atoms: C_9  and  C_10
REMARK    8  A    between atoms: C_9  and  C_11
REMARK    9  A    between atoms: C_18  and  C_39
REMARK   10  A    between atoms: C_22  and  O_38
REMARK   11  A    between atoms: C_25  and  O_37
REMARK   12  A    between atoms: C_26  and  C_36
REMARK   13  A    between atoms: C_29  and  O_32
REMARK   14  A    between atoms: O_32  and  C_33
REMARK   15  A    between atoms: C_33  and  C_35
REMARK                            x       y       z     vdW  Elec       q    Type
REMARK                         _______ _______ _______ _____ _____    ______ ____
ROOT
ATOM      1  C   UNL     1       0.646  -0.895  -1.422  0.00  0.00    +0.002 C 
ATOM      2  C   UNL     1      -0.094  -0.269  -2.619  0.00  0.00    +0.005 C 
ATOM      3  C   UNL     1      -0.562  -1.442  -3.511  0.00  0.00    +0.007 C 
ATOM      4  C   UNL     1       0.399  -2.584  -3.134  0.00  0.00    +0.031 C 
ATOM      5  C   UNL     1       0.557  -2.434  -1.610  0.00  0.00    -0.020 C 
ATOM      6  C   UNL     1      -0.733  -2.880  -0.915  0.00  0.00    +0.034 C 
ATOM      7  C   UNL     1      -1.163  -4.231  -1.394  0.00  0.00    -0.024 C 
ATOM      8  C   UNL     1      -0.886  -4.688  -2.576  0.00  0.00    -0.033 C 
ATOM      9  C   UNL     1      -0.074  -3.934  -3.567  0.00  0.00    +0.091 C 
ATOM     10  C   UNL     1      -0.834  -3.879  -4.894  0.00  0.00    +0.042 C 
ATOM     11  C   UNL     1      -1.224  -5.299  -5.315  0.00  0.00    +0.039 C 
ATOM     12  C   UNL     1      -2.170  -5.902  -4.271  0.00  0.00    +0.079 C 
ATOM     13  C   UNL     1      -1.404  -6.055  -2.981  0.00  0.00    +0.021 C 
ATOM     14  C   UNL     1      -2.346  -6.588  -1.905  0.00  0.00    +0.017 C 
ATOM     15  C   UNL     1      -3.531  -5.636  -1.734  0.00  0.00    +0.046 C 
ATOM     16  C   UNL     1      -4.282  -5.524  -3.062  0.00  0.00    +0.179 C 
ATOM     17  C   UNL     1      -3.360  -4.955  -4.084  0.00  0.00    +0.080 C 
ATOM     18  C   UNL     1      -0.227  -7.016  -3.157  0.00  0.00    +0.019 C 
ATOM     19  C   UNL     1       1.795  -3.159  -1.079  0.00  0.00    +0.012 C 
ENDROOT
BRANCH   1  21
ATOM     20  C   UNL     1      -0.060   1.041  -0.010  0.00  0.00    +0.012 C 
ATOM     21  C   UNL     1      -0.030  -0.485  -0.113  0.00  0.00    +0.012 C 
BRANCH  21  22
ATOM     22  C   UNL     1       0.742  -1.051   1.051  0.00  0.00    -0.027 C 
ATOM     23  C   UNL     1       0.127  -1.768   1.959  0.00  0.00    -0.027 C 
BRANCH  23  24
ATOM     24  C   UNL     1       0.899  -2.334   3.122  0.00  0.00    +0.011 C 
ATOM     25  C   UNL     1       0.790  -3.860   3.113  0.00  0.00    +0.012 C 
BRANCH  24  26
ATOM     26  C   UNL     1       0.323  -1.790   4.431  0.00  0.00    -0.011 C 
ATOM     27  C   UNL     1       1.107  -2.365   5.612  0.00  0.00    +0.008 C 
ATOM     28  C   UNL     1       0.433  -0.264   4.440  0.00  0.00    +0.008 C 
ENDBRANCH  24  26
ENDBRANCH  23  24
ENDBRANCH  21  22
ENDBRANCH   1  21
BRANCH  12  29
ATOM     29  O   UNL     1      -2.635  -7.176  -4.721  0.00  0.00    -0.388 OA
ATOM     30  H   UNL     1      -3.119  -7.146  -5.557  0.00  0.00    +0.210 HD
ENDBRANCH  12  29
BRANCH   9  31
ATOM     31  O   UNL     1       1.093  -4.722  -3.812  0.00  0.00    -0.384 OA
ATOM     32  H   UNL     1       1.710  -4.325  -4.442  0.00  0.00    +0.211 HD
ENDBRANCH   9  31
BRANCH  16  33
ATOM     33  O   UNL     1      -4.742  -6.817  -3.461  0.00  0.00    -0.461 OA
BRANCH  33  34
ATOM     34  C   UNL     1      -5.960  -7.188  -3.037  0.00  0.00    +0.304 C 
ATOM     35  O   UNL     1      -6.615  -6.440  -2.351  0.00  0.00    -0.251 OA
ATOM     36  C   UNL     1      -6.511  -8.539  -3.417  0.00  0.00    +0.136 C 
ENDBRANCH  33  34
ENDBRANCH  16  33
TORSDOF 8
