REMARK  Name = ZINC21526881
REMARK  8 active torsions:
REMARK  status: ('A' for Active; 'I' for Inactive)
REMARK    1  A    between atoms: C_1  and  C_2
REMARK    2  A    between atoms: C_11  and  C_25
REMARK    3  A    between atoms: C_11  and  C_26
REMARK    4  A    between atoms: N_12  and  C_15
REMARK    5  A    between atoms: C_15  and  C_16
REMARK    6  A    between atoms: C_16  and  C_17
REMARK    7  A    between atoms: C_17  and  N_18
REMARK    8  A    between atoms: N_28  and  C_29
REMARK                            x       y       z     vdW  Elec       q    Type
REMARK                         _______ _______ _______ _____ _____    ______ ____
ROOT
ATOM      1  C   UNL     1       1.354   2.566  -5.668  0.00  0.00    +0.086 C 
ATOM      2  C   UNL     1       0.469   2.353  -4.467  0.00  0.00    +0.105 A 
ATOM      3  C   UNL     1       0.886   1.936  -3.259  0.00  0.00    +0.071 A 
ATOM      4  C   UNL     1      -0.253   1.867  -2.422  0.00  0.00    +0.088 A 
ATOM      5  C   UNL     1      -1.335   2.267  -3.206  0.00  0.00    +0.154 A 
ATOM      6  O   UNL     1      -0.860   2.549  -4.438  0.00  0.00    -0.458 OA
ATOM      7  C   UNL     1      -2.483   2.220  -2.402  0.00  0.00    +0.079 A 
ATOM      8  C   UNL     1      -2.098   1.802  -1.162  0.00  0.00    +0.109 A 
ATOM      9  N   UNL     1      -0.724   1.573  -1.178  0.00  0.00    -0.331 N 
ATOM     10  C   UNL     1      -0.013   1.086   0.008  0.00  0.00    +0.157 C 
ATOM     11  C   UNL     1      -0.731   1.580   1.264  0.00  0.00    +0.128 C 
ATOM     12  N   UNL     1      -2.175   1.378   1.198  0.00  0.00    -0.281 N 
ATOM     13  C   UNL     1      -2.879   1.600   0.064  0.00  0.00    +0.264 C 
ATOM     14  O   UNL     1      -4.096   1.629   0.060  0.00  0.00    -0.268 OA
ATOM     15  C   UNL     1      -0.179   0.829   2.477  0.00  0.00    +0.043 C 
ENDROOT
BRANCH  11  16
ATOM     16  C   UNL     1      -0.452   3.051   1.437  0.00  0.00    +0.238 C 
ATOM     17  O   UNL     1       0.455   3.415   2.156  0.00  0.00    -0.273 OA
ATOM     18  N   UNL     1      -1.209   3.961   0.793  0.00  0.00    -0.311 N 
ATOM     19  H   UNL     1      -2.031   3.630   0.141  0.00  0.00    +0.149 HD
BRANCH  18  20
ATOM     20  C   UNL     1      -0.938   5.391   0.962  0.00  0.00    +0.073 C 
ATOM     21  C   UNL     1      -1.633   5.883   2.248  0.00  0.00    +0.022 C 
ATOM     22  C   UNL     1      -0.964   7.155   2.695  0.00  0.00    +0.002 C 
ATOM     23  C   UNL     1      -1.683   8.413   2.170  0.00  0.00    +0.000 C 
ATOM     24  C   UNL     1      -2.132   8.274   0.702  0.00  0.00    +0.000 C 
ATOM     25  C   UNL     1      -1.091   7.611  -0.158  0.00  0.00    +0.002 C 
ATOM     26  C   UNL     1      -1.399   6.101  -0.222  0.00  0.00    +0.022 C 
ENDBRANCH  18  20
ENDBRANCH  11  16
BRANCH  12  27
ATOM     27  C   UNL     1      -2.883   0.922   2.397  0.00  0.00    +0.107 C 
BRANCH  27  28
ATOM     28  C   UNL     1      -2.920  -0.607   2.417  0.00  0.00    +0.000 C 
BRANCH  28  29
ATOM     29  C   UNL     1      -3.660  -1.083   3.668  0.00  0.00    -0.077 C 
BRANCH  29  30
ATOM     30  N   UNL     1      -3.695  -2.551   3.687  0.00  0.00    +0.380 N 
ATOM     31  C   UNL     1      -4.420  -3.080   2.510  0.00  0.00    -0.079 C 
ATOM     32  C   UNL     1      -4.719  -4.550   2.620  0.00  0.00    -0.019 C 
ATOM     33  C   UNL     1      -6.132  -4.718   3.216  0.00  0.00    -0.002 C 
ATOM     34  C   UNL     1      -6.147  -4.526   4.662  0.00  0.00    -0.002 C 
ATOM     35  C   UNL     1      -5.689  -3.109   5.065  0.00  0.00    -0.019 C 
ATOM     36  C   UNL     1      -4.187  -3.053   4.990  0.00  0.00    -0.079 C 
ATOM     37  H   UNL     1      -2.668  -2.933   3.595  0.00  0.00    -0.082 HD
ENDBRANCH  29  30
ENDBRANCH  28  29
ENDBRANCH  27  28
ENDBRANCH  12  27
TORSDOF 6
