REMARK  Name = ZINC14460910
REMARK  4 active torsions:
REMARK  status: ('A' for Active; 'I' for Inactive)
REMARK    1  A    between atoms: C_6  and  S_7
REMARK    2  A    between atoms: S_7  and  N_10
REMARK    3  A    between atoms: C_24  and  C_27
REMARK    4  A    between atoms: C_32  and  O_33
REMARK                            x       y       z     vdW  Elec       q    Type
REMARK                         _______ _______ _______ _____ _____    ______ ____
ROOT
ATOM      1  C   UNL     1       3.414   8.815  -0.195  0.00  0.00    +0.030 A 
ATOM      2  C   UNL     1       2.908   7.595  -0.596  0.00  0.00    +0.025 A 
ATOM      3  C   UNL     1       1.699   7.136  -0.088  0.00  0.00    +0.031 A 
ATOM      4  C   UNL     1       0.996   7.931   0.825  0.00  0.00    -0.018 A 
ATOM      5  C   UNL     1       1.513   9.144   1.223  0.00  0.00    +0.034 A 
ATOM      6  C   UNL     1       2.720   9.589   0.716  0.00  0.00    +0.106 A 
ATOM      7  C   UNL     1      -0.297   7.415   1.325  0.00  0.00    +0.049 C 
ATOM      8  C   UNL     1      -0.849   7.824   2.642  0.00  0.00    -0.023 C 
ATOM      9  C   UNL     1      -1.559   6.816   3.135  0.00  0.00    -0.030 C 
ATOM     10  C   UNL     1      -1.506   5.622   2.179  0.00  0.00    +0.033 C 
ATOM     11  C   UNL     1      -0.177   5.867   1.453  0.00  0.00    +0.029 C 
ATOM     12  C   UNL     1      -0.060   5.351   0.029  0.00  0.00    +0.108 C 
ATOM     13  N   UNL     1       1.224   5.879  -0.482  0.00  0.00    -0.336 N 
ATOM     14  H   UNL     1       1.745   5.345  -1.101  0.00  0.00    +0.147 HD
ENDROOT
BRANCH  12  15
ATOM     15  C   UNL     1      -0.043   3.844   0.022  0.00  0.00    +0.015 A 
ATOM     16  C   UNL     1       1.160   3.167   0.007  0.00  0.00    +0.024 A 
ATOM     17  C   UNL     1       1.176   1.783   0.000  0.00  0.00    +0.018 A 
ATOM     18  C   UNL     1      -0.013   1.076   0.008  0.00  0.00    +0.019 A 
ATOM     19  C   UNL     1      -1.218   1.750   0.017  0.00  0.00    +0.047 A 
ATOM     20  C   UNL     1      -1.236   3.137   0.030  0.00  0.00    +0.122 A 
ATOM     21 BR   UNL     1       2.826   0.858  -0.020  0.00  0.00    -0.050 Br
BRANCH  20  22
ATOM     22  O   UNL     1      -2.422   3.802   0.045  0.00  0.00    -0.506 OA
ATOM     23  H   UNL     1      -2.773   3.999  -0.834  0.00  0.00    +0.292 HD
ENDBRANCH  20  22
ENDBRANCH  12  15
BRANCH   6  24
ATOM     24  S   UNL     1       3.374  11.142   1.231  0.00  0.00    +0.061 S 
ATOM     25  O   UNL     1       2.801  11.422   2.501  0.00  0.00    -0.153 OA
ATOM     26  O   UNL     1       4.779  11.079   1.026  0.00  0.00    -0.153 OA
BRANCH  24  27
ATOM     27  N   UNL     1       2.794  12.289   0.187  0.00  0.00    -0.177 NA
ATOM     28  C   UNL     1       3.562  12.598  -0.999  0.00  0.00    +0.109 C 
ATOM     29  C   UNL     1       4.571  13.724  -0.692  0.00  0.00    +0.017 C 
ATOM     30  C   UNL     1       3.869  15.004  -0.516  0.00  0.00    +0.001 C 
ATOM     31  C   UNL     1       2.899  15.033   0.662  0.00  0.00    +0.001 C 
ATOM     32  C   UNL     1       1.569  14.470   0.228  0.00  0.00    +0.017 C 
ATOM     33  C   UNL     1       1.518  12.957   0.508  0.00  0.00    +0.109 C 
ENDBRANCH  24  27
ENDBRANCH   6  24
TORSDOF 4
