REMARK  Name = ZINC18264929
REMARK  5 active torsions:
REMARK  status: ('A' for Active; 'I' for Inactive)
REMARK    1  A    between atoms: C_1  and  C_2
REMARK    2  A    between atoms: C_2  and  C_4
REMARK    3  A    between atoms: C_2  and  S_20
REMARK    4  A    between atoms: C_10  and  C_15
REMARK    5  A    between atoms: S_20  and  C_21
REMARK                            x       y       z     vdW  Elec       q    Type
REMARK                         _______ _______ _______ _____ _____    ______ ____
ROOT
ATOM      1  C   UNL     1      -0.718   1.572   1.248  0.00  0.00    +0.124 A 
ATOM      2  N   UNL     1      -0.294   2.710   1.854  0.00  0.00    -0.309 N 
ATOM      3  H   UNL     1       0.459   3.196   1.481  0.00  0.00    +0.170 HD
ATOM      4  C   UNL     1      -0.896   3.178   2.963  0.00  0.00    +0.260 A 
ATOM      5  O   UNL     1      -0.503   4.202   3.496  0.00  0.00    -0.267 OA
ATOM      6  C   UNL     1      -2.005   2.456   3.507  0.00  0.00    +0.083 A 
ATOM      7  C   UNL     1      -2.813   2.755   4.684  0.00  0.00    +0.039 A 
ATOM      8  C   UNL     1      -3.827   1.913   5.009  0.00  0.00    +0.059 A 
ATOM      9  S   UNL     1      -3.748   0.664   3.741  0.00  0.00    -0.076 S 
ATOM     10  C   UNL     1      -2.373   1.292   2.813  0.00  0.00    +0.116 A 
ATOM     11  N   UNL     1      -1.731   0.894   1.718  0.00  0.00    -0.225 NA
ENDROOT
BRANCH   7  12
ATOM     12  C   UNL     1      -2.534   3.950   5.506  0.00  0.00    +0.136 A 
ATOM     13  C   UNL     1      -3.446   4.881   5.898  0.00  0.00    +0.050 A 
ATOM     14  C   UNL     1      -2.747   5.837   6.663  0.00  0.00    +0.042 A 
ATOM     15  C   UNL     1      -1.456   5.452   6.692  0.00  0.00    +0.196 A 
ATOM     16  O   UNL     1      -1.331   4.312   5.992  0.00  0.00    -0.463 OA
ENDBRANCH   7  12
BRANCH   1  18
ATOM     17  C   UNL     1      -0.753   1.593  -1.232  0.00  0.00    +0.027 C 
ATOM     18  C   UNL     1      -0.013   1.086   0.008  0.00  0.00    +0.117 C 
BRANCH  18  19
ATOM     19  S   UNL     1       1.689   1.714  -0.005  0.00  0.00    -0.075 S 
BRANCH  19  20
ATOM     20  C   UNL     1       2.415   0.949  -1.417  0.00  0.00    +0.191 A 
ATOM     21  N   UNL     1       3.700   1.118  -1.851  0.00  0.00    -0.305 N 
ATOM     22  H   UNL     1       4.372   1.681  -1.436  0.00  0.00    +0.171 HD
ATOM     23  C   UNL     1       3.871   0.354  -2.970  0.00  0.00    +0.212 A 
ATOM     24  N   UNL     1       2.739  -0.255  -3.223  0.00  0.00    -0.113 NA
ATOM     25  N   UNL     1       1.816   0.121  -2.238  0.00  0.00    -0.121 NA
ATOM     26  N   UNL     1       5.040   0.247  -3.713  0.00  0.00    -0.328 N 
ATOM     27  H   UNL     1       5.064  -0.321  -4.499  0.00  0.00    +0.145 HD
ATOM     28  H   UNL     1       5.832   0.739  -3.447  0.00  0.00    +0.145 HD
ENDBRANCH  19  20
ENDBRANCH  18  19
ENDBRANCH   1  18
TORSDOF 4
