REMARK  Name = ZINC26029125
REMARK  4 active torsions:
REMARK  status: ('A' for Active; 'I' for Inactive)
REMARK    1  A    between atoms: N_7  and  C_11
REMARK    2  A    between atoms: C_11  and  C_12
REMARK    3  A    between atoms: C_12  and  S_13
REMARK    4  A    between atoms: S_13  and  C_14
REMARK                            x       y       z     vdW  Elec       q    Type
REMARK                         _______ _______ _______ _____ _____    ______ ____
ROOT
ATOM      1  C   UNL     1      -3.236   3.896   3.228  0.00  0.00    +0.191 A 
ATOM      2  N   UNL     1      -2.402   3.286   4.062  0.00  0.00    -0.207 NA
ATOM      3  C   UNL     1      -2.623   3.236   5.364  0.00  0.00    +0.129 A 
ATOM      4  C   UNL     1      -3.795   3.845   5.895  0.00  0.00    +0.051 A 
ATOM      5  C   UNL     1      -4.241   3.910   7.289  0.00  0.00    -0.025 A 
ATOM      6  C   UNL     1      -5.401   4.552   7.530  0.00  0.00    -0.004 A 
ATOM      7  S   UNL     1      -5.964   5.104   5.942  0.00  0.00    -0.073 S 
ATOM      8  C   UNL     1      -4.636   4.469   4.953  0.00  0.00    +0.115 A 
ATOM      9  N   UNL     1      -4.344   4.480   3.666  0.00  0.00    -0.215 NA
ATOM     10  C   UNL     1      -6.067   4.754   8.857  0.00  0.00    +0.043 C 
ATOM     11  C   UNL     1      -5.424   3.800   9.874  0.00  0.00    +0.005 C 
ATOM     12  C   UNL     1      -3.901   3.905   9.750  0.00  0.00    +0.005 C 
ATOM     13  C   UNL     1      -3.443   3.284   8.430  0.00  0.00    +0.037 C 
ATOM     14  N   UNL     1      -1.727   2.596   6.201  0.00  0.00    -0.343 N 
ATOM     15  H   UNL     1      -1.917   2.558   7.284  0.00  0.00    +0.144 HD
ATOM     16  H   UNL     1      -0.826   2.124   5.784  0.00  0.00    +0.144 HD
ENDROOT
BRANCH   1  17
ATOM     17  S   UNL     1      -2.869   3.924   1.505  0.00  0.00    -0.084 S 
BRANCH  17  18
ATOM     18  C   UNL     1      -1.305   3.013   1.502  0.00  0.00    +0.099 C 
BRANCH  18  19
ATOM     19  C   UNL     1      -0.778   2.908   0.069  0.00  0.00    +0.140 C 
BRANCH  19  26
ATOM     20  C   UNL     1       0.206  -1.549  -0.340  0.00  0.00    +0.002 A 
ATOM     21  C   UNL     1       1.565  -1.807  -0.291  0.00  0.00    +0.004 A 
ATOM     22  C   UNL     1       2.465  -0.772  -0.133  0.00  0.00    +0.048 A 
ATOM     23  C   UNL     1       2.007   0.532  -0.021  0.00  0.00    +0.157 A 
ATOM     24  C   UNL     1       0.638   0.790  -0.070  0.00  0.00    +0.090 A 
ATOM     25  C   UNL     1      -0.260  -0.254  -0.229  0.00  0.00    +0.030 A 
ATOM     26  N   UNL     1       0.487   2.170   0.067  0.00  0.00    -0.273 N 
ATOM     27  C   UNL     1       1.720   2.701   0.191  0.00  0.00    +0.421 A 
ATOM     28  O   UNL     1       1.964   3.885   0.329  0.00  0.00    -0.223 OA
ATOM     29  O   UNL     1       2.636   1.722   0.139  0.00  0.00    -0.407 OA
ENDBRANCH  19  26
ENDBRANCH  18  19
ENDBRANCH  17  18
ENDBRANCH   1  17
TORSDOF 4
