REMARK  Name = ZINC37516843
REMARK  3 active torsions:
REMARK  status: ('A' for Active; 'I' for Inactive)
REMARK    1  A    between atoms: C_1  and  C_2
REMARK    2  A    between atoms: C_12  and  C_14
REMARK    3  A    between atoms: C_17  and  C_19
REMARK                            x       y       z     vdW  Elec       q    Type
REMARK                         _______ _______ _______ _____ _____    ______ ____
ROOT
ATOM      1  C   UNL     1      -1.786   1.354  -0.243  0.00  0.00    +0.044 C 
ATOM      2  C   UNL     1      -1.693  -0.140  -0.423  0.00  0.00    -0.050 A 
ATOM      3  C   UNL     1      -0.458  -0.761  -0.399  0.00  0.00    +0.005 A 
ATOM      4  C   UNL     1      -0.373  -2.129  -0.564  0.00  0.00    +0.024 A 
ATOM      5  C   UNL     1      -1.527  -2.880  -0.754  0.00  0.00    +0.039 A 
ATOM      6  C   UNL     1      -2.765  -2.257  -0.775  0.00  0.00    -0.026 A 
ATOM      7  C   UNL     1      -2.842  -0.885  -0.605  0.00  0.00    +0.008 A 
ATOM      8  C   UNL     1      -4.037  -3.040  -0.967  0.00  0.00    +0.038 C 
ATOM      9  C   UNL     1      -3.741  -4.391  -1.619  0.00  0.00    +0.024 C 
ATOM     10  C   UNL     1      -2.631  -5.092  -0.825  0.00  0.00    +0.114 C 
ATOM     11  N   UNL     1      -1.419  -4.267  -0.925  0.00  0.00    -0.271 N 
ATOM     12  C   UNL     1      -0.223  -4.835  -1.177  0.00  0.00    +0.224 C 
ATOM     13  O   UNL     1       0.752  -4.138  -1.367  0.00  0.00    -0.275 OA
ENDROOT
BRANCH  12  14
ATOM     14  C   UNL     1      -0.096  -6.336  -1.224  0.00  0.00    +0.090 C 
ATOM     15  C   UNL     1       1.101  -6.921  -1.976  0.00  0.00    +0.029 C 
ATOM     16  C   UNL     1      -0.303  -7.021  -2.576  0.00  0.00    +0.115 C 
BRANCH  16  17
ATOM     17  C   UNL     1      -0.965  -8.375  -2.577  0.00  0.00    +0.360 C 
ATOM     18  O   UNL     1      -1.779  -8.655  -3.440  0.00  0.00    -0.246 OA
ATOM     19  O   UNL     1      -0.687  -9.190  -1.714  0.00  0.00    -0.246 OA
ENDBRANCH  16  17
ENDBRANCH  12  14
TORSDOF 2
