REMARK  Name = ZINC66924947
REMARK  8 active torsions:
REMARK  status: ('A' for Active; 'I' for Inactive)
REMARK    1  A    between atoms: C_1  and  C_2
REMARK    2  A    between atoms: N_7  and  C_9
REMARK    3  A    between atoms: C_9  and  C_10
REMARK    4  A    between atoms: C_10  and  C_11
REMARK    5  A    between atoms: C_11  and  N_12
REMARK    6  A    between atoms: N_15  and  C_16
REMARK    7  A    between atoms: C_16  and  C_17
REMARK    8  A    between atoms: C_17  and  O_27
REMARK                            x       y       z     vdW  Elec       q    Type
REMARK                         _______ _______ _______ _____ _____    ______ ____
ROOT
ATOM      1  N   UNL     1       2.244  -6.016   3.658  0.00  0.00    -0.299 N 
ATOM      2  C   UNL     1       2.617  -6.655   4.784  0.00  0.00    +0.300 C 
ATOM      3  O   UNL     1       3.044  -6.022   5.730  0.00  0.00    -0.253 OA
ATOM      4  N   UNL     1       2.515  -7.997   4.862  0.00  0.00    -0.296 N 
ATOM      5  H   UNL     1       1.903  -6.521   2.904  0.00  0.00    +0.150 HD
ATOM      6  H   UNL     1       2.174  -8.502   4.107  0.00  0.00    +0.150 HD
ENDROOT
BRANCH   1   7
ATOM      7  C   UNL     1       2.354  -4.557   3.574  0.00  0.00    +0.104 C 
BRANCH   7   8
ATOM      8  C   UNL     1       1.869  -4.088   2.200  0.00  0.00    +0.000 C 
BRANCH   8   9
ATOM      9  C   UNL     1       1.984  -2.565   2.112  0.00  0.00    -0.077 C 
BRANCH   9  15
ATOM     10  C   UNL     1       0.939   1.358  -0.624  0.00  0.00    +0.005 C 
ATOM     11  C   UNL     1       0.947  -0.172  -0.586  0.00  0.00    -0.031 C 
ATOM     12  C   UNL     1       1.827  -0.707  -1.719  0.00  0.00    -0.001 C 
ATOM     13  C   UNL     1       1.891  -2.234  -1.625  0.00  0.00    -0.018 C 
ATOM     14  C   UNL     1       2.417  -2.633  -0.244  0.00  0.00    -0.079 C 
ATOM     15  N   UNL     1       1.518  -2.114   0.794  0.00  0.00    +0.380 N 
ATOM     16  C   UNL     1       1.506  -0.647   0.756  0.00  0.00    -0.076 C 
ATOM     17  H   UNL     1       0.584  -2.461   0.633  0.00  0.00    -0.082 HD
ENDBRANCH   9  15
ENDBRANCH   8   9
ENDBRANCH   7   8
ENDBRANCH   1   7
BRANCH   4  18
ATOM     18  C   UNL     1       2.921  -8.693   6.086  0.00  0.00    +0.145 C 
BRANCH  18  19
ATOM     19  C   UNL     1       2.584 -10.180   5.963  0.00  0.00    +0.107 C 
ATOM     20  C   UNL     1       1.091 -10.337   5.680  0.00  0.00    +0.041 C 
ATOM     21  C   UNL     1       0.735 -11.825   5.776  0.00  0.00    +0.008 C 
ATOM     22  C   UNL     1       0.830 -12.249   7.240  0.00  0.00    +0.035 C 
ATOM     23  C   UNL     1       2.154 -11.834   7.827  0.00  0.00    -0.041 A 
ATOM     24  C   UNL     1       2.958 -10.882   7.242  0.00  0.00    -0.011 A 
ATOM     25  C   UNL     1       4.164 -10.540   7.838  0.00  0.00    +0.007 A 
ATOM     26  C   UNL     1       4.566 -11.150   9.009  0.00  0.00    +0.000 A 
ATOM     27  C   UNL     1       3.760 -12.110   9.594  0.00  0.00    +0.000 A 
ATOM     28  C   UNL     1       2.560 -12.449   9.004  0.00  0.00    +0.004 A 
BRANCH  19  29
ATOM     29  O   UNL     1       3.330 -10.743   4.881  0.00  0.00    -0.382 OA
ATOM     30  H   UNL     1       4.288 -10.674   4.986  0.00  0.00    +0.211 HD
ENDBRANCH  19  29
ENDBRANCH  18  19
ENDBRANCH   4  18
TORSDOF 7
