REMARK  Name = ZINC20718933
REMARK  7 active torsions:
REMARK  status: ('A' for Active; 'I' for Inactive)
REMARK    1  A    between atoms: C_1  and  O_2
REMARK    2  A    between atoms: O_2  and  C_3
REMARK    3  A    between atoms: C_3  and  C_5
REMARK    4  A    between atoms: C_5  and  C_7
REMARK    5  A    between atoms: C_5  and  N_14
REMARK    6  A    between atoms: C_7  and  C_8
REMARK    7  A    between atoms: C_26  and  C_28
REMARK                            x       y       z     vdW  Elec       q    Type
REMARK                         _______ _______ _______ _____ _____    ______ ____
ROOT
ATOM      1  N   UNL     1      -2.717  -2.300   2.644  0.00  0.00    -0.286 N 
ATOM      2  C   UNL     1      -3.192  -2.611   1.422  0.00  0.00    +0.304 C 
ATOM      3  O   UNL     1      -2.511  -2.406   0.435  0.00  0.00    -0.253 OA
ATOM      4  N   UNL     1      -4.420  -3.150   1.293  0.00  0.00    -0.273 N 
ATOM      5  C   UNL     1      -4.910  -3.606  -0.016  0.00  0.00    +0.116 C 
ATOM      6  C   UNL     1      -6.117  -2.752  -0.426  0.00  0.00    +0.074 C 
ATOM      7  C   UNL     1      -7.036  -2.612   0.759  0.00  0.00    +0.040 A 
ATOM      8  C   UNL     1      -6.684  -2.847   2.041  0.00  0.00    +0.062 A 
ATOM      9  N   UNL     1      -7.749  -2.617   2.813  0.00  0.00    -0.348 N 
ATOM     10  C   UNL     1      -8.752  -2.250   2.059  0.00  0.00    +0.171 A 
ATOM     11  N   UNL     1      -8.346  -2.236   0.769  0.00  0.00    -0.349 N 
ATOM     12  H   UNL     1      -8.885  -2.003  -0.003  0.00  0.00    +0.166 HD
ATOM     13  C   UNL     1      -5.304  -3.303   2.463  0.00  0.00    +0.157 C 
ATOM     14  H   UNL     1      -3.286  -2.395   3.424  0.00  0.00    +0.151 HD
ATOM     15  H   UNL     1      -7.774  -2.708   3.778  0.00  0.00    +0.167 HD
ENDROOT
BRANCH  13  16
ATOM     16  C   UNL     1      -5.345  -4.748   2.890  0.00  0.00    -0.003 A 
ATOM     17  C   UNL     1      -5.834  -5.710   2.026  0.00  0.00    +0.009 A 
ATOM     18  C   UNL     1      -5.871  -7.035   2.417  0.00  0.00    +0.020 A 
ATOM     19  C   UNL     1      -5.419  -7.400   3.672  0.00  0.00    +0.042 A 
ATOM     20  C   UNL     1      -4.929  -6.438   4.537  0.00  0.00    +0.040 A 
ATOM     21  C   UNL     1      -4.887  -5.112   4.144  0.00  0.00    +0.048 A 
ATOM     22 CL   UNL     1      -4.267  -3.905   5.226  0.00  0.00    -0.083 Cl
ATOM     23 CL   UNL     1      -5.467  -9.064   4.163  0.00  0.00    -0.083 Cl
ENDBRANCH  13  16
BRANCH   1  24
ATOM     24  C   UNL     1      -1.342  -1.817   2.795  0.00  0.00    +0.187 C 
BRANCH  24  25
ATOM     25  C   UNL     1      -0.404  -2.993   2.889  0.00  0.00    +0.328 C 
ATOM     26  O   UNL     1      -0.840  -4.119   2.836  0.00  0.00    -0.249 OA
BRANCH  25  28
ATOM     27  C   UNL     1       1.745  -3.950   3.115  0.00  0.00    +0.280 C 
ATOM     28  O   UNL     1       0.915  -2.790   3.032  0.00  0.00    -0.467 OA
ENDBRANCH  25  28
ENDBRANCH  24  25
BRANCH  24  29
ATOM     29  C   UNL     1      -1.234  -0.975   4.068  0.00  0.00    +0.069 C 
BRANCH  29  30
ATOM     30  C   UNL     1      -2.078   0.265   3.923  0.00  0.00    -0.045 A 
ATOM     31  C   UNL     1      -1.530   1.415   3.386  0.00  0.00    +0.004 A 
ATOM     32  C   UNL     1      -2.304   2.552   3.253  0.00  0.00    +0.000 A 
ATOM     33  C   UNL     1      -3.626   2.540   3.657  0.00  0.00    +0.000 A 
ATOM     34  C   UNL     1      -4.174   1.389   4.194  0.00  0.00    +0.000 A 
ATOM     35  C   UNL     1      -3.401   0.251   4.322  0.00  0.00    +0.004 A 
ENDBRANCH  29  30
ENDBRANCH  24  29
ENDBRANCH   1  24
TORSDOF 6
