REMARK  Name = ZINC08791081
REMARK  6 active torsions:
REMARK  status: ('A' for Active; 'I' for Inactive)
REMARK    1  A    between atoms: C_1  and  C_2
REMARK    2  A    between atoms: C_16  and  C_18
REMARK    3  A    between atoms: C_18  and  C_19
REMARK    4  A    between atoms: C_22  and  O_25
REMARK    5  A    between atoms: N_28  and  C_31
REMARK    6  A    between atoms: C_31  and  C_32
REMARK                            x       y       z     vdW  Elec       q    Type
REMARK                         _______ _______ _______ _____ _____    ______ ____
ROOT
ATOM      1  C   UNL     1      -3.845  -2.131   3.156  0.00  0.00    +0.045 C 
ATOM      2  C   UNL     1      -4.024  -0.965   2.218  0.00  0.00    -0.029 A 
ATOM      3  C   UNL     1      -5.176  -0.858   1.465  0.00  0.00    +0.005 A 
ATOM      4  C   UNL     1      -5.349   0.208   0.603  0.00  0.00    +0.001 A 
ATOM      5  C   UNL     1      -4.363   1.173   0.493  0.00  0.00    +0.004 A 
ATOM      6  C   UNL     1      -3.213   1.071   1.243  0.00  0.00    -0.027 A 
ATOM      7  C   UNL     1      -3.027   0.002   2.115  0.00  0.00    +0.039 A 
ATOM      8  N   UNL     1      -1.794   0.114   2.760  0.00  0.00    -0.286 N 
ATOM      9  C   UNL     1      -1.117   1.213   2.375  0.00  0.00    +0.211 C 
ATOM     10  O   UNL     1      -0.025   1.565   2.767  0.00  0.00    -0.277 OA
ATOM     11  C   UNL     1      -1.979   1.919   1.365  0.00  0.00    +0.050 C 
ATOM     12  C   UNL     1      -1.260   2.065   0.019  0.00  0.00    +0.088 C 
ATOM     13  C   UNL     1      -0.698   3.514   0.032  0.00  0.00    +0.073 C 
ATOM     14  C   UNL     1      -1.110   4.108   1.396  0.00  0.00    -0.053 C 
ATOM     15  C   UNL     1       0.799   3.307   0.014  0.00  0.00    +0.224 C 
ATOM     16  O   UNL     1       1.629   4.191   0.010  0.00  0.00    -0.275 OA
ATOM     17  N   UNL     1       1.067   1.996   0.003  0.00  0.00    -0.237 N 
ATOM     18  C   UNL     1      -0.014   1.208   0.009  0.00  0.00    +0.225 C 
ATOM     19  O   UNL     1       0.002  -0.004   0.002  0.00  0.00    -0.275 OA
ATOM     20  H   UNL     1      -1.463  -0.526   3.410  0.00  0.00    +0.155 HD
ATOM     21  N   UNL     1      -2.277   3.279   1.784  0.00  0.00    +0.394 N 
ATOM     22  H   UNL     1      -2.413   3.314   2.801  0.00  0.00    -0.083 HD
ATOM     23  H   UNL     1      -3.124   3.618   1.314  0.00  0.00    -0.083 HD
ENDROOT
BRANCH  14  24
ATOM     24  C   UNL     1      -1.490   5.582   1.242  0.00  0.00    +0.020 C 
BRANCH  24  25
ATOM     25  C   UNL     1      -1.769   6.173   2.600  0.00  0.00    -0.049 A 
ATOM     26  C   UNL     1      -3.052   6.142   3.115  0.00  0.00    +0.007 A 
ATOM     27  C   UNL     1      -3.310   6.678   4.362  0.00  0.00    +0.045 A 
ATOM     28  C   UNL     1      -2.283   7.259   5.092  0.00  0.00    +0.117 A 
ATOM     29  C   UNL     1      -0.998   7.295   4.570  0.00  0.00    +0.045 A 
ATOM     30  C   UNL     1      -0.744   6.752   3.325  0.00  0.00    +0.007 A 
BRANCH  28  31
ATOM     31  O   UNL     1      -2.535   7.793   6.316  0.00  0.00    -0.507 OA
ATOM     32  H   UNL     1      -2.783   8.727   6.294  0.00  0.00    +0.292 HD
ENDBRANCH  28  31
ENDBRANCH  24  25
ENDBRANCH  14  24
BRANCH  17  33
ATOM     33  C   UNL     1       2.433   1.466  -0.016  0.00  0.00    +0.151 C 
BRANCH  33  34
ATOM     34  C   UNL     1       2.886   1.295  -1.443  0.00  0.00    -0.026 A 
ATOM     35  C   UNL     1       2.665   0.097  -2.097  0.00  0.00    +0.009 A 
ATOM     36  C   UNL     1       3.075  -0.064  -3.408  0.00  0.00    +0.050 A 
ATOM     37  C   UNL     1       3.717   0.973  -4.066  0.00  0.00    +0.166 A 
ATOM     38  C   UNL     1       3.944   2.178  -3.405  0.00  0.00    +0.167 A 
ATOM     39  C   UNL     1       3.526   2.333  -2.093  0.00  0.00    +0.054 A 
ATOM     40  O   UNL     1       4.586   3.029  -4.257  0.00  0.00    -0.453 OA
ATOM     41  C   UNL     1       4.386   2.479  -5.572  0.00  0.00    +0.466 C 
ATOM     42  O   UNL     1       4.217   1.069  -5.332  0.00  0.00    -0.453 OA
ENDBRANCH  33  34
ENDBRANCH  17  33
TORSDOF 5
