REMARK  Name = ZINC44021213
REMARK  14 active torsions:
REMARK  status: ('A' for Active; 'I' for Inactive)
REMARK    1  A    between atoms: C_1  and  C_2
REMARK    2  A    between atoms: C_2  and  C_4
REMARK    3  A    between atoms: C_2  and  C_15
REMARK    4  A    between atoms: C_4  and  C_5
REMARK    5  A    between atoms: C_5  and  C_6
REMARK    6  A    between atoms: C_6  and  O_7
REMARK    7  A    between atoms: O_7  and  C_8
REMARK    8  A    between atoms: C_8  and  C_10
REMARK    9  A    between atoms: C_10  and  C_11
REMARK   10  A    between atoms: C_11  and  C_12
REMARK   11  A    between atoms: C_21  and  C_43
REMARK   12  A    between atoms: C_22  and  O_42
REMARK   13  A    between atoms: C_29  and  O_41
REMARK   14  A    between atoms: C_34  and  C_40
REMARK                            x       y       z     vdW  Elec       q    Type
REMARK                         _______ _______ _______ _____ _____    ______ ____
ROOT
ATOM      1  C   UNL     1       0.960  -0.558   1.330  0.00  0.00    +0.001 C 
ATOM      2  C   UNL     1       2.482  -0.346   1.539  0.00  0.00    +0.005 C 
ATOM      3  C   UNL     1       3.105  -1.765   1.694  0.00  0.00    +0.005 C 
ATOM      4  C   UNL     1       1.869  -2.615   2.035  0.00  0.00    +0.003 C 
ATOM      5  C   UNL     1       0.842  -2.070   1.024  0.00  0.00    +0.000 C 
ATOM      6  C   UNL     1      -0.512  -2.673   1.284  0.00  0.00    +0.121 C 
ATOM      7  C   UNL     1      -0.429  -4.194   1.465  0.00  0.00    +0.036 C 
ATOM      8  C   UNL     1       0.943  -4.762   1.153  0.00  0.00    +0.003 C 
ATOM      9  C   UNL     1       2.045  -4.114   1.976  0.00  0.00    +0.025 C 
ATOM     10  C   UNL     1       2.000  -4.617   3.429  0.00  0.00    +0.118 C 
ATOM     11  C   UNL     1       2.089  -6.137   3.481  0.00  0.00    +0.036 C 
ATOM     12  C   UNL     1       0.912  -6.735   2.712  0.00  0.00    +0.005 C 
ATOM     13  C   UNL     1       0.952  -6.291   1.257  0.00  0.00    -0.025 C 
ATOM     14  C   UNL     1      -0.272  -6.844   0.519  0.00  0.00    +0.015 C 
ATOM     15  C   UNL     1      -0.263  -8.373   0.530  0.00  0.00    +0.075 C 
ATOM     16  C   UNL     1      -0.123  -8.856   1.956  0.00  0.00    +0.134 C 
ATOM     17  O   UNL     1      -0.867  -9.703   2.395  0.00  0.00    -0.297 OA
ATOM     18  C   UNL     1       0.963  -8.261   2.821  0.00  0.00    +0.078 C 
ATOM     19  C   UNL     1       2.219  -6.808   0.569  0.00  0.00    +0.012 C 
ATOM     20  C   UNL     1       1.268  -2.245  -0.433  0.00  0.00    +0.014 C 
ENDROOT
BRANCH   1  22
ATOM     21  C   UNL     1       1.115   1.639   0.158  0.00  0.00    +0.008 C 
ATOM     22  C   UNL     1       0.470   0.252   0.134  0.00  0.00    -0.010 C 
BRANCH  22  23
ATOM     23  C   UNL     1      -1.052   0.396   0.205  0.00  0.00    +0.007 C 
BRANCH  23  24
ATOM     24  C   UNL     1      -1.551   1.144  -1.033  0.00  0.00    +0.041 C 
BRANCH  24  25
ATOM     25  C   UNL     1      -3.073   1.289  -0.962  0.00  0.00    +0.232 C 
BRANCH  25  26
ATOM     26  O   UNL     1      -3.539   1.988  -2.118  0.00  0.00    -0.465 OA
BRANCH  26  27
ATOM     27  C   UNL     1      -4.862   2.198  -2.210  0.00  0.00    +0.308 C 
ATOM     28  O   UNL     1      -5.599   1.803  -1.338  0.00  0.00    -0.251 OA
BRANCH  27  29
ATOM     29  C   UNL     1      -5.427   2.929  -3.401  0.00  0.00    +0.132 C 
BRANCH  29  30
ATOM     30  C   UNL     1      -6.947   3.034  -3.260  0.00  0.00    +0.136 C 
BRANCH  30  31
ATOM     31  C   UNL     1      -7.513   3.764  -4.451  0.00  0.00    +0.357 C 
ATOM     32  O   UNL     1      -6.769   4.163  -5.331  0.00  0.00    -0.246 OA
ATOM     33  O   UNL     1      -8.714   3.955  -4.534  0.00  0.00    -0.246 OA
ENDBRANCH  30  31
ENDBRANCH  29  30
ENDBRANCH  27  29
ENDBRANCH  26  27
ENDBRANCH  25  26
ENDBRANCH  24  25
ENDBRANCH  23  24
ENDBRANCH  22  23
ENDBRANCH   1  22
BRANCH  10  34
ATOM     34  O   UNL     1       3.093  -4.051   4.153  0.00  0.00    -0.391 OA
ATOM     35  H   UNL     1       3.133  -4.322   5.080  0.00  0.00    +0.210 HD
ENDBRANCH  10  34
BRANCH   6  36
ATOM     36  O   UNL     1      -1.403  -2.371   0.199  0.00  0.00    -0.391 OA
ATOM     37  H   UNL     1      -2.293  -2.733   0.308  0.00  0.00    +0.210 HD
ENDBRANCH   6  36
TORSDOF 11
