REMARK  Name = ZINC22076554
REMARK  8 active torsions:
REMARK  status: ('A' for Active; 'I' for Inactive)
REMARK    1  A    between atoms: C_3  and  N_11
REMARK    2  A    between atoms: C_6  and  N_7
REMARK    3  A    between atoms: N_11  and  C_12
REMARK    4  A    between atoms: C_12  and  C_13
REMARK    5  A    between atoms: C_13  and  N_14
REMARK    6  A    between atoms: N_14  and  C_15
REMARK    7  A    between atoms: C_15  and  C_16
REMARK    8  A    between atoms: C_19  and  C_21
REMARK                            x       y       z     vdW  Elec       q    Type
REMARK                         _______ _______ _______ _____ _____    ______ ____
ROOT
ATOM      1  N   UNL     1      -4.933   1.550   0.034  0.00  0.00    +0.385 N 
ATOM      2  H   UNL     1      -4.988   0.922  -0.867  0.00  0.00    -0.085 HD
ATOM      3  H   UNL     1      -4.979   0.912   0.929  0.00  0.00    -0.085 HD
ENDROOT
BRANCH   1   4
ATOM      4  C   UNL     1      -3.670   2.300   0.032  0.00  0.00    -0.063 C 
BRANCH   4   5
ATOM      5  C   UNL     1      -2.495   1.320   0.021  0.00  0.00    +0.082 C 
BRANCH   5   6
ATOM      6  N   UNL     1      -1.236   2.068   0.019  0.00  0.00    -0.345 N 
ATOM      7  H   UNL     1      -1.249   3.168   0.025  0.00  0.00    +0.146 HD
BRANCH   6  10
ATOM      8  C   UNL     1       1.208  -0.677  -0.013  0.00  0.00    +0.034 A 
ATOM      9  C   UNL     1       0.002  -0.004   0.002  0.00  0.00    +0.026 A 
ATOM     10  C   UNL     1      -0.017   1.384   0.010  0.00  0.00    +0.046 A 
ATOM     11  C   UNL     1       1.180   2.092   0.002  0.00  0.00    +0.064 A 
ATOM     12  C   UNL     1       2.382   1.413  -0.014  0.00  0.00    +0.054 A 
ATOM     13  C   UNL     1       2.397   0.030  -0.021  0.00  0.00    +0.128 A 
ATOM     14 CL   UNL     1       1.162   3.828   0.011  0.00  0.00    -0.082 Cl
BRANCH  13  15
ATOM     15  N   UNL     1       3.687  -0.695  -0.037  0.00  0.00    +0.056 N 
ATOM     16  O   UNL     1       3.701  -1.913  -0.044  0.00  0.00    -0.126 OA
ATOM     17  O   UNL     1       4.734  -0.074  -0.043  0.00  0.00    -0.126 OA
ENDBRANCH  13  15
ENDBRANCH   6  10
ENDBRANCH   5   6
ENDBRANCH   4   5
ENDBRANCH   1   4
BRANCH   1  18
ATOM     18  C   UNL     1      -6.086   2.461   0.044  0.00  0.00    -0.007 C 
BRANCH  18  19
ATOM     19  C   UNL     1      -7.361   1.657   0.046  0.00  0.00    +0.089 A 
ATOM     20  C   UNL     1      -8.020   1.232   1.141  0.00  0.00    +0.043 A 
ATOM     21  C   UNL     1      -9.152   0.522   0.693  0.00  0.00    +0.050 A 
ATOM     22  C   UNL     1      -9.120   0.553  -0.666  0.00  0.00    +0.135 A 
ATOM     23  O   UNL     1      -8.031   1.250  -1.044  0.00  0.00    -0.462 OA
BRANCH  22  24
ATOM     24  C   UNL     1     -10.112  -0.064  -1.571  0.00  0.00    +0.020 A 
ATOM     25  C   UNL     1     -11.201  -0.762  -1.046  0.00  0.00    +0.031 A 
ATOM     26  C   UNL     1     -12.127  -1.334  -1.896  0.00  0.00    +0.043 A 
ATOM     27  C   UNL     1     -11.971  -1.224  -3.268  0.00  0.00    +0.040 A 
ATOM     28  C   UNL     1     -10.891  -0.537  -3.795  0.00  0.00    +0.043 A 
ATOM     29  C   UNL     1      -9.961   0.043  -2.954  0.00  0.00    +0.031 A 
ATOM     30 CL   UNL     1     -10.704  -0.405  -5.516  0.00  0.00    -0.083 Cl
ATOM     31 CL   UNL     1     -13.484  -2.197  -1.245  0.00  0.00    -0.083 Cl
ENDBRANCH  22  24
ENDBRANCH  18  19
ENDBRANCH   1  18
TORSDOF 8
