REMARK  Name = ZINC48962642
REMARK  2 active torsions:
REMARK  status: ('A' for Active; 'I' for Inactive)
REMARK    1  A    between atoms: C_10  and  N_12
REMARK    2  A    between atoms: C_16  and  N_19
REMARK                            x       y       z     vdW  Elec       q    Type
REMARK                         _______ _______ _______ _____ _____    ______ ____
ROOT
ATOM      1  N   UNL     1       3.917   3.055  -0.973  0.00  0.00    -0.322 N 
ATOM      2  C   UNL     1       3.617   4.350  -0.566  0.00  0.00    +0.119 A 
ATOM      3  C   UNL     1       3.211   4.585   0.744  0.00  0.00    +0.046 A 
ATOM      4  C   UNL     1       2.916   5.878   1.135  0.00  0.00    +0.037 A 
ATOM      5  C   UNL     1       3.038   6.898   0.200  0.00  0.00    +0.144 A 
ATOM      6  C   UNL     1       3.446   6.593  -1.083  0.00  0.00    +0.145 A 
ATOM      7  N   UNL     1       3.725   5.350  -1.427  0.00  0.00    -0.238 NA
ATOM      8  H   UNL     1       4.204   2.887  -1.884  0.00  0.00    +0.148 HD
ENDROOT
BRANCH   1  18
ATOM      9  C   UNL     1      -0.017   1.380   0.010  0.00  0.00    +0.039 A 
ATOM     10  C   UNL     1       1.171   2.085   0.002  0.00  0.00    +0.008 A 
ATOM     11  C   UNL     1       2.381   1.412  -0.014  0.00  0.00    -0.024 A 
ATOM     12  C   UNL     1       2.401   0.030  -0.021  0.00  0.00    -0.040 A 
ATOM     13  C   UNL     1       1.211  -0.677  -0.013  0.00  0.00    +0.042 A 
ATOM     14  C   UNL     1       0.002  -0.004   0.002  0.00  0.00    +0.124 A 
ATOM     15  F   UNL     1      -1.158  -0.697   0.010  0.00  0.00    -0.205 F 
ATOM     16  C   UNL     1       3.833  -0.461  -0.039  0.00  0.00    +0.037 C 
ATOM     17  C   UNL     1       4.672   0.756  -0.481  0.00  0.00    +0.032 C 
ATOM     18  C   UNL     1       3.798   1.944  -0.025  0.00  0.00    +0.103 C 
ENDBRANCH   1  18
BRANCH   5  19
ATOM     19  N   UNL     1       2.732   8.297   0.574  0.00  0.00    +0.058 N 
ATOM     20  O   UNL     1       2.375   8.557   1.700  0.00  0.00    -0.126 OA
ATOM     21  O   UNL     1       2.840   9.179  -0.245  0.00  0.00    -0.126 OA
ENDBRANCH   5  19
TORSDOF 2
