REMARK  Name = ZINC55048950
REMARK  7 active torsions:
REMARK  status: ('A' for Active; 'I' for Inactive)
REMARK    1  A    between atoms: C_1  and  C_2
REMARK    2  A    between atoms: C_2  and  C_4
REMARK    3  A    between atoms: C_2  and  N_9
REMARK    4  A    between atoms: N_9  and  C_10
REMARK    5  A    between atoms: N_13  and  C_14
REMARK    6  A    between atoms: C_14  and  C_16
REMARK    7  A    between atoms: C_14  and  C_17
REMARK                            x       y       z     vdW  Elec       q    Type
REMARK                         _______ _______ _______ _____ _____    ______ ____
ROOT
ATOM      1  N   UNL     1       0.711  -0.489   1.189  0.00  0.00    -0.281 N 
ATOM      2  C   UNL     1       0.218  -0.149   2.526  0.00  0.00    +0.134 C 
ATOM      3  C   UNL     1       1.816  -1.249   1.051  0.00  0.00    +0.303 C 
ATOM      4  O   UNL     1       2.224  -1.531  -0.059  0.00  0.00    -0.253 OA
ATOM      5  N   UNL     1       2.467  -1.695   2.143  0.00  0.00    -0.290 N 
ATOM      6  H   UNL     1       2.141  -1.470   3.028  0.00  0.00    +0.151 HD
ENDROOT
BRANCH   1   8
ATOM      7  C   UNL     1      -0.019   1.526   0.010  0.00  0.00    +0.034 C 
ATOM      8  C   UNL     1       0.002  -0.004   0.002  0.00  0.00    +0.111 C 
BRANCH   8   9
ATOM      9  C   UNL     1      -1.412  -0.526   0.013  0.00  0.00    +0.010 A 
ATOM     10  C   UNL     1      -2.157  -0.992  -1.019  0.00  0.00    +0.013 A 
ATOM     11  C   UNL     1      -3.447  -1.425  -0.772  0.00  0.00    +0.008 A 
ATOM     12  C   UNL     1      -3.927  -1.370   0.494  0.00  0.00    +0.045 A 
ATOM     13  S   UNL     1      -2.537  -0.697   1.389  0.00  0.00    -0.100 S 
ENDBRANCH   8   9
ENDBRANCH   1   8
BRANCH   5  14
ATOM     14  C   UNL     1       3.669  -2.520   1.992  0.00  0.00    +0.137 C 
ATOM     15  C   UNL     1       3.262  -3.985   1.816  0.00  0.00    +0.036 C 
BRANCH  14  16
ATOM     16  C   UNL     1       4.530  -2.382   3.221  0.00  0.00    +0.128 A 
ATOM     17  N   UNL     1       5.876  -2.579   3.255  0.00  0.00    -0.340 N 
ATOM     18  H   UNL     1       6.440  -2.827   2.506  0.00  0.00    +0.167 HD
ATOM     19  C   UNL     1       6.290  -2.357   4.554  0.00  0.00    +0.066 A 
ATOM     20  C   UNL     1       7.519  -2.403   5.197  0.00  0.00    +0.028 A 
ATOM     21  C   UNL     1       7.595  -2.120   6.544  0.00  0.00    +0.002 A 
ATOM     22  C   UNL     1       6.452  -1.790   7.260  0.00  0.00    +0.002 A 
ATOM     23  C   UNL     1       5.234  -1.741   6.643  0.00  0.00    +0.030 A 
ATOM     24  C   UNL     1       5.133  -2.023   5.278  0.00  0.00    +0.089 A 
ATOM     25  N   UNL     1       4.096  -2.052   4.402  0.00  0.00    -0.231 NA
ENDBRANCH  14  16
ENDBRANCH   5  14
TORSDOF 4
