REMARK  Name = ZINC03350283
REMARK  9 active torsions:
REMARK  status: ('A' for Active; 'I' for Inactive)
REMARK    1  A    between atoms: C_1  and  C_2
REMARK    2  A    between atoms: C_2  and  C_3
REMARK    3  A    between atoms: C_2  and  C_4
REMARK    4  A    between atoms: C_4  and  C_5
REMARK    5  A    between atoms: C_5  and  C_6
REMARK    6  A    between atoms: C_8  and  C_20
REMARK    7  A    between atoms: C_8  and  O_24
REMARK    8  A    between atoms: C_11  and  C_13
REMARK    9  A    between atoms: C_18  and  O_19
REMARK                            x       y       z     vdW  Elec       q    Type
REMARK                         _______ _______ _______ _____ _____    ______ ____
ROOT
ATOM      1  C   UNL     1      -0.494  -4.260  -0.250  0.00  0.00    +0.023 C 
ATOM      2  C   UNL     1      -1.803  -4.391  -0.304  0.00  0.00    +0.058 C 
ATOM      3  C   UNL     1      -2.404  -3.006  -0.210  0.00  0.00    +0.270 C 
ATOM      4  N   UNL     1      -1.243  -2.107  -0.099  0.00  0.00    -0.175 N 
ATOM      5  N   UNL     1      -0.114  -2.936  -0.136  0.00  0.00    -0.263 N 
ATOM      6  C   UNL     1      -1.263  -0.763   0.011  0.00  0.00    +0.269 C 
ATOM      7  O   UNL     1      -2.322  -0.178   0.127  0.00  0.00    -0.268 OA
ATOM      8  H   UNL     1       0.804  -2.626  -0.086  0.00  0.00    +0.170 HD
ENDROOT
BRANCH   6   9
ATOM      9  C   UNL     1       0.001  -0.003  -0.012  0.00  0.00    +0.080 A 
ATOM     10  C   UNL     1       1.068  -0.436  -0.803  0.00  0.00    +0.017 A 
ATOM     11  C   UNL     1       2.246   0.278  -0.819  0.00  0.00    +0.001 A 
ATOM     12  C   UNL     1       2.378   1.425  -0.053  0.00  0.00    +0.004 A 
ATOM     13  C   UNL     1       1.332   1.865   0.733  0.00  0.00    +0.046 A 
ATOM     14  C   UNL     1       0.139   1.158   0.761  0.00  0.00    +0.129 A 
BRANCH  14  15
ATOM     15  O   UNL     1      -0.892   1.592   1.529  0.00  0.00    -0.506 OA
ATOM     16  H   UNL     1      -0.892   1.233   2.427  0.00  0.00    +0.292 HD
ENDBRANCH  14  15
ENDBRANCH   6   9
BRANCH   3  17
ATOM     17  C   UNL     1      -3.208  -2.687  -1.472  0.00  0.00    +0.441 C 
ATOM     18  F   UNL     1      -2.394  -2.852  -2.598  0.00  0.00    -0.166 F 
ATOM     19  F   UNL     1      -3.661  -1.365  -1.414  0.00  0.00    -0.166 F 
ATOM     20  F   UNL     1      -4.304  -3.552  -1.558  0.00  0.00    -0.166 F 
ENDBRANCH   3  17
BRANCH   3  21
ATOM     21  O   UNL     1      -3.231  -2.899   0.950  0.00  0.00    -0.360 OA
ATOM     22  H   UNL     1      -4.011  -3.470   0.931  0.00  0.00    +0.213 HD
ENDBRANCH   3  21
BRANCH   1  23
ATOM     23  C   UNL     1       0.473  -5.413  -0.313  0.00  0.00    +0.052 C 
BRANCH  23  24
ATOM     24  C   UNL     1       0.943  -5.607  -1.756  0.00  0.00    +0.009 C 
BRANCH  24  26
ATOM     25  C   UNL     1       1.198  -8.074  -1.454  0.00  0.00    +0.007 C 
ATOM     26  C   UNL     1       1.925  -6.778  -1.820  0.00  0.00    -0.017 C 
ATOM     27  C   UNL     1       2.491  -6.893  -3.237  0.00  0.00    +0.007 C 
ENDBRANCH  24  26
ENDBRANCH  23  24
ENDBRANCH   1  23
TORSDOF 7
