REMARK  Name = ZINC12801199
REMARK  19 active torsions:
REMARK  status: ('A' for Active; 'I' for Inactive)
REMARK    1  A    between atoms: C_1  and  O_2
REMARK    2  A    between atoms: O_2  and  C_3
REMARK    3  A    between atoms: C_8  and  C_9
REMARK    4  A    between atoms: C_9  and  O_10
REMARK    5  A    between atoms: O_10  and  C_11
REMARK    6  A    between atoms: C_11  and  C_12
REMARK    7  A    between atoms: C_12  and  C_14
REMARK    8  A    between atoms: C_12  and  O_41
REMARK    9  A    between atoms: C_14  and  N_15
REMARK   10  A    between atoms: N_15  and  C_16
REMARK   11  A    between atoms: N_15  and  C_31
REMARK   12  A    between atoms: C_16  and  C_17
REMARK   13  A    between atoms: C_17  and  C_19
REMARK   14  A    between atoms: C_17  and  O_30
REMARK   15  A    between atoms: C_19  and  O_20
REMARK   16  A    between atoms: O_20  and  C_21
REMARK   17  A    between atoms: C_21  and  C_22
REMARK   18  A    between atoms: C_27  and  O_28
REMARK   19  A    between atoms: O_28  and  C_29
REMARK                            x       y       z     vdW  Elec       q    Type
REMARK                         _______ _______ _______ _____ _____    ______ ____
ROOT
ATOM      1  N   UNL     1      -0.327  -8.809   0.006  0.00  0.00    +0.387 N 
ATOM      2  H   UNL     1      -0.029  -9.401   0.767  0.00  0.00    -0.081 HD
ENDROOT
BRANCH   1   3
ATOM      3  C   UNL     1       0.373  -7.521   0.085  0.00  0.00    -0.065 C 
ATOM      4  C   UNL     1       1.798  -7.681  -0.451  0.00  0.00    -0.009 C 
ATOM      5  C   UNL     1       2.527  -6.338  -0.369  0.00  0.00    -0.012 C 
ATOM      6  C   UNL     1       2.579  -5.874   1.088  0.00  0.00    +0.007 C 
ATOM      7  C   UNL     1       1.154  -5.714   1.623  0.00  0.00    -0.012 C 
ATOM      8  C   UNL     1       0.425  -7.056   1.541  0.00  0.00    -0.009 C 
ATOM      9  C   UNL     1       0.408  -4.676   0.783  0.00  0.00    +0.007 C 
ATOM     10  C   UNL     1       0.356  -5.140  -0.674  0.00  0.00    -0.012 C 
ATOM     11  C   UNL     1       1.781  -5.300  -1.209  0.00  0.00    +0.007 C 
ATOM     12  C   UNL     1      -0.373  -6.482  -0.756  0.00  0.00    -0.009 C 
ENDBRANCH   1   3
BRANCH   1  13
ATOM     13  C   UNL     1      -0.013  -9.461  -1.272  0.00  0.00    -0.044 C 
BRANCH  13  14
ATOM     14  C   UNL     1       0.759 -10.755  -1.009  0.00  0.00    +0.124 C 
BRANCH  14  15
ATOM     15  O   UNL     1       2.045 -10.442  -0.471  0.00  0.00    -0.391 OA
ATOM     16  H   UNL     1       2.631  -9.987  -1.091  0.00  0.00    +0.210 HD
ENDBRANCH  14  15
BRANCH  14  17
ATOM     17  C   UNL     1       0.929 -11.524  -2.321  0.00  0.00    +0.189 C 
BRANCH  17  18
ATOM     18  O   UNL     1       1.546 -12.786  -2.058  0.00  0.00    -0.373 OA
BRANCH  18  19
ATOM     19  C   UNL     1       1.751 -13.587  -3.223  0.00  0.00    +0.198 C 
BRANCH  19  20
ATOM     20  C   UNL     1       2.404 -14.887  -2.830  0.00  0.00    +0.020 A 
ATOM     21  C   UNL     1       2.700 -15.139  -1.504  0.00  0.00    +0.009 A 
ATOM     22  C   UNL     1       3.299 -16.332  -1.143  0.00  0.00    +0.001 A 
ATOM     23  C   UNL     1       3.604 -17.275  -2.107  0.00  0.00    +0.004 A 
ATOM     24  C   UNL     1       3.310 -17.027  -3.434  0.00  0.00    +0.046 A 
ATOM     25  C   UNL     1       2.704 -15.834  -3.798  0.00  0.00    +0.125 A 
BRANCH  25  26
ATOM     26  O   UNL     1       2.409 -15.591  -5.102  0.00  0.00    -0.495 OA
ATOM     27  C   UNL     1       2.746 -16.610  -6.045  0.00  0.00    +0.277 C 
ENDBRANCH  25  26
ENDBRANCH  19  20
ENDBRANCH  18  19
ENDBRANCH  17  18
ENDBRANCH  14  17
ENDBRANCH  13  14
ENDBRANCH   1  13
BRANCH   1  28
ATOM     28  C   UNL     1      -1.776  -8.586   0.098  0.00  0.00    -0.044 C 
BRANCH  28  29
ATOM     29  C   UNL     1      -2.133  -8.130   1.514  0.00  0.00    +0.124 C 
BRANCH  29  30
ATOM     30  O   UNL     1      -2.261  -6.707   1.539  0.00  0.00    -0.391 OA
ATOM     31  H   UNL     1      -3.102  -6.382   1.189  0.00  0.00    +0.210 HD
ENDBRANCH  29  30
BRANCH  29  32
ATOM     32  C   UNL     1      -3.458  -8.769   1.937  0.00  0.00    +0.189 C 
BRANCH  32  33
ATOM     33  O   UNL     1      -3.733  -8.438   3.299  0.00  0.00    -0.373 OA
BRANCH  33  34
ATOM     34  C   UNL     1      -4.955  -8.988   3.796  0.00  0.00    +0.198 C 
BRANCH  34  40
ATOM     35  C   UNL     1      -6.266  -8.995   5.933  0.00  0.00    +0.125 A 
ATOM     36  C   UNL     1      -6.434  -8.620   7.258  0.00  0.00    +0.046 A 
ATOM     37  C   UNL     1      -5.485  -7.828   7.876  0.00  0.00    +0.004 A 
ATOM     38  C   UNL     1      -4.369  -7.409   7.175  0.00  0.00    +0.001 A 
ATOM     39  C   UNL     1      -4.200  -7.781   5.854  0.00  0.00    +0.009 A 
ATOM     40  C   UNL     1      -5.143  -8.578   5.234  0.00  0.00    +0.020 A 
BRANCH  35  42
ATOM     41  C   UNL     1      -8.328 -10.166   6.105  0.00  0.00    +0.277 C 
ATOM     42  O   UNL     1      -7.197  -9.774   5.323  0.00  0.00    -0.495 OA
ENDBRANCH  35  42
ENDBRANCH  34  40
ENDBRANCH  33  34
ENDBRANCH  32  33
ENDBRANCH  29  32
ENDBRANCH  28  29
ENDBRANCH   1  28
TORSDOF 17
