REMARK  Name = ZINC63557246
REMARK  9 active torsions:
REMARK  status: ('A' for Active; 'I' for Inactive)
REMARK    1  A    between atoms: C_1  and  C_2
REMARK    2  A    between atoms: C_2  and  O_3
REMARK    3  A    between atoms: O_3  and  C_4
REMARK    4  A    between atoms: C_4  and  C_6
REMARK    5  A    between atoms: C_9  and  N_13
REMARK    6  A    between atoms: C_14  and  C_16
REMARK    7  A    between atoms: N_21  and  C_23
REMARK    8  A    between atoms: C_23  and  C_24
REMARK    9  A    between atoms: C_24  and  C_25
REMARK                            x       y       z     vdW  Elec       q    Type
REMARK                         _______ _______ _______ _____ _____    ______ ____
ROOT
ATOM      1  C   UNL     1      -0.266  -9.137   0.618  0.00  0.00    +0.101 C 
ATOM      2  C   UNL     1      -1.213  -9.432   1.804  0.00  0.00    +0.110 C 
ATOM      3  C   UNL     1      -1.529 -10.905   1.669  0.00  0.00    +0.216 C 
ATOM      4  O   UNL     1      -2.446 -11.473   2.224  0.00  0.00    -0.276 OA
ATOM      5  N   UNL     1      -0.645 -11.494   0.845  0.00  0.00    -0.300 N 
ATOM      6  C   UNL     1       0.344 -10.530   0.348  0.00  0.00    +0.121 C 
ENDROOT
BRANCH   1   8
ATOM      7  N   UNL     1       0.460  -6.889   1.351  0.00  0.00    -0.288 N 
ATOM      8  C   UNL     1       0.801  -8.149   1.013  0.00  0.00    +0.220 C 
ATOM      9  O   UNL     1       1.965  -8.486   1.026  0.00  0.00    -0.275 OA
ATOM     10  H   UNL     1      -0.472  -6.619   1.341  0.00  0.00    +0.151 HD
BRANCH   7  14
ATOM     11  C   UNL     1       1.472  -2.352   2.425  0.00  0.00    +0.110 C 
ATOM     12  C   UNL     1       1.493  -3.687   2.624  0.00  0.00    +0.023 C 
ATOM     13  N   UNL     1       0.976  -4.543   1.719  0.00  0.00    -0.320 N 
ATOM     14  C   UNL     1       1.497  -5.928   1.735  0.00  0.00    +0.219 C 
ATOM     15  S   UNL     1       1.940  -6.097   3.518  0.00  0.00    -0.114 S 
ATOM     16  C   UNL     1       2.106  -4.296   3.874  0.00  0.00    +0.123 C 
ATOM     17  H   UNL     1       0.294  -4.264   1.088  0.00  0.00    +0.148 HD
BRANCH  11  18
ATOM     18  C   UNL     1       1.026  -1.828   1.192  0.00  0.00    +0.333 C 
ATOM     19  O   UNL     1       0.763  -2.579   0.271  0.00  0.00    -0.246 OA
BRANCH  18  20
ATOM     20  O   UNL     1       0.892  -0.494   1.034  0.00  0.00    -0.462 OA
BRANCH  20  22
ATOM     21  C   UNL     1       0.348   1.493  -0.229  0.00  0.00    +0.048 C 
ATOM     22  C   UNL     1       0.437  -0.035  -0.240  0.00  0.00    +0.229 C 
ENDBRANCH  20  22
ENDBRANCH  18  20
ENDBRANCH  11  18
ENDBRANCH   7  14
ENDBRANCH   1   8
BRANCH   5  23
ATOM     23  C   UNL     1      -0.667 -12.915   0.489  0.00  0.00    +0.112 C 
BRANCH  23  24
ATOM     24  C   UNL     1      -1.526 -13.114  -0.761  0.00  0.00    +0.052 C 
BRANCH  24  25
ATOM     25  C   UNL     1      -1.549 -14.576  -1.128  0.00  0.00    -0.040 C 
ATOM     26  C   UNL     1      -2.488 -15.486  -0.784  0.00  0.00    +0.000 A 
ATOM     27  C   UNL     1      -3.722 -15.392   0.006  0.00  0.00    +0.030 A 
ATOM     28  C   UNL     1      -4.474 -16.503   0.183  0.00  0.00    +0.042 A 
ATOM     29  C   UNL     1      -4.104 -17.739  -0.368  0.00  0.00    +0.022 A 
ATOM     30  C   UNL     1      -2.985 -17.903  -1.104  0.00  0.00    +0.027 A 
ATOM     31  C   UNL     1      -2.120 -16.802  -1.354  0.00  0.00    +0.043 A 
ATOM     32  N   UNL     1      -0.997 -16.709  -2.024  0.00  0.00    -0.380 N 
ATOM     33  C   UNL     1      -0.529 -15.320  -1.961  0.00  0.00    +0.144 C 
ATOM     34 CL   UNL     1      -5.934 -16.396   1.115  0.00  0.00    -0.084 Cl
ATOM     35  H   UNL     1      -0.553 -17.435  -2.488  0.00  0.00    +0.160 HD
ENDBRANCH  24  25
ENDBRANCH  23  24
ENDBRANCH   5  23
TORSDOF 8
