REMARK  Name = ZINC22678683
REMARK  9 active torsions:
REMARK  status: ('A' for Active; 'I' for Inactive)
REMARK    1  A    between atoms: C_3  and  C_17
REMARK    2  A    between atoms: C_5  and  S_7
REMARK    3  A    between atoms: S_7  and  N_10
REMARK    4  A    between atoms: N_10  and  C_11
REMARK    5  A    between atoms: C_11  and  C_12
REMARK    6  A    between atoms: N_19  and  C_20
REMARK    7  A    between atoms: C_20  and  C_21
REMARK    8  A    between atoms: C_21  and  C_23
REMARK    9  A    between atoms: C_21  and  N_28
REMARK                            x       y       z     vdW  Elec       q    Type
REMARK                         _______ _______ _______ _____ _____    ______ ____
ROOT
ATOM      1  C   UNL     1      -2.638  -1.479  -5.365  0.00  0.00    +0.244 C 
ATOM      2  O   UNL     1      -1.902  -2.356  -5.774  0.00  0.00    -0.270 OA
ATOM      3  N   UNL     1      -3.884  -1.357  -5.864  0.00  0.00    -0.312 N 
ATOM      4  H   UNL     1      -4.549  -0.564  -5.494  0.00  0.00    +0.149 HD
ENDROOT
BRANCH   1   7
ATOM      5  C   UNL     1      -2.561   1.328  -2.871  0.00  0.00    +0.003 A 
ATOM      6  C   UNL     1      -3.008   0.461  -3.847  0.00  0.00    +0.013 A 
ATOM      7  C   UNL     1      -2.166  -0.547  -4.319  0.00  0.00    +0.039 A 
ATOM      8  C   UNL     1      -0.876  -0.670  -3.800  0.00  0.00    +0.041 A 
ATOM      9  C   UNL     1      -0.442   0.203  -2.825  0.00  0.00    +0.106 A 
ATOM     10  C   UNL     1      -1.284   1.197  -2.357  0.00  0.00    +0.028 A 
BRANCH   9  11
ATOM     11  S   UNL     1       1.186   0.049  -2.167  0.00  0.00    +0.059 S 
ATOM     12  O   UNL     1       1.581  -1.300  -2.376  0.00  0.00    -0.153 OA
ATOM     13  O   UNL     1       1.161   0.645  -0.878  0.00  0.00    -0.153 OA
BRANCH  11  14
ATOM     14  N   UNL     1       2.182   0.984  -3.103  0.00  0.00    -0.185 NA
ATOM     15  H   UNL     1       2.857   0.497  -3.822  0.00  0.00    +0.148 HD
BRANCH  14  16
ATOM     16  C   UNL     1       2.010   2.439  -3.128  0.00  0.00    +0.148 C 
BRANCH  16  17
ATOM     17  C   UNL     1       3.232   3.078  -3.736  0.00  0.00    +0.005 A 
ATOM     18  C   UNL     1       3.487   3.367  -5.036  0.00  0.00    +0.012 A 
ATOM     19  C   UNL     1       4.689   3.965  -5.366  0.00  0.00    +0.008 A 
ATOM     20  C   UNL     1       5.581   4.235  -4.382  0.00  0.00    +0.045 A 
ATOM     21  S   UNL     1       4.722   3.645  -2.933  0.00  0.00    -0.100 S 
ENDBRANCH  16  17
ENDBRANCH  14  16
ENDBRANCH  11  14
ENDBRANCH   9  11
ENDBRANCH   1   7
BRANCH   3  22
ATOM     22  C   UNL     1      -4.351  -2.282  -6.900  0.00  0.00    +0.097 C 
BRANCH  22  23
ATOM     23  C   UNL     1      -5.825  -2.005  -7.203  0.00  0.00    +0.016 C 
BRANCH  23  24
ATOM     24  N   UNL     1      -5.994  -0.589  -7.557  0.00  0.00    +0.387 N 
ATOM     25  C   UNL     1      -7.411  -0.265  -7.770  0.00  0.00    -0.078 C 
ATOM     26  C   UNL     1      -7.564   1.241  -7.992  0.00  0.00    -0.019 C 
ATOM     27  C   UNL     1      -6.736   1.659  -9.211  0.00  0.00    -0.004 C 
ATOM     28  C   UNL     1      -5.274   1.267  -8.984  0.00  0.00    -0.019 C 
ATOM     29  C   UNL     1      -5.187  -0.240  -8.733  0.00  0.00    -0.078 C 
ATOM     30  H   UNL     1      -5.636   0.018  -6.712  0.00  0.00    -0.081 HD
ENDBRANCH  23  24
BRANCH  23  31
ATOM     31  C   UNL     1      -6.272  -2.867  -8.356  0.00  0.00    +0.093 A 
ATOM     32  C   UNL     1      -7.099  -3.924  -8.273  0.00  0.00    +0.043 A 
ATOM     33  C   UNL     1      -7.247  -4.432  -9.584  0.00  0.00    +0.041 A 
ATOM     34  C   UNL     1      -6.495  -3.660 -10.388  0.00  0.00    +0.195 A 
ATOM     35  O   UNL     1      -5.907  -2.714  -9.639  0.00  0.00    -0.469 OA
ENDBRANCH  23  31
ENDBRANCH  22  23
ENDBRANCH   3  22
TORSDOF 9
