REMARK  Name = ZINC14693271
REMARK  9 active torsions:
REMARK  status: ('A' for Active; 'I' for Inactive)
REMARK    1  A    between atoms: C_1  and  O_2
REMARK    2  A    between atoms: O_2  and  C_3
REMARK    3  A    between atoms: C_5  and  C_10
REMARK    4  A    between atoms: C_8  and  O_9
REMARK    5  A    between atoms: C_12  and  C_35
REMARK    6  A    between atoms: C_18  and  O_33
REMARK    7  A    between atoms: C_22  and  C_26
REMARK    8  A    between atoms: C_29  and  O_32
REMARK    9  A    between atoms: C_35  and  O_36
REMARK                            x       y       z     vdW  Elec       q    Type
REMARK                         _______ _______ _______ _____ _____    ______ ____
ROOT
ATOM      1  C   UNL     1      -0.744   1.587   1.261  0.00  0.00    +0.246 C 
ATOM      2  C   UNL     1      -0.013   1.086   0.008  0.00  0.00    +0.244 C 
ATOM      3  O   UNL     1      -0.717   1.566  -1.143  0.00  0.00    -0.475 OA
ATOM      4  C   UNL     1      -1.085   2.878  -1.133  0.00  0.00    +0.206 A 
ATOM      5  C   UNL     1      -1.109   3.602   0.051  0.00  0.00    +0.170 A 
ATOM      6  C   UNL     1      -1.491   4.941   0.051  0.00  0.00    +0.095 A 
ATOM      7  C   UNL     1      -1.848   5.564  -1.129  0.00  0.00    +0.135 A 
ATOM      8  C   UNL     1      -1.824   4.841  -2.328  0.00  0.00    +0.109 A 
ATOM      9  C   UNL     1      -1.440   3.490  -2.332  0.00  0.00    +0.188 A 
ATOM     10  O   UNL     1      -1.416   2.789  -3.484  0.00  0.00    -0.451 OA
ATOM     11  C   UNL     1      -1.755   3.360  -4.645  0.00  0.00    +0.139 A 
ATOM     12  C   UNL     1      -2.142   4.658  -4.763  0.00  0.00    +0.098 A 
ATOM     13  C   UNL     1      -2.197   5.472  -3.606  0.00  0.00    +0.197 A 
ATOM     14  O   UNL     1      -2.538   6.642  -3.665  0.00  0.00    -0.287 OA
ATOM     15  O   UNL     1      -0.758   3.018   1.228  0.00  0.00    -0.477 OA
ENDROOT
BRANCH   1  18
ATOM     16  C   UNL     1       0.238  -0.484   4.264  0.00  0.00    +0.162 A 
ATOM     17  C   UNL     1      -0.428  -0.044   3.132  0.00  0.00    +0.056 A 
ATOM     18  C   UNL     1      -0.020   1.113   2.495  0.00  0.00    -0.000 A 
ATOM     19  C   UNL     1       1.046   1.839   2.991  0.00  0.00    +0.011 A 
ATOM     20  C   UNL     1       1.712   1.409   4.124  0.00  0.00    +0.049 A 
ATOM     21  C   UNL     1       1.312   0.247   4.764  0.00  0.00    +0.158 A 
BRANCH  16  23
ATOM     22  C   UNL     1      -1.268  -2.324   4.320  0.00  0.00    +0.277 C 
ATOM     23  O   UNL     1      -0.159  -1.625   4.889  0.00  0.00    -0.491 OA
ENDBRANCH  16  23
BRANCH  21  24
ATOM     24  O   UNL     1       1.966  -0.178   5.878  0.00  0.00    -0.503 OA
ATOM     25  H   UNL     1       1.601   0.168   6.704  0.00  0.00    +0.292 HD
ENDBRANCH  21  24
ENDBRANCH   1  18
BRANCH  11  26
ATOM     26  C   UNL     1      -1.706   2.535  -5.867  0.00  0.00    +0.018 A 
ATOM     27  C   UNL     1      -2.057   3.089  -7.101  0.00  0.00    +0.015 A 
ATOM     28  C   UNL     1      -2.003   2.317  -8.240  0.00  0.00    +0.046 A 
ATOM     29  C   UNL     1      -1.613   0.986  -8.162  0.00  0.00    +0.117 A 
ATOM     30  C   UNL     1      -1.268   0.429  -6.936  0.00  0.00    +0.046 A 
ATOM     31  C   UNL     1      -1.313   1.196  -5.793  0.00  0.00    +0.015 A 
BRANCH  29  32
ATOM     32  O   UNL     1      -1.567   0.227  -9.287  0.00  0.00    -0.507 OA
ATOM     33  H   UNL     1      -2.394  -0.233  -9.485  0.00  0.00    +0.292 HD
ENDBRANCH  29  32
ENDBRANCH  11  26
BRANCH   7  34
ATOM     34  O   UNL     1      -2.220   6.870  -1.127  0.00  0.00    -0.506 OA
ATOM     35  H   UNL     1      -3.168   7.009  -0.998  0.00  0.00    +0.292 HD
ENDBRANCH   7  34
BRANCH   2  36
ATOM     36  C   UNL     1       1.420   1.622  -0.003  0.00  0.00    +0.204 C 
BRANCH  36  37
ATOM     37  O   UNL     1       2.127   1.071  -1.116  0.00  0.00    -0.391 OA
ATOM     38  H   UNL     1       3.044   1.367  -1.186  0.00  0.00    +0.210 HD
ENDBRANCH  36  37
ENDBRANCH   2  36
TORSDOF 8
