REMARK  Name = ZINC35913990
REMARK  9 active torsions:
REMARK  status: ('A' for Active; 'I' for Inactive)
REMARK    1  A    between atoms: C_1  and  N_2
REMARK    2  A    between atoms: N_2  and  C_3
REMARK    3  A    between atoms: N_2  and  C_25
REMARK    4  A    between atoms: C_3  and  C_4
REMARK    5  A    between atoms: C_4  and  C_5
REMARK    6  A    between atoms: C_5  and  C_7
REMARK    7  A    between atoms: C_5  and  O_16
REMARK    8  A    between atoms: O_16  and  C_17
REMARK    9  A    between atoms: C_25  and  C_26
REMARK                            x       y       z     vdW  Elec       q    Type
REMARK                         _______ _______ _______ _____ _____    ______ ____
ROOT
ATOM      1  C   UNL     1      -3.483  -0.656   1.334  0.00  0.00    +0.202 C 
ENDROOT
BRANCH   1   2
ATOM      2  C   UNL     1      -4.239  -0.611   2.637  0.00  0.00    -0.004 A 
ATOM      3  C   UNL     1      -5.015   0.491   2.946  0.00  0.00    +0.011 A 
ATOM      4  C   UNL     1      -5.711   0.537   4.140  0.00  0.00    +0.050 A 
ATOM      5  C   UNL     1      -5.632  -0.523   5.029  0.00  0.00    +0.166 A 
ATOM      6  C   UNL     1      -4.851  -1.633   4.717  0.00  0.00    +0.167 A 
ATOM      7  C   UNL     1      -4.161  -1.674   3.517  0.00  0.00    +0.056 A 
ATOM      8  O   UNL     1      -4.938  -2.529   5.743  0.00  0.00    -0.453 OA
ATOM      9  C   UNL     1      -5.450  -1.784   6.863  0.00  0.00    +0.466 C 
ATOM     10  O   UNL     1      -6.208  -0.724   6.250  0.00  0.00    -0.453 OA
ENDBRANCH   1   2
BRANCH   1  11
ATOM     11  C   UNL     1      -2.138   0.054   1.500  0.00  0.00    +0.031 C 
BRANCH  11  12
ATOM     12  C   UNL     1      -1.318  -0.100   0.217  0.00  0.00    -0.075 C 
BRANCH  12  14
ATOM     13  C   UNL     1      -0.250   2.026   0.525  0.00  0.00    -0.096 C 
ATOM     14  N   UNL     1      -0.027   0.582   0.377  0.00  0.00    +0.381 N 
ATOM     15  H   UNL     1       0.441   0.228   1.198  0.00  0.00    -0.082 HD
BRANCH  14  16
ATOM     16  C   UNL     1       0.807   0.334  -0.806  0.00  0.00    -0.043 C 
BRANCH  16  17
ATOM     17  C   UNL     1       2.175   0.929  -0.591  0.00  0.00    -0.064 A 
ATOM     18  C   UNL     1       2.428   2.236  -0.965  0.00  0.00    +0.002 A 
ATOM     19  C   UNL     1       3.682   2.781  -0.767  0.00  0.00    +0.000 A 
ATOM     20  C   UNL     1       4.684   2.021  -0.194  0.00  0.00    +0.000 A 
ATOM     21  C   UNL     1       4.431   0.715   0.181  0.00  0.00    +0.000 A 
ATOM     22  C   UNL     1       3.176   0.170  -0.013  0.00  0.00    +0.002 A 
ENDBRANCH  16  17
ENDBRANCH  14  16
ENDBRANCH  12  14
ENDBRANCH  11  12
ENDBRANCH   1  11
BRANCH   1  23
ATOM     23  O   UNL     1      -4.245  -0.001   0.318  0.00  0.00    -0.484 OA
BRANCH  23  24
ATOM     24  C   UNL     1      -5.193  -0.740  -0.316  0.00  0.00    +0.123 A 
ATOM     25  C   UNL     1      -5.888  -0.204  -1.390  0.00  0.00    +0.048 A 
ATOM     26  C   UNL     1      -6.852  -0.956  -2.034  0.00  0.00    +0.043 A 
ATOM     27  C   UNL     1      -7.124  -2.245  -1.608  0.00  0.00    +0.142 A 
ATOM     28  C   UNL     1      -6.431  -2.782  -0.535  0.00  0.00    +0.080 A 
ATOM     29  C   UNL     1      -5.463  -2.033   0.107  0.00  0.00    +0.068 A 
ATOM     30 CL   UNL     1      -6.774  -4.398  -0.002  0.00  0.00    -0.080 Cl
ATOM     31  F   UNL     1      -8.066  -2.979  -2.239  0.00  0.00    -0.204 F 
ENDBRANCH  23  24
ENDBRANCH   1  23
TORSDOF 8
