REMARK  Name = ZINC57968813
REMARK  7 active torsions:
REMARK  status: ('A' for Active; 'I' for Inactive)
REMARK    1  A    between atoms: C_1  and  C_2
REMARK    2  A    between atoms: C_7  and  C_8
REMARK    3  A    between atoms: C_10  and  C_20
REMARK    4  A    between atoms: N_15  and  C_16
REMARK    5  A    between atoms: C_16  and  C_17
REMARK    6  A    between atoms: C_16  and  C_18
REMARK    7  A    between atoms: C_16  and  C_19
REMARK                            x       y       z     vdW  Elec       q    Type
REMARK                         _______ _______ _______ _____ _____    ______ ____
ROOT
ATOM      1  C   UNL     1       0.025   0.045   2.504  0.00  0.00    +0.121 C 
ATOM      2  C   UNL     1       1.460   0.491   2.863  0.00  0.00    +0.136 C 
ATOM      3  C   UNL     1       1.939  -0.677   3.756  0.00  0.00    +0.113 C 
ATOM      4  C   UNL     1       0.662  -1.268   4.311  0.00  0.00    +0.217 C 
ATOM      5  O   UNL     1       0.599  -2.015   5.264  0.00  0.00    -0.276 OA
ATOM      6  N   UNL     1      -0.396  -0.842   3.595  0.00  0.00    -0.289 N 
ENDROOT
BRANCH   1  13
ATOM      7  C   UNL     1      -0.018   1.503   0.010  0.00  0.00    +0.044 C 
ATOM      8  C   UNL     1       0.002  -0.004   0.002  0.00  0.00    -0.045 A 
ATOM      9  C   UNL     1       0.006  -0.689  -1.199  0.00  0.00    +0.004 A 
ATOM     10  C   UNL     1       0.025  -2.071  -1.207  0.00  0.00    +0.000 A 
ATOM     11  C   UNL     1       0.040  -2.768  -0.013  0.00  0.00    +0.000 A 
ATOM     12  C   UNL     1       0.037  -2.084   1.188  0.00  0.00    +0.006 A 
ATOM     13  C   UNL     1       0.023  -0.702   1.195  0.00  0.00    -0.023 A 
ENDBRANCH   1  13
BRANCH   6  14
ATOM     14  C   UNL     1      -1.786  -1.214   3.869  0.00  0.00    +0.030 C 
ATOM     15  C   UNL     1      -2.372  -1.928   2.648  0.00  0.00    +0.031 C 
ATOM     16  C   UNL     1      -1.835  -2.149   5.079  0.00  0.00    +0.031 C 
ATOM     17  C   UNL     1      -2.603   0.045   4.164  0.00  0.00    +0.031 C 
ENDBRANCH   6  14
BRANCH   2  18
ATOM     18  C   UNL     1       2.313   0.610   1.626  0.00  0.00    +0.362 C 
ATOM     19  O   UNL     1       3.102   1.533   1.516  0.00  0.00    -0.246 OA
ATOM     20  O   UNL     1       2.214  -0.217   0.736  0.00  0.00    -0.246 OA
ENDBRANCH   2  18
TORSDOF 3
