REMARK  Name = ZINC35427124
REMARK  7 active torsions:
REMARK  status: ('A' for Active; 'I' for Inactive)
REMARK    1  A    between atoms: C_1  and  C_2
REMARK    2  A    between atoms: C_2  and  C_3
REMARK    3  A    between atoms: C_6  and  N_9
REMARK    4  A    between atoms: C_24  and  C_26
REMARK    5  A    between atoms: C_29  and  O_32
REMARK    6  A    between atoms: O_32  and  C_33
REMARK    7  A    between atoms: N_35  and  C_38
REMARK                            x       y       z     vdW  Elec       q    Type
REMARK                         _______ _______ _______ _____ _____    ______ ____
ROOT
ATOM      1  N   UNL     1      -5.303  -1.964   0.021  0.00  0.00    -0.269 N 
ATOM      2  C   UNL     1      -5.988  -2.101  -1.131  0.00  0.00    +0.308 C 
ATOM      3  O   UNL     1      -5.439  -1.889  -2.195  0.00  0.00    -0.252 OA
ATOM      4  N   UNL     1      -7.283  -2.474  -1.105  0.00  0.00    -0.268 N 
ATOM      5  C   UNL     1      -7.986  -2.734   0.164  0.00  0.00    +0.148 C 
ATOM      6  C   UNL     1      -8.917  -3.924   0.085  0.00  0.00    +0.004 A 
ATOM      7  C   UNL     1      -8.677  -5.135   0.759  0.00  0.00    -0.034 A 
ATOM      8  C   UNL     1      -9.596  -6.130   0.625  0.00  0.00    -0.021 A 
ATOM      9  S   UNL     1     -10.828  -5.427  -0.440  0.00  0.00    -0.077 S 
ATOM     10  C   UNL     1     -10.050  -3.856  -0.666  0.00  0.00    +0.090 A 
ATOM     11  N   UNL     1     -10.414  -2.754  -1.429  0.00  0.00    -0.312 N 
ATOM     12  C   UNL     1     -11.595  -2.107  -1.563  0.00  0.00    +0.092 A 
ATOM     13  C   UNL     1     -11.400  -1.044  -2.377  0.00  0.00    +0.020 A 
ATOM     14  C   UNL     1     -10.045  -1.055  -2.773  0.00  0.00    +0.025 A 
ATOM     15  C   UNL     1      -9.468  -2.122  -2.201  0.00  0.00    +0.049 A 
ATOM     16  C   UNL     1      -8.071  -2.636  -2.350  0.00  0.00    +0.155 C 
ATOM     17  C   UNL     1      -9.544  -7.488   1.243  0.00  0.00    -0.036 C 
ATOM     18  N   UNL     1      -8.169  -7.725   1.723  0.00  0.00    +0.381 N 
ATOM     19  C   UNL     1      -7.728  -6.579   2.529  0.00  0.00    -0.074 C 
ATOM     20  C   UNL     1      -7.445  -5.373   1.629  0.00  0.00    +0.018 C 
ATOM     21  C   UNL     1      -8.141  -8.942   2.546  0.00  0.00    -0.096 C 
ATOM     22  H   UNL     1      -5.722  -2.194   0.865  0.00  0.00    +0.156 HD
ATOM     23  H   UNL     1      -7.552  -7.838   0.933  0.00  0.00    -0.082 HD
ENDROOT
BRANCH   1  27
ATOM     24  C   UNL     1      -1.385  -0.548  -0.043  0.00  0.00    -0.048 A 
ATOM     25  C   UNL     1      -1.845  -1.352  -1.069  0.00  0.00    +0.005 A 
ATOM     26  C   UNL     1      -3.143  -1.823  -1.051  0.00  0.00    +0.023 A 
ATOM     27  C   UNL     1      -3.987  -1.488  -0.000  0.00  0.00    +0.035 A 
ATOM     28  C   UNL     1      -3.522  -0.680   1.029  0.00  0.00    +0.023 A 
ATOM     29  C   UNL     1      -2.221  -0.217   1.008  0.00  0.00    +0.005 A 
BRANCH  24  31
ATOM     30  C   UNL     1       0.947  -1.035   0.643  0.00  0.00    +0.009 C 
ATOM     31  C   UNL     1       0.032  -0.035  -0.066  0.00  0.00    +0.032 C 
ENDBRANCH  24  31
ENDBRANCH   1  27
BRANCH  16  32
ATOM     32  C   UNL     1      -8.127  -4.099  -2.708  0.00  0.00    -0.021 A 
ATOM     33  C   UNL     1      -9.216  -4.599  -3.399  0.00  0.00    +0.009 A 
ATOM     34  C   UNL     1      -9.270  -5.940  -3.728  0.00  0.00    +0.046 A 
ATOM     35  C   UNL     1      -8.231  -6.785  -3.366  0.00  0.00    +0.120 A 
ATOM     36  C   UNL     1      -7.139  -6.280  -2.673  0.00  0.00    +0.046 A 
ATOM     37  C   UNL     1      -7.088  -4.938  -2.351  0.00  0.00    +0.009 A 
BRANCH  35  38
ATOM     38  O   UNL     1      -8.282  -8.104  -3.688  0.00  0.00    -0.495 OA
ATOM     39  C   UNL     1      -7.177  -8.914  -3.283  0.00  0.00    +0.277 C 
ENDBRANCH  35  38
ENDBRANCH  16  32
TORSDOF 4
