REMARK  Name = ZINC63608101
REMARK  11 active torsions:
REMARK  status: ('A' for Active; 'I' for Inactive)
REMARK    1  A    between atoms: C_1  and  C_2
REMARK    2  A    between atoms: C_2  and  C_3
REMARK    3  A    between atoms: C_2  and  C_4
REMARK    4  A    between atoms: C_4  and  N_5
REMARK    5  A    between atoms: N_5  and  C_6
REMARK    6  A    between atoms: N_5  and  C_21
REMARK    7  A    between atoms: C_6  and  C_7
REMARK    8  A    between atoms: N_9  and  C_10
REMARK    9  A    between atoms: C_15  and  S_16
REMARK   10  A    between atoms: S_16  and  C_17
REMARK   11  A    between atoms: C_17  and  C_18
REMARK                            x       y       z     vdW  Elec       q    Type
REMARK                         _______ _______ _______ _____ _____    ______ ____
ROOT
ATOM      1  C   UNL     1      -2.050  -0.720   1.504  0.00  0.00    +0.201 C 
ATOM      2  O   UNL     1      -1.764   0.104   0.660  0.00  0.00    -0.278 OA
ATOM      3  N   UNL     1      -3.274  -1.283   1.508  0.00  0.00    -0.286 N 
ATOM      4  H   UNL     1      -3.515  -1.914   2.204  0.00  0.00    +0.155 HD
ENDROOT
BRANCH   3   5
ATOM      5  C   UNL     1      -4.199  -0.956   0.507  0.00  0.00    +0.047 A 
ATOM      6  C   UNL     1      -4.135   0.277  -0.123  0.00  0.00    +0.024 A 
ATOM      7  C   UNL     1      -5.048   0.598  -1.110  0.00  0.00    +0.002 A 
ATOM      8  C   UNL     1      -6.029  -0.308  -1.472  0.00  0.00    +0.001 A 
ATOM      9  C   UNL     1      -6.101  -1.540  -0.849  0.00  0.00    +0.016 A 
ATOM     10  C   UNL     1      -5.184  -1.872   0.139  0.00  0.00    +0.030 A 
BRANCH  10  11
ATOM     11  S   UNL     1      -5.270  -3.444   0.930  0.00  0.00    -0.114 S 
BRANCH  11  12
ATOM     12  C   UNL     1      -6.678  -4.262   0.132  0.00  0.00    +0.169 C 
BRANCH  12  13
ATOM     13  C   UNL     1      -6.864  -5.635   0.724  0.00  0.00    +0.221 C 
ATOM     14  O   UNL     1      -6.120  -6.024   1.599  0.00  0.00    -0.275 OA
ATOM     15  N   UNL     1      -7.858  -6.431   0.282  0.00  0.00    -0.329 N 
ATOM     16  H   UNL     1      -8.453  -6.120  -0.418  0.00  0.00    +0.145 HD
ATOM     17  H   UNL     1      -7.978  -7.315   0.663  0.00  0.00    +0.145 HD
ENDBRANCH  12  13
ENDBRANCH  11  12
ENDBRANCH  10  11
ENDBRANCH   3   5
BRANCH   1  18
ATOM     18  C   UNL     1      -1.035  -1.114   2.546  0.00  0.00    +0.019 C 
BRANCH  18  19
ATOM     19  N   UNL     1       0.265  -0.516   2.215  0.00  0.00    +0.387 N 
ATOM     20  H   UNL     1       0.125   0.420   1.864  0.00  0.00    -0.081 HD
BRANCH  19  21
ATOM     21  C   UNL     1       1.102  -0.466   3.421  0.00  0.00    -0.068 C 
ATOM     22  C   UNL     1       0.407   0.381   4.489  0.00  0.00    -0.015 C 
ATOM     23  C   UNL     1       1.279   0.433   5.746  0.00  0.00    -0.002 C 
ATOM     24  C   UNL     1       2.633   1.057   5.401  0.00  0.00    -0.000 C 
ATOM     25  C   UNL     1       3.328   0.210   4.333  0.00  0.00    -0.002 C 
ATOM     26  C   UNL     1       2.456   0.158   3.077  0.00  0.00    -0.015 C 
ENDBRANCH  19  21
BRANCH  19  27
ATOM     27  C   UNL     1       0.932  -1.329   1.190  0.00  0.00    -0.075 C 
BRANCH  27  29
ATOM     28  C   UNL     1       0.400   0.293  -0.634  0.00  0.00    +0.005 C 
ATOM     29  C   UNL     1       0.217  -1.147  -0.150  0.00  0.00    -0.034 C 
ATOM     30  C   UNL     1       0.810  -2.110  -1.181  0.00  0.00    +0.005 C 
ENDBRANCH  27  29
ENDBRANCH  19  27
ENDBRANCH  18  19
ENDBRANCH   1  18
TORSDOF 9
