REMARK  Name = ZINC12628478
REMARK  1 active torsions:
REMARK  status: ('A' for Active; 'I' for Inactive)
REMARK    1  A    between atoms: C_4  and  C_7
REMARK                            x       y       z     vdW  Elec       q    Type
REMARK                         _______ _______ _______ _____ _____    ______ ____
ROOT
ATOM      1  C   UNL     1       3.696  -0.686  -0.037  0.00  0.00    +0.158 A 
ATOM      2  N   UNL     1       4.892  -0.131  -0.046  0.00  0.00    -0.193 NA
ATOM      3  C   UNL     1       5.828  -1.081  -0.060  0.00  0.00    +0.251 A 
ATOM      4  N   UNL     1       5.245  -2.257  -0.062  0.00  0.00    -0.135 NA
ATOM      5  N   UNL     1       3.860  -2.028  -0.041  0.00  0.00    -0.257 N 
ATOM      6  N   UNL     1       7.211  -0.859  -0.073  0.00  0.00    -0.168 N 
ATOM      7  C   UNL     1       7.786   0.357  -0.066  0.00  0.00    +0.262 C 
ATOM      8  O   UNL     1       7.198   1.419  -0.048  0.00  0.00    -0.269 OA
ATOM      9  C   UNL     1       9.252   0.183  -0.082  0.00  0.00    +0.071 A 
ATOM     10  C   UNL     1       9.476  -1.210  -0.100  0.00  0.00    +0.071 A 
ATOM     11  C   UNL     1      10.773  -1.701  -0.118  0.00  0.00    +0.074 A 
ATOM     12  C   UNL     1      11.844  -0.816  -0.120  0.00  0.00    +0.080 A 
ATOM     13  C   UNL     1      11.625   0.550  -0.103  0.00  0.00    +0.080 A 
ATOM     14  C   UNL     1      10.331   1.055  -0.084  0.00  0.00    +0.074 A 
ATOM     15 CL   UNL     1      10.064   2.770  -0.062  0.00  0.00    -0.081 Cl
ATOM     16 CL   UNL     1      12.976   1.640  -0.104  0.00  0.00    -0.080 Cl
ATOM     17 CL   UNL     1      13.468  -1.428  -0.142  0.00  0.00    -0.080 Cl
ATOM     18 CL   UNL     1      11.056  -3.413  -0.139  0.00  0.00    -0.081 Cl
ATOM     19  C   UNL     1       8.138  -1.834  -0.087  0.00  0.00    +0.262 C 
ATOM     20  O   UNL     1       7.912  -3.027  -0.092  0.00  0.00    -0.269 OA
ATOM     21  H   UNL     1       3.160  -2.699  -0.033  0.00  0.00    +0.191 HD
ENDROOT
BRANCH   1  25
ATOM     22  C   UNL     1      -0.017   1.379   0.010  0.00  0.00    +0.000 A 
ATOM     23  C   UNL     1       1.168   2.093   0.002  0.00  0.00    +0.001 A 
ATOM     24  C   UNL     1       2.377   1.428  -0.013  0.00  0.00    +0.011 A 
ATOM     25  C   UNL     1       2.403   0.033  -0.021  0.00  0.00    +0.019 A 
ATOM     26  C   UNL     1       1.205  -0.680  -0.013  0.00  0.00    +0.011 A 
ATOM     27  C   UNL     1       0.002  -0.004   0.002  0.00  0.00    +0.001 A 
ENDBRANCH   1  25
TORSDOF 1
