REMARK  Name = ZINC16712255
REMARK  9 active torsions:
REMARK  status: ('A' for Active; 'I' for Inactive)
REMARK    1  A    between atoms: C_1  and  C_2
REMARK    2  A    between atoms: C_5  and  N_8
REMARK    3  A    between atoms: C_9  and  C_31
REMARK    4  A    between atoms: C_12  and  S_13
REMARK    5  A    between atoms: S_13  and  C_14
REMARK    6  A    between atoms: C_14  and  C_15
REMARK    7  A    between atoms: N_17  and  N_18
REMARK    8  A    between atoms: C_19  and  C_20
REMARK    9  A    between atoms: C_19  and  C_21
REMARK                            x       y       z     vdW  Elec       q    Type
REMARK                         _______ _______ _______ _____ _____    ______ ____
ROOT
ATOM      1  S   UNL     1      -1.448   2.337  -0.014  0.00  0.00    -0.076 S 
ENDROOT
BRANCH   1   6
ATOM      2  N   UNL     1       1.284   1.734  -0.043  0.00  0.00    -0.270 N 
ATOM      3  C   UNL     1       2.047   0.586  -0.050  0.00  0.00    +0.169 A 
ATOM      4  N   UNL     1       1.214  -0.430  -0.036  0.00  0.00    -0.128 NA
ATOM      5  N   UNL     1       0.002  -0.004  -0.021  0.00  0.00    -0.122 NA
ATOM      6  C   UNL     1      -0.016   1.311  -0.024  0.00  0.00    +0.197 A 
BRANCH   2  11
ATOM      7  C   UNL     1       3.150   7.093  -0.083  0.00  0.00    +0.044 C 
ATOM      8  C   UNL     1       2.655   5.670  -0.072  0.00  0.00    -0.050 A 
ATOM      9  C   UNL     1       1.965   5.188   1.025  0.00  0.00    +0.005 A 
ATOM     10  C   UNL     1       1.510   3.884   1.038  0.00  0.00    +0.026 A 
ATOM     11  C   UNL     1       1.745   3.057  -0.053  0.00  0.00    +0.051 A 
ATOM     12  C   UNL     1       2.443   3.543  -1.150  0.00  0.00    +0.026 A 
ATOM     13  C   UNL     1       2.891   4.849  -1.159  0.00  0.00    +0.005 A 
ENDBRANCH   2  11
BRANCH   3  14
ATOM     14  C   UNL     1       3.522   0.511  -0.070  0.00  0.00    +0.022 A 
ATOM     15  C   UNL     1       4.303   1.637   0.221  0.00  0.00    +0.031 A 
ATOM     16  C   UNL     1       5.677   1.521   0.197  0.00  0.00    +0.111 A 
ATOM     17  N   UNL     1       6.255   0.374  -0.106  0.00  0.00    -0.263 NA
ATOM     18  C   UNL     1       5.557  -0.709  -0.392  0.00  0.00    +0.111 A 
ATOM     19  C   UNL     1       4.179  -0.684  -0.386  0.00  0.00    +0.031 A 
ENDBRANCH   3  14
ENDBRANCH   1   6
BRANCH   1  20
ATOM     20  C   UNL     1      -2.742   1.071   0.002  0.00  0.00    +0.174 C 
BRANCH  20  21
ATOM     21  C   UNL     1      -4.095   1.735   0.012  0.00  0.00    +0.242 C 
ATOM     22  O   UNL     1      -4.176   2.946   0.009  0.00  0.00    -0.273 OA
ATOM     23  N   UNL     1      -5.214   0.984   0.024  0.00  0.00    -0.206 N 
ATOM     24  H   UNL     1      -5.149   0.017   0.027  0.00  0.00    +0.177 HD
BRANCH  23  25
ATOM     25  N   UNL     1      -6.471   1.602   0.034  0.00  0.00    -0.185 NA
ATOM     26  C   UNL     1      -7.550   0.878   0.046  0.00  0.00    +0.064 C 
ATOM     27  C   UNL     1      -7.449  -0.626   0.050  0.00  0.00    +0.068 C 
BRANCH  26  28
ATOM     28  C   UNL     1      -8.871   1.526   0.056  0.00  0.00    +0.005 A 
ATOM     29  C   UNL     1     -10.033   0.771  -0.046  0.00  0.00    +0.010 A 
ATOM     30  C   UNL     1     -11.277   1.385  -0.035  0.00  0.00    +0.001 A 
ATOM     31  C   UNL     1     -11.411   2.735   0.073  0.00  0.00    +0.008 A 
ATOM     32  C   UNL     1     -10.279   3.561   0.181  0.00  0.00    -0.017 A 
ATOM     33  C   UNL     1      -8.989   2.978   0.180  0.00  0.00    -0.009 A 
ATOM     34  C   UNL     1      -7.859   3.797   0.282  0.00  0.00    +0.009 A 
ATOM     35  C   UNL     1      -8.013   5.147   0.391  0.00  0.00    +0.001 A 
ATOM     36  C   UNL     1      -9.281   5.724   0.396  0.00  0.00    +0.001 A 
ATOM     37  C   UNL     1     -10.401   4.957   0.294  0.00  0.00    +0.008 A 
ENDBRANCH  26  28
ENDBRANCH  23  25
ENDBRANCH  20  21
ENDBRANCH   1  20
TORSDOF 7
