REMARK  Name = ZINC39658772
REMARK  7 active torsions:
REMARK  status: ('A' for Active; 'I' for Inactive)
REMARK    1  A    between atoms: C_4  and  C_7
REMARK    2  A    between atoms: C_7  and  S_8
REMARK    3  A    between atoms: S_8  and  C_9
REMARK    4  A    between atoms: C_9  and  C_10
REMARK    5  A    between atoms: C_10  and  N_11
REMARK    6  A    between atoms: C_12  and  C_14
REMARK    7  A    between atoms: C_25  and  C_27
REMARK                            x       y       z     vdW  Elec       q    Type
REMARK                         _______ _______ _______ _____ _____    ______ ____
ROOT
ATOM      1  C   UNL     1       9.681  -4.043   3.622  0.00  0.00    +0.100 C 
ATOM      2  C   UNL     1      10.675  -3.193   2.800  0.00  0.00    +0.121 C 
ATOM      3  N   UNL     1      11.486  -2.479   3.814  0.00  0.00    -0.296 N 
ATOM      4  C   UNL     1      11.702  -3.482   4.885  0.00  0.00    +0.115 C 
ATOM      5  C   UNL     1      10.360  -4.233   4.989  0.00  0.00    -0.004 C 
ATOM      6  C   UNL     1      10.605  -5.715   5.256  0.00  0.00    -0.010 C 
ATOM      7  C   UNL     1      11.227  -5.883   6.645  0.00  0.00    -0.082 C 
ATOM      8  N   UNL     1      10.324  -5.325   7.659  0.00  0.00    +0.379 N 
ATOM      9  C   UNL     1      10.168  -3.880   7.450  0.00  0.00    -0.082 C 
ATOM     10  C   UNL     1       9.501  -3.628   6.095  0.00  0.00    -0.010 C 
ATOM     11  C   UNL     1      11.928  -1.207   3.773  0.00  0.00    +0.252 C 
ATOM     12  O   UNL     1      12.588  -0.762   4.691  0.00  0.00    -0.270 OA
ATOM     13  H   UNL     1       9.422  -5.773   7.588  0.00  0.00    -0.086 HD
ATOM     14  H   UNL     1      10.707  -5.491   8.577  0.00  0.00    -0.086 HD
ENDROOT
BRANCH  11  15
ATOM     15  C   UNL     1      11.609  -0.353   2.612  0.00  0.00    +0.108 A 
ATOM     16  C   UNL     1      10.447   0.428   2.611  0.00  0.00    +0.138 A 
ATOM     17  C   UNL     1      10.156   1.225   1.520  0.00  0.00    +0.041 A 
ATOM     18  C   UNL     1      11.009   1.253   0.431  0.00  0.00    +0.026 A 
ATOM     19  C   UNL     1      12.159   0.484   0.424  0.00  0.00    +0.077 A 
ATOM     20  C   UNL     1      12.469  -0.315   1.510  0.00  0.00    +0.156 A 
ATOM     21  F   UNL     1      13.595  -1.061   1.503  0.00  0.00    -0.203 F 
ATOM     22 CL   UNL     1      13.220   0.528  -0.950  0.00  0.00    -0.081 Cl
ATOM     23  F   UNL     1       9.613   0.402   3.673  0.00  0.00    -0.205 F 
ENDBRANCH  11  15
BRANCH   1  25
ATOM     24  N   UNL     1       7.228  -4.005   3.933  0.00  0.00    -0.314 N 
ATOM     25  C   UNL     1       8.374  -3.312   3.783  0.00  0.00    +0.218 C 
ATOM     26  O   UNL     1       8.352  -2.099   3.778  0.00  0.00    -0.275 OA
ATOM     27  H   UNL     1       7.245  -4.975   3.938  0.00  0.00    +0.149 HD
BRANCH  24  28
ATOM     28  C   UNL     1       5.956  -3.294   4.090  0.00  0.00    +0.115 C 
BRANCH  28  29
ATOM     29  C   UNL     1       4.820  -4.307   4.241  0.00  0.00    +0.088 C 
BRANCH  29  30
ATOM     30  S   UNL     1       3.246  -3.427   4.434  0.00  0.00    -0.155 S 
BRANCH  30  31
ATOM     31  C   UNL     1       2.019  -4.753   4.599  0.00  0.00    +0.104 C 
BRANCH  31  35
ATOM     32  C   UNL     1      -1.867  -3.046   5.080  0.00  0.00    +0.000 A 
ATOM     33  C   UNL     1      -1.389  -3.329   3.815  0.00  0.00    +0.000 A 
ATOM     34  C   UNL     1      -0.131  -3.881   3.659  0.00  0.00    +0.004 A 
ATOM     35  C   UNL     1       0.648  -4.150   4.769  0.00  0.00    -0.038 A 
ATOM     36  C   UNL     1       0.170  -3.866   6.034  0.00  0.00    +0.004 A 
ATOM     37  C   UNL     1      -1.088  -3.316   6.190  0.00  0.00    +0.000 A 
ENDBRANCH  31  35
ENDBRANCH  30  31
ENDBRANCH  29  30
ENDBRANCH  28  29
ENDBRANCH  24  28
ENDBRANCH   1  25
TORSDOF 7
