REMARK  Name = ZINC52634510
REMARK  11 active torsions:
REMARK  status: ('A' for Active; 'I' for Inactive)
REMARK    1  A    between atoms: C_1  and  C_2
REMARK    2  A    between atoms: C_2  and  C_3
REMARK    3  A    between atoms: C_3  and  C_4
REMARK    4  A    between atoms: C_4  and  C_5
REMARK    5  A    between atoms: C_9  and  C_40
REMARK    6  A    between atoms: C_11  and  C_39
REMARK    7  A    between atoms: N_14  and  C_15
REMARK    8  A    between atoms: C_15  and  C_16
REMARK    9  A    between atoms: C_19  and  C_22
REMARK   10  A    between atoms: N_31  and  C_38
REMARK   11  A    between atoms: C_32  and  C_33
REMARK                            x       y       z     vdW  Elec       q    Type
REMARK                         _______ _______ _______ _____ _____    ______ ____
ROOT
ATOM      1  C   UNL     1      -0.809  -5.506  -0.399  0.00  0.00    -0.030 A 
ATOM      2  C   UNL     1       0.282  -4.713  -0.709  0.00  0.00    +0.006 A 
ATOM      3  C   UNL     1       1.540  -5.061  -0.262  0.00  0.00    +0.009 A 
ATOM      4  C   UNL     1       1.711  -6.214   0.505  0.00  0.00    -0.015 A 
ATOM      5  C   UNL     1       0.606  -7.009   0.815  0.00  0.00    +0.009 A 
ATOM      6  C   UNL     1      -0.647  -6.648   0.366  0.00  0.00    +0.006 A 
ENDROOT
BRANCH   4   7
ATOM      7  C   UNL     1       3.057  -6.593   0.987  0.00  0.00    +0.017 A 
ATOM      8  C   UNL     1       3.702  -7.824   0.507  0.00  0.00    -0.003 A 
ATOM      9  C   UNL     1       3.077  -8.670  -0.408  0.00  0.00    +0.009 A 
ATOM     10  C   UNL     1       3.723  -9.812  -0.828  0.00  0.00    +0.001 A 
ATOM     11  C   UNL     1       4.988 -10.128  -0.349  0.00  0.00    +0.001 A 
ATOM     12  C   UNL     1       5.623  -9.306   0.556  0.00  0.00    +0.014 A 
ATOM     13  C   UNL     1       4.988  -8.144   0.995  0.00  0.00    +0.047 A 
ATOM     14  C   UNL     1       5.623  -7.236   1.958  0.00  0.00    +0.259 A 
ATOM     15  O   UNL     1       6.732  -7.488   2.395  0.00  0.00    -0.267 OA
ATOM     16  N   UNL     1       4.978  -6.124   2.357  0.00  0.00    -0.307 N 
ATOM     17  C   UNL     1       3.728  -5.793   1.889  0.00  0.00    +0.101 A 
ATOM     18  C   UNL     1       5.632  -5.233   3.318  0.00  0.00    +0.152 C 
BRANCH  17  19
ATOM     19  C   UNL     1       3.087  -4.557   2.367  0.00  0.00    +0.224 A 
ATOM     20  N   UNL     1       1.880  -4.096   2.024  0.00  0.00    -0.104 NA
ATOM     21  N   UNL     1       1.693  -2.991   2.660  0.00  0.00    -0.021 NA
ATOM     22  N   UNL     1       2.725  -2.736   3.385  0.00  0.00    -0.021 NA
ATOM     23  N   UNL     1       3.595  -3.675   3.235  0.00  0.00    -0.104 NA
ENDBRANCH  17  19
ENDBRANCH   4   7
BRANCH   1  24
ATOM     24  C   UNL     1      -2.180  -5.120  -0.890  0.00  0.00    +0.143 C 
BRANCH  24  33
ATOM     25  C   UNL     1      -3.518  -4.500   1.271  0.00  0.00    +0.160 C 
ATOM     26  N   UNL     1      -3.921  -3.216   1.858  0.00  0.00    -0.323 N 
ATOM     27  C   UNL     1      -3.443  -2.208   1.012  0.00  0.00    +0.070 A 
ATOM     28  C   UNL     1      -3.546  -0.824   1.098  0.00  0.00    -0.025 A 
ATOM     29  C   UNL     1      -2.967  -0.054   0.100  0.00  0.00    +0.026 A 
ATOM     30  C   UNL     1      -2.312  -0.681  -0.941  0.00  0.00    +0.015 A 
ATOM     31  N   UNL     1      -2.230  -1.996  -0.999  0.00  0.00    -0.346 N 
ATOM     32  C   UNL     1      -2.767  -2.774  -0.067  0.00  0.00    +0.122 A 
ATOM     33  N   UNL     1      -2.784  -4.167   0.044  0.00  0.00    -0.292 N 
ATOM     34  C   UNL     1      -1.681   0.150  -2.029  0.00  0.00    +0.063 C 
ATOM     35  C   UNL     1      -4.269  -0.175   2.250  0.00  0.00    +0.046 C 
ATOM     36  H   UNL     1      -4.424  -3.090   2.678  0.00  0.00    +0.148 HD
ATOM     37  H   UNL     1      -1.763  -2.406  -1.744  0.00  0.00    +0.167 HD
BRANCH  25  38
ATOM     38  C   UNL     1      -4.753  -5.338   0.935  0.00  0.00    +0.042 C 
BRANCH  38  39
ATOM     39  C   UNL     1      -5.436  -5.781   2.231  0.00  0.00    +0.003 C 
BRANCH  39  41
ATOM     40  C   UNL     1      -7.355  -7.062   3.190  0.00  0.00    +0.004 C 
ATOM     41  C   UNL     1      -6.672  -6.619   1.895  0.00  0.00    -0.003 C 
ENDBRANCH  39  41
ENDBRANCH  38  39
ENDBRANCH  25  38
ENDBRANCH  24  33
ENDBRANCH   1  24
TORSDOF 7
