REMARK  Name = ZINC62826794
REMARK  3 active torsions:
REMARK  status: ('A' for Active; 'I' for Inactive)
REMARK    1  A    between atoms: C_3  and  C_9
REMARK    2  A    between atoms: C_4  and  N_8
REMARK    3  A    between atoms: C_11  and  C_14
REMARK                            x       y       z     vdW  Elec       q    Type
REMARK                         _______ _______ _______ _____ _____    ______ ____
ROOT
ATOM      1  C   UNL     1       0.215   1.002  -0.941  0.00  0.00    +0.002 A 
ATOM      2  C   UNL     1       1.412   1.686  -0.963  0.00  0.00    +0.015 A 
ATOM      3  C   UNL     1       2.401   1.391  -0.022  0.00  0.00    +0.061 A 
ATOM      4  C   UNL     1       2.168   0.397   0.940  0.00  0.00    +0.051 A 
ATOM      5  C   UNL     1       0.956  -0.283   0.947  0.00  0.00    +0.039 A 
ATOM      6  C   UNL     1      -0.012   0.021   0.010  0.00  0.00    +0.017 A 
ATOM      7 BR   UNL     1       0.633  -1.625   2.239  0.00  0.00    -0.048 Br
ENDROOT
BRANCH   3   8
ATOM      8  C   UNL     1       3.684   2.120  -0.041  0.00  0.00    +0.261 A 
ATOM      9  N   UNL     1       3.828   3.421  -0.143  0.00  0.00    -0.184 NA
ATOM     10  C   UNL     1       5.133   3.740  -0.127  0.00  0.00    +0.238 A 
ATOM     11  N   UNL     1       5.837   2.636  -0.014  0.00  0.00    -0.052 NA
ATOM     12  O   UNL     1       4.906   1.566   0.049  0.00  0.00    -0.332 OA
BRANCH  10  13
ATOM     13  C   UNL     1       5.687   5.106  -0.222  0.00  0.00    +0.175 A 
ATOM     14  C   UNL     1       7.006   5.436  -0.212  0.00  0.00    +0.053 A 
ATOM     15  C   UNL     1       7.075   6.838  -0.323  0.00  0.00    +0.042 A 
ATOM     16  C   UNL     1       5.807   7.291  -0.394  0.00  0.00    +0.196 A 
ATOM     17  O   UNL     1       4.972   6.242  -0.339  0.00  0.00    -0.460 OA
ENDBRANCH  10  13
ENDBRANCH   3   8
BRANCH   4  18
ATOM     18  N   UNL     1       3.146   0.093   1.882  0.00  0.00    -0.357 N 
ATOM     19  H   UNL     1       3.951   0.631   1.936  0.00  0.00    +0.142 HD
ATOM     20  H   UNL     1       3.022  -0.657   2.485  0.00  0.00    +0.142 HD
ENDBRANCH   4  18
TORSDOF 3
