REMARK  Name = ZINC38704707
REMARK  13 active torsions:
REMARK  status: ('A' for Active; 'I' for Inactive)
REMARK    1  A    between atoms: C_1  and  C_2
REMARK    2  A    between atoms: C_5  and  C_8
REMARK    3  A    between atoms: C_11  and  C_31
REMARK    4  A    between atoms: N_18  and  C_19
REMARK    5  A    between atoms: C_19  and  C_20
REMARK    6  A    between atoms: C_20  and  C_21
REMARK    7  A    between atoms: C_24  and  O_29
REMARK    8  A    between atoms: C_25  and  O_27
REMARK    9  A    between atoms: O_27  and  C_28
REMARK   10  A    between atoms: O_29  and  C_30
REMARK   11  A    between atoms: C_32  and  C_39
REMARK   12  A    between atoms: C_34  and  C_38
REMARK   13  A    between atoms: C_36  and  O_37
REMARK                            x       y       z     vdW  Elec       q    Type
REMARK                         _______ _______ _______ _____ _____    ______ ____
ROOT
ATOM      1  C   UNL     1       0.138  -3.905   0.151  0.00  0.00    +0.141 C 
ATOM      2  C   UNL     1       1.482  -4.576   0.236  0.00  0.00    +0.035 A 
ATOM      3  C   UNL     1       2.746  -4.761  -0.335  0.00  0.00    +0.102 A 
ATOM      4  N   UNL     1       3.410  -5.596   0.440  0.00  0.00    -0.173 NA
ATOM      5  N   UNL     1       2.691  -5.956   1.443  0.00  0.00    -0.272 N 
ATOM      6  H   UNL     1       2.975  -6.565   2.143  0.00  0.00    +0.189 HD
ATOM      7  C   UNL     1       1.467  -5.353   1.378  0.00  0.00    +0.126 A 
ATOM      8  C   UNL     1       0.160  -5.203   2.028  0.00  0.00    +0.265 C 
ATOM      9  O   UNL     1      -0.172  -5.758   3.058  0.00  0.00    -0.268 OA
ATOM     10  N   UNL     1      -0.621  -4.363   1.322  0.00  0.00    -0.285 N 
ENDROOT
BRANCH   3  11
ATOM     11  C   UNL     1       3.247  -4.134  -1.583  0.00  0.00    +0.047 A 
ATOM     12  C   UNL     1       4.501  -3.529  -1.607  0.00  0.00    -0.037 A 
ATOM     13  C   UNL     1       4.962  -2.947  -2.770  0.00  0.00    +0.007 A 
ATOM     14  C   UNL     1       4.183  -2.962  -3.914  0.00  0.00    -0.047 A 
ATOM     15  C   UNL     1       2.937  -3.559  -3.900  0.00  0.00    +0.049 A 
ATOM     16  C   UNL     1       2.464  -4.153  -2.741  0.00  0.00    +0.127 A 
ATOM     17  C   UNL     1       4.695  -2.324  -5.179  0.00  0.00    +0.044 C 
ATOM     18  C   UNL     1       5.353  -3.510  -0.364  0.00  0.00    +0.044 C 
BRANCH  16  19
ATOM     19  O   UNL     1       1.242  -4.746  -2.728  0.00  0.00    -0.506 OA
ATOM     20  H   UNL     1       0.512  -4.140  -2.539  0.00  0.00    +0.292 HD
ENDBRANCH  16  19
ENDBRANCH   3  11
BRANCH   1  25
ATOM     21  C   UNL     1       0.765   1.837   0.311  0.00  0.00    +0.044 C 
ATOM     22  C   UNL     1       0.602   0.340   0.270  0.00  0.00    -0.050 A 
ATOM     23  C   UNL     1       0.227  -0.282  -0.907  0.00  0.00    +0.004 A 
ATOM     24  C   UNL     1       0.077  -1.656  -0.945  0.00  0.00    +0.006 A 
ATOM     25  C   UNL     1       0.302  -2.408   0.193  0.00  0.00    -0.022 A 
ATOM     26  C   UNL     1       0.678  -1.786   1.369  0.00  0.00    +0.006 A 
ATOM     27  C   UNL     1       0.832  -0.413   1.406  0.00  0.00    +0.004 A 
ENDBRANCH   1  25
BRANCH  10  28
ATOM     28  C   UNL     1      -1.992  -3.973   1.662  0.00  0.00    +0.114 C 
BRANCH  28  29
ATOM     29  C   UNL     1      -2.976  -4.950   1.016  0.00  0.00    +0.054 C 
BRANCH  29  30
ATOM     30  C   UNL     1      -4.386  -4.548   1.367  0.00  0.00    -0.042 A 
ATOM     31  C   UNL     1      -4.983  -5.052   2.507  0.00  0.00    +0.007 A 
ATOM     32  C   UNL     1      -6.276  -4.686   2.833  0.00  0.00    +0.049 A 
ATOM     33  C   UNL     1      -6.976  -3.813   2.016  0.00  0.00    +0.161 A 
ATOM     34  C   UNL     1      -6.374  -3.306   0.868  0.00  0.00    +0.162 A 
ATOM     35  C   UNL     1      -5.076  -3.672   0.550  0.00  0.00    +0.053 A 
BRANCH  34  36
ATOM     36  O   UNL     1      -7.057  -2.448   0.063  0.00  0.00    -0.491 OA
ATOM     37  C   UNL     1      -6.376  -1.968  -1.098  0.00  0.00    +0.277 C 
ENDBRANCH  34  36
BRANCH  33  38
ATOM     38  O   UNL     1      -8.248  -3.453   2.335  0.00  0.00    -0.491 OA
ATOM     39  C   UNL     1      -8.801  -4.013   3.527  0.00  0.00    +0.277 C 
ENDBRANCH  33  38
ENDBRANCH  29  30
ENDBRANCH  28  29
ENDBRANCH  10  28
TORSDOF 8
