REMARK  Name = ZINC13092874
REMARK  14 active torsions:
REMARK  status: ('A' for Active; 'I' for Inactive)
REMARK    1  A    between atoms: C_1  and  C_2
REMARK    2  A    between atoms: C_2  and  O_3
REMARK    3  A    between atoms: O_3  and  C_4
REMARK    4  A    between atoms: C_4  and  C_6
REMARK    5  A    between atoms: C_7  and  C_31
REMARK    6  A    between atoms: C_8  and  C_28
REMARK    7  A    between atoms: C_10  and  N_11
REMARK    8  A    between atoms: C_12  and  C_14
REMARK    9  A    between atoms: C_14  and  S_15
REMARK   10  A    between atoms: S_15  and  C_16
REMARK   11  A    between atoms: C_20  and  C_23
REMARK   12  A    between atoms: C_23  and  C_24
REMARK   13  A    between atoms: C_24  and  C_25
REMARK   14  A    between atoms: C_28  and  C_30
REMARK                            x       y       z     vdW  Elec       q    Type
REMARK                         _______ _______ _______ _____ _____    ______ ____
ROOT
ATOM      1  N   UNL     1      -1.280  -2.325  -2.490  0.00  0.00    -0.279 N 
ATOM      2  C   UNL     1      -1.323  -3.176  -3.535  0.00  0.00    +0.228 C 
ATOM      3  O   UNL     1      -1.367  -4.372  -3.340  0.00  0.00    -0.275 OA
ATOM      4  H   UNL     1      -1.240  -1.240  -2.667  0.00  0.00    +0.155 HD
ENDROOT
BRANCH   1   9
ATOM      5  C   UNL     1      -1.248  -2.099   0.003  0.00  0.00    +0.091 A 
ATOM      6  C   UNL     1      -1.259  -2.819   1.184  0.00  0.00    -0.017 A 
ATOM      7  C   UNL     1      -1.318  -4.198   1.088  0.00  0.00    +0.060 A 
ATOM      8  S   UNL     1      -1.345  -4.465  -0.675  0.00  0.00    -0.070 S 
ATOM      9  C   UNL     1      -1.287  -2.815  -1.200  0.00  0.00    +0.087 A 
ATOM     10  C   UNL     1      -1.213  -2.129   2.523  0.00  0.00    +0.046 C 
BRANCH   7  11
ATOM     11  C   UNL     1      -1.345  -5.154   2.124  0.00  0.00    +0.167 C 
ATOM     12  O   UNL     1      -1.319  -4.793   3.284  0.00  0.00    -0.292 OA
ATOM     13  C   UNL     1      -1.404  -6.623   1.793  0.00  0.00    +0.092 C 
ENDBRANCH   7  11
BRANCH   5  14
ATOM     14  C   UNL     1      -1.191  -0.632   0.010  0.00  0.00    +0.342 C 
ATOM     15  O   UNL     1      -2.219   0.016   0.023  0.00  0.00    -0.245 OA
BRANCH  14  16
ATOM     16  O   UNL     1       0.002  -0.004   0.002  0.00  0.00    -0.461 OA
BRANCH  16  18
ATOM     17  C   UNL     1       1.418   1.977  -0.001  0.00  0.00    +0.048 C 
ATOM     18  C   UNL     1      -0.018   1.448   0.010  0.00  0.00    +0.229 C 
ENDBRANCH  16  18
ENDBRANCH  14  16
ENDBRANCH   5  14
ENDBRANCH   1   9
BRANCH   2  19
ATOM     19  C   UNL     1      -1.316  -2.641  -4.943  0.00  0.00    +0.173 C 
BRANCH  19  20
ATOM     20  S   UNL     1      -1.380  -4.021  -6.113  0.00  0.00    -0.075 S 
BRANCH  20  21
ATOM     21  C   UNL     1      -1.360  -3.133  -7.635  0.00  0.00    +0.213 A 
ATOM     22  N   UNL     1      -1.398  -3.813  -8.816  0.00  0.00    -0.180 NA
ATOM     23  C   UNL     1      -1.381  -3.106  -9.969  0.00  0.00    +0.296 A 
ATOM     24  O   UNL     1      -1.414  -3.670 -11.050  0.00  0.00    -0.264 OA
ATOM     25  C   UNL     1      -1.327  -1.698  -9.887  0.00  0.00    +0.130 A 
ATOM     26  N   UNL     1      -1.293  -1.122  -8.708  0.00  0.00    -0.146 NA
ATOM     27  N   UNL     1      -1.315  -1.812  -7.624  0.00  0.00    -0.122 NA
BRANCH  25  28
ATOM     28  C   UNL     1      -1.307  -0.863 -11.142  0.00  0.00    +0.074 C 
BRANCH  28  29
ATOM     29  C   UNL     1      -1.246   0.619 -10.767  0.00  0.00    +0.131 C 
BRANCH  29  30
ATOM     30  C   UNL     1      -1.227   1.454 -12.022  0.00  0.00    +0.356 C 
ATOM     31  O   UNL     1      -1.258   0.918 -13.104  0.00  0.00    -0.246 OA
ATOM     32  O   UNL     1      -1.174   2.792 -11.937  0.00  0.00    -0.246 OA
ENDBRANCH  29  30
ENDBRANCH  28  29
ENDBRANCH  25  28
ENDBRANCH  20  21
ENDBRANCH  19  20
ENDBRANCH   2  19
TORSDOF 11
