REMARK  Name = ZINC31944300
REMARK  7 active torsions:
REMARK  status: ('A' for Active; 'I' for Inactive)
REMARK    1  A    between atoms: C_1  and  C_2
REMARK    2  A    between atoms: C_3  and  C_18
REMARK    3  A    between atoms: N_9  and  C_15
REMARK    4  A    between atoms: C_10  and  C_12
REMARK    5  A    between atoms: C_12  and  C_13
REMARK    6  A    between atoms: C_12  and  C_14
REMARK    7  A    between atoms: C_15  and  C_16
REMARK                            x       y       z     vdW  Elec       q    Type
REMARK                         _______ _______ _______ _____ _____    ______ ____
ROOT
ATOM      1  C   UNL     1       3.645   4.019  -0.011  0.00  0.00    +0.045 C 
ATOM      2  C   UNL     1       2.220   4.512   0.005  0.00  0.00    -0.026 A 
ATOM      3  C   UNL     1       1.957   5.828   0.014  0.00  0.00    -0.008 A 
ATOM      4  S   UNL     1       0.175   5.893   0.031  0.00  0.00    -0.073 S 
ATOM      5  C   UNL     1      -0.163   4.151   0.025  0.00  0.00    +0.116 A 
ATOM      6  C   UNL     1       1.118   3.569   0.010  0.00  0.00    +0.075 A 
ATOM      7  C   UNL     1       1.147   2.136   0.003  0.00  0.00    +0.263 A 
ATOM      8  O   UNL     1       2.209   1.538  -0.010  0.00  0.00    -0.267 OA
ATOM      9  N   UNL     1      -0.018   1.461   0.010  0.00  0.00    -0.282 N 
ATOM     10  C   UNL     1      -1.210   2.110   0.019  0.00  0.00    +0.117 A 
ATOM     11  N   UNL     1      -1.270   3.414   0.031  0.00  0.00    -0.226 NA
ATOM     12  C   UNL     1       2.933   6.976   0.012  0.00  0.00    +0.052 C 
ENDROOT
BRANCH  10  13
ATOM     13  C   UNL     1      -2.488   1.310   0.021  0.00  0.00    +0.049 C 
ATOM     14  C   UNL     1      -3.611   2.145   0.641  0.00  0.00    +0.015 C 
ATOM     15  C   UNL     1      -2.861   0.941  -1.416  0.00  0.00    +0.015 C 
ENDBRANCH  10  13
BRANCH   9  16
ATOM     16  C   UNL     1       0.002  -0.004   0.002  0.00  0.00    +0.245 C 
BRANCH  16  17
ATOM     17  C   UNL     1       0.022  -0.502   1.387  0.00  0.00    +0.084 C 
ATOM     18  N   UNL     1       0.037  -0.886   2.456  0.00  0.00    -0.195 NA
ENDBRANCH  16  17
ENDBRANCH   9  16
TORSDOF 3
