REMARK  Name = ZINC03595931
REMARK  4 active torsions:
REMARK  status: ('A' for Active; 'I' for Inactive)
REMARK    1  A    between atoms: C_1  and  C_2
REMARK    2  A    between atoms: N_11  and  C_15
REMARK    3  A    between atoms: C_15  and  C_16
REMARK    4  A    between atoms: N_18  and  C_19
REMARK                            x       y       z     vdW  Elec       q    Type
REMARK                         _______ _______ _______ _____ _____    ______ ____
ROOT
ATOM      1  C   UNL     1      -1.218   2.174  -2.473  0.00  0.00    +0.010 C 
ATOM      2  C   UNL     1      -2.066   1.902  -1.228  0.00  0.00    +0.018 C 
ATOM      3  C   UNL     1      -3.272   2.844  -1.218  0.00  0.00    +0.006 C 
ATOM      4  C   UNL     1      -4.108   2.585   0.038  0.00  0.00    +0.000 C 
ATOM      5  C   UNL     1      -3.257   2.848   1.282  0.00  0.00    +0.003 C 
ATOM      6  C   UNL     1      -2.050   1.906   1.281  0.00  0.00    +0.035 C 
ATOM      7  C   UNL     1      -1.223   2.136   0.021  0.00  0.00    +0.115 C 
ATOM      8  C   UNL     1      -0.011   1.233   0.015  0.00  0.00    +0.247 C 
ATOM      9  O   UNL     1       0.002   0.021   0.017  0.00  0.00    -0.273 OA
ATOM     10  N   UNL     1       1.054   2.061   0.002  0.00  0.00    -0.215 N 
ATOM     11  C   UNL     1       0.680   3.346   0.004  0.00  0.00    +0.310 C 
ATOM     12  O   UNL     1       1.461   4.277  -0.007  0.00  0.00    -0.252 OA
ATOM     13  N   UNL     1      -0.659   3.491   0.018  0.00  0.00    -0.285 N 
ATOM     14  H   UNL     1      -1.153   4.326   0.022  0.00  0.00    +0.151 HD
ENDROOT
BRANCH  10  15
ATOM     15  C   UNL     1       2.448   1.609  -0.013  0.00  0.00    +0.214 C 
BRANCH  15  16
ATOM     16  C   UNL     1       2.910   1.452  -1.439  0.00  0.00    +0.235 C 
ATOM     17  O   UNL     1       2.150   1.694  -2.353  0.00  0.00    -0.274 OA
ATOM     18  N   UNL     1       4.168   1.043  -1.699  0.00  0.00    -0.283 N 
ATOM     19  H   UNL     1       4.795   0.913  -0.971  0.00  0.00    +0.155 HD
BRANCH  18  20
ATOM     20  C   UNL     1       4.568   0.807  -3.020  0.00  0.00    +0.048 A 
ATOM     21  C   UNL     1       4.066   1.591  -4.050  0.00  0.00    +0.025 A 
ATOM     22  C   UNL     1       4.465   1.359  -5.351  0.00  0.00    +0.017 A 
ATOM     23  C   UNL     1       5.358   0.339  -5.631  0.00  0.00    +0.019 A 
ATOM     24  C   UNL     1       5.857  -0.447  -4.607  0.00  0.00    +0.032 A 
ATOM     25  C   UNL     1       5.464  -0.216  -3.303  0.00  0.00    +0.040 A 
ATOM     26 BR   UNL     1       6.145  -1.292  -1.905  0.00  0.00    -0.048 Br
ATOM     27 BR   UNL     1       5.898   0.020  -7.415  0.00  0.00    -0.050 Br
ENDBRANCH  18  20
ENDBRANCH  15  16
ENDBRANCH  10  15
TORSDOF 3
