REMARK  Name = ZINC14246243
REMARK  8 active torsions:
REMARK  status: ('A' for Active; 'I' for Inactive)
REMARK    1  A    between atoms: C_1  and  C_2
REMARK    2  A    between atoms: C_2  and  C_4
REMARK    3  A    between atoms: C_2  and  N_14
REMARK    4  A    between atoms: C_7  and  S_10
REMARK    5  A    between atoms: S_10  and  N_13
REMARK    6  A    between atoms: C_15  and  C_17
REMARK    7  A    between atoms: C_17  and  N_18
REMARK    8  A    between atoms: C_26  and  C_28
REMARK                            x       y       z     vdW  Elec       q    Type
REMARK                         _______ _______ _______ _____ _____    ______ ____
ROOT
ATOM      1  N   UNL     1       0.711  -0.489   1.189  0.00  0.00    -0.308 N 
ATOM      2  C   UNL     1       2.054  -0.600   1.174  0.00  0.00    +0.228 C 
ATOM      3  O   UNL     1       2.676  -0.297   0.177  0.00  0.00    -0.274 OA
ATOM      4  H   UNL     1       0.213  -0.731   1.986  0.00  0.00    +0.149 HD
ENDROOT
BRANCH   1   6
ATOM      5  C   UNL     1      -0.019   1.526   0.010  0.00  0.00    +0.033 C 
ATOM      6  C   UNL     1       0.002  -0.004   0.002  0.00  0.00    +0.100 C 
BRANCH   6   7
ATOM      7  C   UNL     1      -1.412  -0.526   0.013  0.00  0.00    -0.027 A 
ATOM      8  C   UNL     1      -2.123  -0.571   1.197  0.00  0.00    +0.007 A 
ATOM      9  C   UNL     1      -3.420  -1.049   1.207  0.00  0.00    +0.029 A 
ATOM     10  C   UNL     1      -4.006  -1.482   0.032  0.00  0.00    +0.105 A 
ATOM     11  C   UNL     1      -3.295  -1.436  -1.153  0.00  0.00    +0.029 A 
ATOM     12  C   UNL     1      -2.000  -0.954  -1.163  0.00  0.00    +0.007 A 
BRANCH  10  13
ATOM     13  S   UNL     1      -5.658  -2.093   0.045  0.00  0.00    +0.056 S 
ATOM     14  O   UNL     1      -5.785  -2.944  -1.086  0.00  0.00    -0.153 OA
ATOM     15  O   UNL     1      -5.915  -2.542   1.369  0.00  0.00    -0.153 OA
BRANCH  13  16
ATOM     16  N   UNL     1      -6.660  -0.801  -0.219  0.00  0.00    -0.204 NA
ATOM     17  H   UNL     1      -7.510  -0.930  -0.669  0.00  0.00    +0.144 HD
ATOM     18  H   UNL     1      -6.397   0.085   0.076  0.00  0.00    +0.144 HD
ENDBRANCH  13  16
ENDBRANCH  10  13
ENDBRANCH   6   7
ENDBRANCH   1   6
BRANCH   2  19
ATOM     19  C   UNL     1       2.783  -1.099   2.395  0.00  0.00    +0.181 C 
BRANCH  19  20
ATOM     20  N   UNL     1       4.226  -1.127   2.125  0.00  0.00    -0.283 NA
ATOM     21  C   UNL     1       4.747   0.229   1.902  0.00  0.00    +0.091 C 
ATOM     22  C   UNL     1       6.128   0.125   1.231  0.00  0.00    +0.058 C 
ATOM     23  C   UNL     1       6.920  -0.900   1.976  0.00  0.00    -0.004 A 
ATOM     24  C   UNL     1       6.439  -1.803   2.876  0.00  0.00    -0.016 A 
ATOM     25  C   UNL     1       7.371  -2.664   3.450  0.00  0.00    +0.013 A 
ATOM     26  C   UNL     1       8.677  -2.577   3.104  0.00  0.00    +0.046 A 
ATOM     27  S   UNL     1       8.656  -1.240   1.919  0.00  0.00    -0.101 S 
ATOM     28  C   UNL     1       4.948  -1.826   3.197  0.00  0.00    +0.118 C 
BRANCH  28  29
ATOM     29  C   UNL     1       4.471  -3.253   3.281  0.00  0.00    -0.026 A 
ATOM     30  C   UNL     1       4.218  -3.967   2.124  0.00  0.00    +0.005 A 
ATOM     31  C   UNL     1       3.780  -5.276   2.201  0.00  0.00    +0.000 A 
ATOM     32  C   UNL     1       3.595  -5.871   3.435  0.00  0.00    +0.000 A 
ATOM     33  C   UNL     1       3.849  -5.158   4.591  0.00  0.00    +0.000 A 
ATOM     34  C   UNL     1       4.291  -3.850   4.514  0.00  0.00    +0.005 A 
ENDBRANCH  28  29
ENDBRANCH  19  20
ENDBRANCH   2  19
TORSDOF 7
