REMARK  Name = ZINC40780317
REMARK  5 active torsions:
REMARK  status: ('A' for Active; 'I' for Inactive)
REMARK    1  A    between atoms: C_1  and  C_2
REMARK    2  A    between atoms: C_6  and  N_9
REMARK    3  A    between atoms: C_7  and  C_8
REMARK    4  A    between atoms: N_12  and  C_15
REMARK    5  A    between atoms: C_16  and  N_31
REMARK                            x       y       z     vdW  Elec       q    Type
REMARK                         _______ _______ _______ _____ _____    ______ ____
ROOT
ATOM      1  C   UNL     1       0.130  -5.773   5.105  0.00  0.00    +0.147 A 
ATOM      2  C   UNL     1       0.075  -7.168   5.104  0.00  0.00    +0.106 A 
ATOM      3  C   UNL     1       0.073  -7.827   6.335  0.00  0.00    +0.151 A 
ATOM      4  N   UNL     1       0.121  -7.107   7.453  0.00  0.00    -0.218 NA
ATOM      5  C   UNL     1       0.172  -5.791   7.409  0.00  0.00    +0.225 A 
ATOM      6  N   UNL     1       0.182  -5.130   6.269  0.00  0.00    -0.219 NA
ATOM      7  N   UNL     1       0.019  -9.216   6.391  0.00  0.00    -0.283 N 
ATOM      8  C   UNL     1       1.254 -10.008   6.465  0.00  0.00    +0.113 C 
ATOM      9  C   UNL     1       1.120 -11.178   5.482  0.00  0.00    +0.024 C 
ATOM     10  C   UNL     1      -0.037 -12.070   5.932  0.00  0.00    +0.038 C 
ATOM     11  C   UNL     1      -1.278 -11.249   6.159  0.00  0.00    -0.026 A 
ATOM     12  C   UNL     1      -1.212  -9.881   6.385  0.00  0.00    +0.038 A 
ATOM     13  C   UNL     1      -2.377  -9.153   6.601  0.00  0.00    +0.024 A 
ATOM     14  C   UNL     1      -3.602  -9.790   6.595  0.00  0.00    +0.002 A 
ATOM     15  C   UNL     1      -3.668 -11.153   6.373  0.00  0.00    +0.000 A 
ATOM     16  C   UNL     1      -2.511 -11.880   6.148  0.00  0.00    +0.005 A 
ENDROOT
BRANCH   1  20
ATOM     17  N   UNL     1       0.138  -2.788   2.397  0.00  0.00    -0.327 N 
ATOM     18  C   UNL     1      -1.130  -3.172   3.034  0.00  0.00    +0.124 C 
ATOM     19  C   UNL     1      -1.127  -4.690   3.256  0.00  0.00    +0.125 C 
ATOM     20  N   UNL     1       0.135  -5.066   3.908  0.00  0.00    -0.311 N 
ATOM     21  C   UNL     1       1.403  -4.683   3.271  0.00  0.00    +0.125 C 
ATOM     22  C   UNL     1       1.400  -3.170   3.046  0.00  0.00    +0.124 C 
BRANCH  17  28
ATOM     23  C   UNL     1       0.151   1.516   0.026  0.00  0.00    +0.044 C 
ATOM     24  C   UNL     1       0.149   0.009   0.015  0.00  0.00    -0.046 A 
ATOM     25  C   UNL     1       0.153  -0.672  -1.189  0.00  0.00    +0.004 A 
ATOM     26  C   UNL     1       0.152  -2.055  -1.204  0.00  0.00    +0.002 A 
ATOM     27  C   UNL     1       0.146  -2.760  -0.016  0.00  0.00    +0.023 A 
ATOM     28  C   UNL     1       0.143  -2.079   1.194  0.00  0.00    +0.033 A 
ATOM     29  C   UNL     1       0.150  -0.689   1.206  0.00  0.00    -0.027 A 
ATOM     30  C   UNL     1       0.152   0.054   2.517  0.00  0.00    +0.046 C 
ENDBRANCH  17  28
ENDBRANCH   1  20
BRANCH   2  31
ATOM     31  N   UNL     1       0.025  -7.887   3.900  0.00  0.00    -0.353 N 
ATOM     32  H   UNL     1       0.117  -7.423   3.053  0.00  0.00    +0.143 HD
ATOM     33  H   UNL     1      -0.103  -8.849   3.914  0.00  0.00    +0.143 HD
ENDBRANCH   2  31
TORSDOF 3
