REMARK  Name = ZINC50871091
REMARK  1 active torsions:
REMARK  status: ('A' for Active; 'I' for Inactive)
REMARK    1  A    between atoms: C_7  and  N_14
REMARK                            x       y       z     vdW  Elec       q    Type
REMARK                         _______ _______ _______ _____ _____    ______ ____
ROOT
ATOM      1  C   UNL     1      -0.017   1.397   0.010  0.00  0.00    +0.027 A 
ATOM      2  C   UNL     1       1.159   2.087   0.002  0.00  0.00    +0.020 A 
ATOM      3  C   UNL     1       2.380   1.416  -0.014  0.00  0.00    +0.032 A 
ATOM      4  C   UNL     1       2.433   0.055  -0.022  0.00  0.00    +0.045 A 
ATOM      5  C   UNL     1       1.240  -0.690  -0.013  0.00  0.00    +0.087 A 
ATOM      6  C   UNL     1       0.002  -0.004   0.002  0.00  0.00    +0.023 A 
ATOM      7  C   UNL     1      -1.194  -0.759   0.009  0.00  0.00    +0.039 A 
ATOM      8  C   UNL     1      -1.094  -2.142   0.003  0.00  0.00    -0.005 A 
ATOM      9  C   UNL     1       0.158  -2.746  -0.011  0.00  0.00    +0.047 A 
ATOM     10  N   UNL     1       1.262  -2.026  -0.019  0.00  0.00    -0.250 NA
ATOM     11  C   UNL     1      -0.011  -4.253  -0.015  0.00  0.00    +0.056 C 
ATOM     12  C   UNL     1      -1.464  -4.501   0.440  0.00  0.00    +0.011 C 
ATOM     13  C   UNL     1      -2.175  -3.201   0.009  0.00  0.00    +0.039 C 
ATOM     14 BR   UNL     1       4.104  -0.829  -0.045  0.00  0.00    -0.048 Br
ATOM     15 BR   UNL     1       1.133   3.978   0.013  0.00  0.00    -0.050 Br
ENDROOT
BRANCH   7  16
ATOM     16  N   UNL     1      -2.432  -0.134   0.023  0.00  0.00    -0.357 N 
ATOM     17  H   UNL     1      -2.486   0.834   0.027  0.00  0.00    +0.142 HD
ATOM     18  H   UNL     1      -3.244  -0.665   0.027  0.00  0.00    +0.142 HD
ENDBRANCH   7  16
TORSDOF 1
