REMARK  Name = ZINC43606739
REMARK  8 active torsions:
REMARK  status: ('A' for Active; 'I' for Inactive)
REMARK    1  A    between atoms: C_1  and  C_2
REMARK    2  A    between atoms: C_2  and  C_4
REMARK    3  A    between atoms: C_2  and  N_16
REMARK    4  A    between atoms: N_9  and  C_10
REMARK    5  A    between atoms: C_10  and  C_11
REMARK    6  A    between atoms: N_16  and  C_17
REMARK    7  A    between atoms: C_17  and  C_19
REMARK    8  A    between atoms: C_17  and  C_25
REMARK                            x       y       z     vdW  Elec       q    Type
REMARK                         _______ _______ _______ _____ _____    ______ ____
ROOT
ATOM      1  C   UNL     1      -0.007   1.516  -0.019  0.00  0.00    -0.004 C 
ATOM      2  C   UNL     1       0.009  -0.005   0.149  0.00  0.00    +0.015 C 
ENDROOT
BRANCH   2   3
ATOM      3  C   UNL     1       0.659  -0.358   1.462  0.00  0.00    +0.206 C 
ATOM      4  O   UNL     1       0.035  -0.972   2.301  0.00  0.00    -0.277 OA
ATOM      5  N   UNL     1       1.933   0.009   1.704  0.00  0.00    -0.242 N 
ATOM      6  C   UNL     1       2.514  -0.306   2.878  0.00  0.00    +0.306 C 
ATOM      7  O   UNL     1       1.889  -0.922   3.719  0.00  0.00    -0.252 OA
ATOM      8  N   UNL     1       3.788   0.061   3.119  0.00  0.00    -0.294 N 
ATOM      9  H   UNL     1       2.431   0.501   1.032  0.00  0.00    +0.159 HD
ATOM     10  H   UNL     1       4.287   0.552   2.448  0.00  0.00    +0.151 HD
BRANCH   8  11
ATOM     11  C   UNL     1       4.420  -0.282   4.396  0.00  0.00    +0.148 C 
BRANCH  11  12
ATOM     12  C   UNL     1       5.834   0.239   4.413  0.00  0.00    +0.007 A 
ATOM     13  C   UNL     1       6.296   1.440   4.839  0.00  0.00    +0.013 A 
ATOM     14  C   UNL     1       7.650   1.704   4.760  0.00  0.00    +0.008 A 
ATOM     15  C   UNL     1       8.477   0.754   4.258  0.00  0.00    +0.045 A 
ATOM     16  S   UNL     1       7.336  -0.567   3.883  0.00  0.00    -0.100 S 
ENDBRANCH  11  12
ENDBRANCH   8  11
ENDBRANCH   2   3
BRANCH   2  17
ATOM     17  N   UNL     1      -1.370  -0.513   0.133  0.00  0.00    +0.396 N 
ATOM     18  H   UNL     1      -1.858  -0.188   0.954  0.00  0.00    -0.083 HD
ATOM     19  H   UNL     1      -1.842  -0.179  -0.694  0.00  0.00    -0.083 HD
BRANCH  17  20
ATOM     20  C   UNL     1      -1.350  -1.982   0.125  0.00  0.00    +0.028 C 
BRANCH  20  21
ATOM     21  C   UNL     1      -2.757  -2.504   0.260  0.00  0.00    -0.054 A 
ATOM     22  C   UNL     1      -3.792  -1.884  -0.415  0.00  0.00    +0.002 A 
ATOM     23  C   UNL     1      -5.083  -2.363  -0.292  0.00  0.00    +0.000 A 
ATOM     24  C   UNL     1      -5.338  -3.462   0.506  0.00  0.00    +0.000 A 
ATOM     25  C   UNL     1      -4.303  -4.083   1.179  0.00  0.00    +0.000 A 
ATOM     26  C   UNL     1      -3.012  -3.607   1.053  0.00  0.00    +0.002 A 
ENDBRANCH  20  21
BRANCH  20  27
ATOM     27  C   UNL     1      -0.755  -2.469  -1.171  0.00  0.00    +0.095 A 
ATOM     28  C   UNL     1       0.085  -3.511  -1.309  0.00  0.00    +0.043 A 
ATOM     29  C   UNL     1       0.390  -3.612  -2.685  0.00  0.00    +0.041 A 
ATOM     30  C   UNL     1      -0.282  -2.626  -3.307  0.00  0.00    +0.195 A 
ATOM     31  O   UNL     1      -0.978  -1.941  -2.385  0.00  0.00    -0.469 OA
ENDBRANCH  20  27
ENDBRANCH  17  20
ENDBRANCH   2  17
TORSDOF 7
