REMARK  Name = ZINC00408289
REMARK  2 active torsions:
REMARK  status: ('A' for Active; 'I' for Inactive)
REMARK    1  A    between atoms: C_4  and  C_7
REMARK    2  A    between atoms: C_10  and  C_17
REMARK                            x       y       z     vdW  Elec       q    Type
REMARK                         _______ _______ _______ _____ _____    ______ ____
ROOT
ATOM      1  C   UNL     1       3.711  -0.707  -0.038  0.00  0.00    +0.129 C 
ATOM      2  C   UNL     1       4.016  -1.144  -1.444  0.00  0.00    +0.028 C 
ATOM      3  C   UNL     1       3.688  -2.361  -1.895  0.00  0.00    +0.076 C 
ATOM      4  N   UNL     1       3.076  -3.247  -1.006  0.00  0.00    -0.180 N 
ATOM      5  C   UNL     1       3.052  -3.017   0.341  0.00  0.00    +0.240 A 
ATOM      6  N   UNL     1       2.429  -4.015   0.890  0.00  0.00    -0.092 NA
ATOM      7  N   UNL     1       2.050  -4.856  -0.013  0.00  0.00    -0.021 NA
ATOM      8  N   UNL     1       2.409  -4.451  -1.189  0.00  0.00    -0.038 NA
ATOM      9  N   UNL     1       3.628  -1.870   0.863  0.00  0.00    -0.302 N 
ATOM     10  H   UNL     1       3.959  -1.835   1.774  0.00  0.00    +0.150 HD
ENDROOT
BRANCH   1  14
ATOM     11  C   UNL     1      -0.017   1.378   0.010  0.00  0.00    +0.000 A 
ATOM     12  C   UNL     1       1.171   2.086   0.002  0.00  0.00    +0.000 A 
ATOM     13  C   UNL     1       2.377   1.411  -0.013  0.00  0.00    +0.006 A 
ATOM     14  C   UNL     1       2.396   0.029  -0.020  0.00  0.00    -0.023 A 
ATOM     15  C   UNL     1       1.208  -0.679  -0.012  0.00  0.00    +0.006 A 
ATOM     16  C   UNL     1       0.002  -0.004   0.002  0.00  0.00    +0.000 A 
ENDBRANCH   1  14
BRANCH   3  17
ATOM     17  C   UNL     1       3.967  -2.756  -3.294  0.00  0.00    +0.000 A 
ATOM     18  C   UNL     1       3.325  -2.105  -4.347  0.00  0.00    +0.010 A 
ATOM     19  C   UNL     1       3.589  -2.478  -5.649  0.00  0.00    +0.001 A 
ATOM     20  C   UNL     1       4.489  -3.495  -5.911  0.00  0.00    +0.000 A 
ATOM     21  C   UNL     1       5.128  -4.146  -4.871  0.00  0.00    +0.001 A 
ATOM     22  C   UNL     1       4.877  -3.778  -3.565  0.00  0.00    +0.010 A 
ENDBRANCH   3  17
TORSDOF 2
