REMARK  Name = ZINC39684266
REMARK  6 active torsions:
REMARK  status: ('A' for Active; 'I' for Inactive)
REMARK    1  A    between atoms: C_1  and  C_2
REMARK    2  A    between atoms: C_7  and  C_11
REMARK    3  A    between atoms: C_11  and  C_12
REMARK    4  A    between atoms: C_12  and  N_13
REMARK    5  A    between atoms: C_14  and  C_16
REMARK    6  A    between atoms: C_27  and  C_29
REMARK                            x       y       z     vdW  Elec       q    Type
REMARK                         _______ _______ _______ _____ _____    ______ ____
ROOT
ATOM      1  C   UNL     1      -8.680   1.722  -6.216  0.00  0.00    +0.100 C 
ATOM      2  C   UNL     1      -8.192   2.852  -7.151  0.00  0.00    +0.121 C 
ATOM      3  N   UNL     1      -7.816   2.162  -8.407  0.00  0.00    -0.296 N 
ATOM      4  C   UNL     1      -8.858   1.123  -8.584  0.00  0.00    +0.115 C 
ATOM      5  C   UNL     1      -9.119   0.591  -7.161  0.00  0.00    -0.004 C 
ATOM      6  C   UNL     1      -8.287  -0.663  -6.906  0.00  0.00    -0.010 C 
ATOM      7  C   UNL     1      -8.780  -1.791  -7.817  0.00  0.00    -0.082 C 
ATOM      8  N   UNL     1     -10.198  -2.057  -7.546  0.00  0.00    +0.379 N 
ATOM      9  C   UNL     1     -11.003  -0.876  -7.881  0.00  0.00    -0.082 C 
ATOM     10  C   UNL     1     -10.603   0.291  -6.973  0.00  0.00    -0.010 C 
ATOM     11  C   UNL     1      -6.764   2.421  -9.209  0.00  0.00    +0.252 C 
ATOM     12  O   UNL     1      -6.588   1.761 -10.215  0.00  0.00    -0.270 OA
ATOM     13  H   UNL     1     -10.505  -2.840  -8.103  0.00  0.00    -0.086 HD
ATOM     14  H   UNL     1     -10.317  -2.276  -6.568  0.00  0.00    -0.086 HD
ENDROOT
BRANCH  11  15
ATOM     15  C   UNL     1      -5.824   3.506  -8.865  0.00  0.00    +0.108 A 
ATOM     16  C   UNL     1      -4.700   3.240  -8.076  0.00  0.00    +0.138 A 
ATOM     17  C   UNL     1      -3.825   4.261  -7.759  0.00  0.00    +0.041 A 
ATOM     18  C   UNL     1      -4.058   5.545  -8.219  0.00  0.00    +0.026 A 
ATOM     19  C   UNL     1      -5.167   5.817  -9.001  0.00  0.00    +0.077 A 
ATOM     20  C   UNL     1      -6.050   4.805  -9.332  0.00  0.00    +0.156 A 
ATOM     21  F   UNL     1      -7.129   5.072 -10.100  0.00  0.00    -0.203 F 
ATOM     22 CL   UNL     1      -5.447   7.433  -9.572  0.00  0.00    -0.081 Cl
ATOM     23  F   UNL     1      -4.472   1.987  -7.624  0.00  0.00    -0.205 F 
ENDBRANCH  11  15
BRANCH   1  25
ATOM     24  N   UNL     1      -7.830   0.739  -4.112  0.00  0.00    -0.315 N 
ATOM     25  C   UNL     1      -7.557   1.256  -5.326  0.00  0.00    +0.218 C 
ATOM     26  O   UNL     1      -6.408   1.347  -5.702  0.00  0.00    -0.275 OA
ATOM     27  H   UNL     1      -8.750   0.667  -3.811  0.00  0.00    +0.149 HD
BRANCH  24  28
ATOM     28  C   UNL     1      -6.739   0.287  -3.246  0.00  0.00    +0.109 C 
BRANCH  28  29
ATOM     29  C   UNL     1      -7.317  -0.253  -1.936  0.00  0.00    +0.056 C 
BRANCH  29  36
ATOM     30  C   UNL     1      -2.589  -1.159   2.082  0.00  0.00    +0.046 C 
ATOM     31  C   UNL     1      -3.586  -0.246   1.415  0.00  0.00    -0.027 A 
ATOM     32  C   UNL     1      -3.612   1.095   1.728  0.00  0.00    +0.005 A 
ATOM     33  C   UNL     1      -4.526   1.946   1.122  0.00  0.00    +0.001 A 
ATOM     34  C   UNL     1      -5.416   1.467   0.202  0.00  0.00    +0.010 A 
ATOM     35  C   UNL     1      -5.407   0.111  -0.130  0.00  0.00    +0.003 A 
ATOM     36  C   UNL     1      -6.194  -0.719  -1.045  0.00  0.00    -0.021 A 
ATOM     37  C   UNL     1      -5.726  -1.972  -0.940  0.00  0.00    +0.087 A 
ATOM     38  N   UNL     1      -4.703  -2.014  -0.032  0.00  0.00    -0.360 N 
ATOM     39  C   UNL     1      -4.479  -0.755   0.478  0.00  0.00    +0.050 A 
ATOM     40  H   UNL     1      -4.207  -2.811   0.213  0.00  0.00    +0.165 HD
ENDBRANCH  29  36
ENDBRANCH  28  29
ENDBRANCH  24  28
ENDBRANCH   1  25
TORSDOF 5
