REMARK  Name = ZINC20466550
REMARK  11 active torsions:
REMARK  status: ('A' for Active; 'I' for Inactive)
REMARK    1  A    between atoms: C_1  and  C_2
REMARK    2  A    between atoms: C_4  and  N_28
REMARK    3  A    between atoms: C_8  and  C_27
REMARK    4  A    between atoms: C_11  and  O_26
REMARK    5  A    between atoms: C_13  and  C_17
REMARK    6  A    between atoms: C_17  and  C_19
REMARK    7  A    between atoms: C_17  and  C_20
REMARK    8  A    between atoms: N_22  and  C_23
REMARK    9  A    between atoms: C_23  and  C_24
REMARK   10  A    between atoms: C_23  and  C_25
REMARK   11  A    between atoms: C_29  and  C_31
REMARK                            x       y       z     vdW  Elec       q    Type
REMARK                         _______ _______ _______ _____ _____    ______ ____
ROOT
ATOM      1  C   UNL     1      -4.176   0.744   5.071  0.00  0.00    +0.010 C 
ATOM      2  C   UNL     1      -4.944   1.431   3.939  0.00  0.00    +0.012 C 
ATOM      3  C   UNL     1      -6.319   0.778   3.786  0.00  0.00    +0.076 C 
ATOM      4  C   UNL     1      -7.086   1.464   2.655  0.00  0.00    +0.023 C 
ATOM      5  C   UNL     1      -6.305   1.320   1.347  0.00  0.00    +0.009 C 
ATOM      6  C   UNL     1      -4.930   1.973   1.500  0.00  0.00    -0.027 C 
ATOM      7  C   UNL     1      -4.162   1.286   2.631  0.00  0.00    +0.028 C 
ATOM      8  C   UNL     1      -2.787   1.939   2.784  0.00  0.00    +0.122 C 
ATOM      9  C   UNL     1      -2.006   1.794   1.477  0.00  0.00    +0.029 C 
ATOM     10  C   UNL     1      -2.773   2.481   0.345  0.00  0.00    +0.007 C 
ATOM     11  C   UNL     1      -4.148   1.828   0.193  0.00  0.00    +0.007 C 
ATOM     12  C   UNL     1      -5.103   3.457   1.829  0.00  0.00    +0.011 C 
ENDROOT
BRANCH   3  13
ATOM     13  N   UNL     1      -7.067   0.916   5.038  0.00  0.00    -0.312 N 
ATOM     14  C   UNL     1      -8.043   0.037   5.341  0.00  0.00    +0.216 C 
ATOM     15  O   UNL     1      -8.302  -0.868   4.577  0.00  0.00    -0.276 OA
ATOM     16  H   UNL     1      -6.832   1.738   5.731  0.00  0.00    +0.149 HD
BRANCH  14  17
ATOM     17  C   UNL     1      -8.812   0.180   6.629  0.00  0.00    +0.075 C 
ATOM     18  C   UNL     1      -7.848   0.084   7.812  0.00  0.00    +0.013 C 
ATOM     19  C   UNL     1      -8.629   0.229   9.120  0.00  0.00    +0.001 C 
ATOM     20  C   UNL     1      -9.670  -0.888   9.218  0.00  0.00    +0.000 C 
ATOM     21  C   UNL     1     -10.635  -0.792   8.034  0.00  0.00    +0.001 C 
ATOM     22  C   UNL     1      -9.853  -0.937   6.727  0.00  0.00    +0.013 C 
ENDBRANCH  14  17
ENDBRANCH   3  13
BRANCH   9  23
ATOM     23  C   UNL     1      -0.630   2.447   1.630  0.00  0.00    +0.077 C 
ATOM     24  C   UNL     1      -0.800   3.957   1.813  0.00  0.00    +0.017 C 
BRANCH  23  25
ATOM     25  C   UNL     1       0.192   2.180   0.396  0.00  0.00    +0.216 C 
ATOM     26  O   UNL     1      -0.286   1.559  -0.529  0.00  0.00    -0.276 OA
ATOM     27  N   UNL     1       1.460   2.632   0.320  0.00  0.00    -0.313 N 
ATOM     28  H   UNL     1       1.894   3.196   1.159  0.00  0.00    +0.149 HD
BRANCH  27  29
ATOM     29  C   UNL     1       2.260   2.373  -0.880  0.00  0.00    +0.067 C 
ATOM     30  C   UNL     1       1.969   3.448  -1.929  0.00  0.00    +0.027 C 
ATOM     31  C   UNL     1       3.746   2.402  -0.518  0.00  0.00    +0.027 C 
ENDBRANCH  27  29
ENDBRANCH  23  25
ENDBRANCH   9  23
BRANCH   8  32
ATOM     32  O   UNL     1      -2.070   1.298   3.841  0.00  0.00    -0.391 OA
ATOM     33  H   UNL     1      -1.055   1.633   4.100  0.00  0.00    +0.210 HD
ENDBRANCH   8  32
TORSDOF 6
