REMARK  Name = ZINC11855663
REMARK  7 active torsions:
REMARK  status: ('A' for Active; 'I' for Inactive)
REMARK    1  A    between atoms: C_1  and  C_2
REMARK    2  A    between atoms: C_2  and  C_3
REMARK    3  A    between atoms: C_2  and  C_4
REMARK    4  A    between atoms: C_13  and  N_22
REMARK    5  A    between atoms: C_15  and  C_17
REMARK    6  A    between atoms: C_23  and  C_25
REMARK    7  A    between atoms: N_30  and  C_32
REMARK                            x       y       z     vdW  Elec       q    Type
REMARK                         _______ _______ _______ _____ _____    ______ ____
ROOT
ATOM      1  C   UNL     1       8.960   6.902   2.285  0.00  0.00    +0.053 A 
ATOM      2  C   UNL     1      10.023   7.132   3.108  0.00  0.00    +0.093 A 
ATOM      3  C   UNL     1       9.793   7.268   4.490  0.00  0.00    +0.253 A 
ATOM      4  O   UNL     1      10.719   7.475   5.257  0.00  0.00    -0.268 OA
ATOM      5  N   UNL     1       8.527   7.171   4.950  0.00  0.00    -0.291 N 
ATOM      6  H   UNL     1       8.345   7.266   5.898  0.00  0.00    +0.172 HD
ATOM      7  C   UNL     1       7.510   6.935   4.080  0.00  0.00    +0.234 A 
ATOM      8  N   UNL     1       7.731   6.809   2.790  0.00  0.00    -0.217 NA
ATOM      9  N   UNL     1       6.218   6.831   4.560  0.00  0.00    -0.185 N 
ATOM     10  C   UNL     1       5.113   6.503   3.826  0.00  0.00    +0.132 A 
ATOM     11  C   UNL     1       4.047   6.504   4.666  0.00  0.00    +0.074 A 
ATOM     12  C   UNL     1       4.511   6.847   5.953  0.00  0.00    +0.102 A 
ATOM     13  N   UNL     1       5.811   7.045   5.883  0.00  0.00    -0.162 NA
ENDROOT
BRANCH  12  14
ATOM     14  C   UNL     1       3.681   6.965   7.171  0.00  0.00    +0.039 A 
ATOM     15  C   UNL     1       4.060   7.292   8.445  0.00  0.00    +0.018 A 
ATOM     16  C   UNL     1       3.098   7.339   9.431  0.00  0.00    +0.008 A 
ATOM     17  C   UNL     1       1.808   7.062   9.110  0.00  0.00    +0.046 A 
ATOM     18  S   UNL     1       1.922   6.725   7.361  0.00  0.00    -0.095 S 
ENDBRANCH  12  14
BRANCH  10  19
ATOM     19  N   UNL     1       5.087   6.215   2.464  0.00  0.00    -0.270 N 
ATOM     20  C   UNL     1       3.909   6.018   1.839  0.00  0.00    +0.223 C 
ATOM     21  O   UNL     1       2.872   6.091   2.464  0.00  0.00    -0.275 OA
ATOM     22  H   UNL     1       5.916   6.156   1.964  0.00  0.00    +0.156 HD
BRANCH  20  23
ATOM     23  C   UNL     1       3.880   5.706   0.365  0.00  0.00    +0.102 C 
ATOM     24  C   UNL     1       4.627   4.386   0.064  0.00  0.00    +0.110 C 
ATOM     25  C   UNL     1       3.543   3.332   0.091  0.00  0.00    +0.221 C 
ATOM     26  O   UNL     1       3.738   2.138   0.180  0.00  0.00    -0.275 OA
ATOM     27  N   UNL     1       2.333   3.910   0.002  0.00  0.00    -0.271 N 
ATOM     28  C   UNL     1       2.447   5.369  -0.108  0.00  0.00    +0.127 C 
BRANCH  27  29
ATOM     29  C   UNL     1       1.120   3.210   0.008  0.00  0.00    +0.036 A 
ATOM     30  C   UNL     1       1.119   1.822  -0.014  0.00  0.00    +0.026 A 
ATOM     31  C   UNL     1      -0.078   1.133  -0.008  0.00  0.00    +0.040 A 
ATOM     32  C   UNL     1      -1.277   1.826   0.014  0.00  0.00    +0.124 A 
ATOM     33  C   UNL     1      -1.277   3.211   0.041  0.00  0.00    +0.040 A 
ATOM     34  C   UNL     1      -0.082   3.903   0.035  0.00  0.00    +0.026 A 
ATOM     35  F   UNL     1      -2.447   1.151   0.014  0.00  0.00    -0.205 F 
ENDBRANCH  27  29
ENDBRANCH  20  23
ENDBRANCH  10  19
BRANCH   1  37
ATOM     36  C   UNL     1       8.695   5.371   0.351  0.00  0.00    +0.014 C 
ATOM     37  C   UNL     1       9.177   6.752   0.801  0.00  0.00    +0.032 C 
ATOM     38  C   UNL     1       8.389   7.834   0.059  0.00  0.00    +0.014 C 
ENDBRANCH   1  37
TORSDOF 5
