REMARK  Name = ZINC13569354
REMARK  6 active torsions:
REMARK  status: ('A' for Active; 'I' for Inactive)
REMARK    1  A    between atoms: C_1  and  C_2
REMARK    2  A    between atoms: C_12  and  C_13
REMARK    3  A    between atoms: C_13  and  C_14
REMARK    4  A    between atoms: N_16  and  C_17
REMARK    5  A    between atoms: C_20  and  N_23
REMARK    6  A    between atoms: C_24  and  C_26
REMARK                            x       y       z     vdW  Elec       q    Type
REMARK                         _______ _______ _______ _____ _____    ______ ____
ROOT
ATOM      1  C   UNL     1       0.972  10.452  -2.235  0.00  0.00    +0.045 C 
ATOM      2  C   UNL     1       1.765  10.704  -0.979  0.00  0.00    -0.029 A 
ATOM      3  C   UNL     1       3.134  11.224  -1.038  0.00  0.00    +0.021 A 
ATOM      4  C   UNL     1       3.744  11.503  -2.265  0.00  0.00    +0.019 A 
ATOM      5  C   UNL     1       5.024  11.985  -2.302  0.00  0.00    -0.005 A 
ATOM      6  C   UNL     1       5.725  12.201  -1.120  0.00  0.00    +0.128 A 
ATOM      7  C   UNL     1       5.131  11.930   0.106  0.00  0.00    +0.093 A 
ATOM      8  C   UNL     1       3.834  11.441   0.162  0.00  0.00    +0.143 A 
ATOM      9  O   UNL     1       3.256  11.179   1.351  0.00  0.00    -0.422 OA
ATOM     10  C   UNL     1       2.005  10.710   1.402  0.00  0.00    +0.341 A 
ATOM     11  O   UNL     1       1.510  10.488   2.492  0.00  0.00    -0.245 OA
ATOM     12  C   UNL     1       1.236  10.457   0.249  0.00  0.00    +0.049 A 
ATOM     13  O   UNL     1       6.996  12.680  -1.124  0.00  0.00    -0.485 OA
ATOM     14  C   UNL     1       7.731  12.609  -2.345  0.00  0.00    +0.111 C 
ATOM     15  C   UNL     1       9.016  13.428  -2.227  0.00  0.00    +0.048 C 
ATOM     16  C   UNL     1       9.888  12.854  -1.108  0.00  0.00    +0.004 C 
ATOM     17  C   UNL     1      10.235  11.399  -1.428  0.00  0.00    +0.000 C 
ATOM     18  C   UNL     1       8.947  10.581  -1.539  0.00  0.00    +0.004 C 
ATOM     19  C   UNL     1       8.075  11.153  -2.659  0.00  0.00    +0.048 C 
ATOM     20  C   UNL     1       6.861  13.181  -3.471  0.00  0.00    +0.053 C 
ATOM     21  C   UNL     1       5.645  12.269  -3.647  0.00  0.00    +0.043 C 
ENDROOT
BRANCH  12  22
ATOM     22  C   UNL     1      -0.166   9.921   0.376  0.00  0.00    +0.138 C 
BRANCH  22  23
ATOM     23  C   UNL     1      -0.131   8.414   0.367  0.00  0.00    +0.222 C 
ATOM     24  O   UNL     1       0.929   7.833   0.268  0.00  0.00    -0.275 OA
ATOM     25  N   UNL     1      -1.277   7.713   0.470  0.00  0.00    -0.285 N 
ATOM     26  H   UNL     1      -2.117   8.175   0.617  0.00  0.00    +0.155 HD
BRANCH  25  27
ATOM     27  C   UNL     1      -1.255   6.316   0.364  0.00  0.00    +0.034 A 
ATOM     28  C   UNL     1      -2.312   5.649  -0.242  0.00  0.00    +0.025 A 
ATOM     29  C   UNL     1      -2.290   4.273  -0.347  0.00  0.00    +0.025 A 
ATOM     30  C   UNL     1      -1.212   3.555   0.154  0.00  0.00    +0.033 A 
ATOM     31  C   UNL     1      -0.158   4.222   0.766  0.00  0.00    +0.025 A 
ATOM     32  C   UNL     1      -0.177   5.598   0.865  0.00  0.00    +0.025 A 
BRANCH  30  33
ATOM     33  N   UNL     1      -1.190   2.159   0.048  0.00  0.00    -0.286 N 
ATOM     34  C   UNL     1      -0.013   1.503   0.029  0.00  0.00    +0.214 C 
ATOM     35  O   UNL     1       1.028   2.125  -0.005  0.00  0.00    -0.276 OA
ATOM     36  C   UNL     1       0.011  -0.004   0.044  0.00  0.00    +0.109 C 
ATOM     37  H   UNL     1      -2.022   1.664  -0.012  0.00  0.00    +0.155 HD
ENDBRANCH  30  33
ENDBRANCH  25  27
ENDBRANCH  22  23
ENDBRANCH  12  22
TORSDOF 4
