REMARK  Name = ZINC01340064
REMARK  11 active torsions:
REMARK  status: ('A' for Active; 'I' for Inactive)
REMARK    1  A    between atoms: C_1  and  C_2
REMARK    2  A    between atoms: C_2  and  C_3
REMARK    3  A    between atoms: C_2  and  O_4
REMARK    4  A    between atoms: O_4  and  C_5
REMARK    5  A    between atoms: C_5  and  C_7
REMARK    6  A    between atoms: C_7  and  S_8
REMARK    7  A    between atoms: S_8  and  C_9
REMARK    8  A    between atoms: C_12  and  C_15
REMARK    9  A    between atoms: N_13  and  C_14
REMARK   10  A    between atoms: C_15  and  N_16
REMARK   11  A    between atoms: C_19  and  C_22
REMARK                            x       y       z     vdW  Elec       q    Type
REMARK                         _______ _______ _______ _____ _____    ______ ____
ROOT
ATOM      1  C   UNL     1      -4.590  -4.397  -1.447  0.00  0.00    +0.192 A 
ATOM      2  N   UNL     1      -5.600  -3.768  -0.895  0.00  0.00    -0.122 NA
ATOM      3  N   UNL     1      -6.676  -4.455  -1.044  0.00  0.00    -0.132 NA
ATOM      4  C   UNL     1      -6.419  -5.554  -1.694  0.00  0.00    +0.151 A 
ATOM      5  N   UNL     1      -5.082  -5.554  -1.980  0.00  0.00    -0.308 N 
ATOM      6  C   UNL     1      -4.332  -6.584  -2.703  0.00  0.00    +0.152 C 
ENDROOT
BRANCH   1   7
ATOM      7  S   UNL     1      -2.916  -3.850  -1.498  0.00  0.00    -0.075 S 
BRANCH   7   8
ATOM      8  C   UNL     1      -2.946  -2.263  -0.619  0.00  0.00    +0.197 C 
BRANCH   8   9
ATOM      9  C   UNL     1      -1.558  -1.678  -0.590  0.00  0.00    +0.318 C 
ATOM     10  O   UNL     1      -0.641  -2.271  -1.109  0.00  0.00    -0.250 OA
BRANCH   9  11
ATOM     11  O   UNL     1      -1.339  -0.499   0.012  0.00  0.00    -0.461 OA
BRANCH  11  13
ATOM     12  C   UNL     1      -0.019   1.526   0.010  0.00  0.00    +0.052 C 
ATOM     13  C   UNL     1       0.002  -0.004   0.002  0.00  0.00    +0.170 C 
ATOM     14  C   UNL     1       0.742  -0.511   1.242  0.00  0.00    +0.052 C 
ENDBRANCH  11  13
ENDBRANCH   9  11
ENDBRANCH   8   9
ENDBRANCH   7   8
ENDBRANCH   1   7
BRANCH   4  15
ATOM     15  C   UNL     1      -7.412  -6.624  -2.068  0.00  0.00    +0.180 C 
BRANCH  15  16
ATOM     16  N   UNL     1      -7.982  -6.322  -3.383  0.00  0.00    -0.316 N 
ATOM     17  C   UNL     1      -8.926  -7.171  -3.940  0.00  0.00    +0.159 A 
ATOM     18  N   UNL     1      -9.548  -7.080  -5.101  0.00  0.00    -0.225 NA
ATOM     19  C   UNL     1     -10.435  -7.998  -5.480  0.00  0.00    +0.080 A 
ATOM     20  C   UNL     1     -10.704  -9.050  -4.651  0.00  0.00    +0.076 A 
ATOM     21  S   UNL     1      -9.617  -8.681  -3.280  0.00  0.00    -0.060 S 
ATOM     22  H   UNL     1      -7.699  -5.529  -3.865  0.00  0.00    +0.148 HD
BRANCH  19  23
ATOM     23  C   UNL     1     -11.124  -7.879  -6.788  0.00  0.00    +0.001 A 
ATOM     24  C   UNL     1     -12.056  -8.839  -7.177  0.00  0.00    +0.010 A 
ATOM     25  C   UNL     1     -12.695  -8.723  -8.395  0.00  0.00    +0.001 A 
ATOM     26  C   UNL     1     -12.411  -7.657  -9.229  0.00  0.00    +0.000 A 
ATOM     27  C   UNL     1     -11.486  -6.701  -8.849  0.00  0.00    +0.001 A 
ATOM     28  C   UNL     1     -10.845  -6.804  -7.630  0.00  0.00    +0.010 A 
ENDBRANCH  19  23
ENDBRANCH  15  16
ENDBRANCH   4  15
TORSDOF 8
