REMARK  Name = ZINC63269305
REMARK  11 active torsions:
REMARK  status: ('A' for Active; 'I' for Inactive)
REMARK    1  A    between atoms: C_1  and  C_2
REMARK    2  A    between atoms: C_2  and  C_3
REMARK    3  A    between atoms: C_2  and  C_4
REMARK    4  A    between atoms: C_7  and  N_10
REMARK    5  A    between atoms: C_14  and  S_15
REMARK    6  A    between atoms: S_15  and  C_16
REMARK    7  A    between atoms: C_16  and  C_17
REMARK    8  A    between atoms: N_19  and  N_20
REMARK    9  A    between atoms: N_23  and  C_24
REMARK   10  A    between atoms: C_24  and  C_25
REMARK   11  A    between atoms: C_24  and  C_26
REMARK                            x       y       z     vdW  Elec       q    Type
REMARK                         _______ _______ _______ _____ _____    ______ ____
ROOT
ATOM      1  S   UNL     1       0.801  -1.146   6.474  0.00  0.00    -0.076 S 
ENDROOT
BRANCH   1   6
ATOM      2  N   UNL     1       2.748  -1.885   4.600  0.00  0.00    -0.277 N 
ATOM      3  C   UNL     1       3.977  -2.487   4.641  0.00  0.00    +0.230 A 
ATOM      4  N   UNL     1       4.233  -2.760   5.890  0.00  0.00    -0.137 NA
ATOM      5  N   UNL     1       3.260  -2.376   6.635  0.00  0.00    -0.122 NA
ATOM      6  C   UNL     1       2.322  -1.827   5.899  0.00  0.00    +0.196 A 
BRANCH   2  10
ATOM      7  C   UNL     1       0.731  -0.503   1.223  0.00  0.00    -0.045 A 
ATOM      8  C   UNL     1       2.050  -0.147   1.433  0.00  0.00    +0.006 A 
ATOM      9  C   UNL     1       2.721  -0.603   2.551  0.00  0.00    +0.026 A 
ATOM     10  C   UNL     1       2.069  -1.420   3.464  0.00  0.00    +0.050 A 
ATOM     11  C   UNL     1       0.744  -1.776   3.251  0.00  0.00    +0.026 A 
ATOM     12  C   UNL     1       0.077  -1.312   2.134  0.00  0.00    +0.006 A 
BRANCH   7  14
ATOM     13  C   UNL     1      -0.019   1.526   0.010  0.00  0.00    +0.012 C 
ATOM     14  C   UNL     1       0.002  -0.004   0.002  0.00  0.00    +0.013 C 
ATOM     15  C   UNL     1       0.718  -0.497  -1.257  0.00  0.00    +0.012 C 
ENDBRANCH   7  14
ENDBRANCH   2  10
ENDBRANCH   1   6
BRANCH   1  16
ATOM     16  C   UNL     1       0.865  -1.386   8.271  0.00  0.00    +0.174 C 
BRANCH  16  17
ATOM     17  C   UNL     1      -0.393  -0.841   8.896  0.00  0.00    +0.239 C 
ATOM     18  O   UNL     1      -1.248  -0.339   8.197  0.00  0.00    -0.273 OA
ATOM     19  N   UNL     1      -0.568  -0.910  10.230  0.00  0.00    -0.233 N 
ATOM     20  H   UNL     1       0.117  -1.311  10.789  0.00  0.00    +0.173 HD
BRANCH  19  21
ATOM     21  N   UNL     1      -1.737  -0.403  10.811  0.00  0.00    -0.218 N 
ATOM     22  C   UNL     1      -1.912  -0.472  12.146  0.00  0.00    +0.316 C 
ATOM     23  O   UNL     1      -2.927  -0.032  12.650  0.00  0.00    -0.251 OA
ATOM     24  N   UNL     1      -0.961  -1.029  12.922  0.00  0.00    -0.296 N 
ATOM     25  H   UNL     1      -2.422  -0.002  10.252  0.00  0.00    +0.174 HD
ATOM     26  H   UNL     1      -0.151  -1.381  12.520  0.00  0.00    +0.151 HD
BRANCH  24  27
ATOM     27  C   UNL     1      -1.151  -1.105  14.372  0.00  0.00    +0.068 C 
ATOM     28  C   UNL     1      -0.322  -2.260  14.936  0.00  0.00    +0.027 C 
ATOM     29  C   UNL     1      -0.699   0.208  15.015  0.00  0.00    +0.027 C 
ENDBRANCH  24  27
ENDBRANCH  19  21
ENDBRANCH  16  17
ENDBRANCH   1  16
TORSDOF 7
