REMARK  Name = ZINC67156230
REMARK  4 active torsions:
REMARK  status: ('A' for Active; 'I' for Inactive)
REMARK    1  A    between atoms: C_1  and  C_2
REMARK    2  A    between atoms: C_4  and  C_14
REMARK    3  A    between atoms: N_16  and  C_17
REMARK    4  A    between atoms: C_19  and  C_23
REMARK                            x       y       z     vdW  Elec       q    Type
REMARK                         _______ _______ _______ _____ _____    ______ ____
ROOT
ATOM      1  C   UNL     1       2.028   0.017  -1.441  0.00  0.00    +0.263 C 
ATOM      2  O   UNL     1       2.957  -0.758  -1.522  0.00  0.00    -0.271 OA
ATOM      3  N   UNL     1       2.253   1.345  -1.466  0.00  0.00    -0.268 N 
ATOM      4  H   UNL     1       1.520   1.965  -1.327  0.00  0.00    +0.156 HD
ENDROOT
BRANCH   1   7
ATOM      5  C   UNL     1       0.133   1.216   0.442  0.00  0.00    +0.056 C 
ATOM      6  C   UNL     1       0.112  -0.280   0.117  0.00  0.00    +0.220 C 
ATOM      7  C   UNL     1       0.620  -0.506  -1.313  0.00  0.00    +0.299 C 
ATOM      8  O   UNL     1       0.601  -1.913  -1.578  0.00  0.00    -0.472 OA
ATOM      9  C   UNL     1       1.118  -2.724  -0.615  0.00  0.00    +0.163 A 
ATOM     10  C   UNL     1       1.464  -4.028  -0.936  0.00  0.00    +0.049 A 
ATOM     11  C   UNL     1       1.987  -4.864   0.032  0.00  0.00    +0.004 A 
ATOM     12  C   UNL     1       2.166  -4.404   1.323  0.00  0.00    +0.004 A 
ATOM     13  C   UNL     1       1.824  -3.105   1.649  0.00  0.00    +0.049 A 
ATOM     14  C   UNL     1       1.301  -2.260   0.682  0.00  0.00    +0.163 A 
ATOM     15  O   UNL     1       0.977  -0.981   1.018  0.00  0.00    -0.481 OA
ENDBRANCH   1   7
BRANCH   3  16
ATOM     16  C   UNL     1       3.542   1.830  -1.692  0.00  0.00    +0.121 A 
ATOM     17  C   UNL     1       4.653   1.079  -1.907  0.00  0.00    +0.074 A 
ATOM     18  C   UNL     1       5.738   1.960  -2.089  0.00  0.00    +0.101 A 
ATOM     19  N   UNL     1       5.286   3.193  -1.987  0.00  0.00    -0.172 NA
ATOM     20  N   UNL     1       3.908   3.138  -1.744  0.00  0.00    -0.263 N 
ATOM     21  H   UNL     1       3.319   3.899  -1.629  0.00  0.00    +0.190 HD
BRANCH  18  22
ATOM     22  C   UNL     1       7.140   1.567  -2.350  0.00  0.00    +0.039 A 
ATOM     23  C   UNL     1       8.239   2.363  -2.531  0.00  0.00    +0.018 A 
ATOM     24  C   UNL     1       9.459   1.765  -2.763  0.00  0.00    +0.008 A 
ATOM     25  C   UNL     1       9.534   0.410  -2.806  0.00  0.00    +0.046 A 
ATOM     26  S   UNL     1       7.841  -0.068  -2.504  0.00  0.00    -0.095 S 
ENDBRANCH  18  22
ENDBRANCH   3  16
TORSDOF 3
