REMARK  Name = ZINC48866747
REMARK  7 active torsions:
REMARK  status: ('A' for Active; 'I' for Inactive)
REMARK    1  A    between atoms: C_3  and  C_8
REMARK    2  A    between atoms: C_8  and  N_9
REMARK    3  A    between atoms: N_9  and  S_10
REMARK    4  A    between atoms: S_10  and  C_13
REMARK    5  A    between atoms: C_16  and  C_18
REMARK    6  A    between atoms: C_18  and  C_19
REMARK    7  A    between atoms: C_19  and  N_20
REMARK                            x       y       z     vdW  Elec       q    Type
REMARK                         _______ _______ _______ _____ _____    ______ ____
ROOT
ATOM      1  S   UNL     1       5.657   2.916   1.662  0.00  0.00    +0.065 S 
ATOM      2  O   UNL     1       5.758   3.090   3.069  0.00  0.00    -0.153 OA
ATOM      3  O   UNL     1       6.510   2.038   0.940  0.00  0.00    -0.153 OA
ENDROOT
BRANCH   1   4
ATOM      4  C   UNL     1       5.851   4.513   0.942  0.00  0.00    +0.143 A 
ATOM      5  C   UNL     1       5.632   5.731   1.495  0.00  0.00    +0.036 A 
ATOM      6  C   UNL     1       5.854   6.862   0.733  0.00  0.00    +0.013 A 
ATOM      7  C   UNL     1       6.284   6.721  -0.545  0.00  0.00    -0.010 A 
ATOM      8  S   UNL     1       6.394   4.946  -0.703  0.00  0.00    -0.074 S 
BRANCH   7   9
ATOM      9  C   UNL     1       6.594   7.785  -1.565  0.00  0.00    +0.023 C 
BRANCH   9  10
ATOM     10  C   UNL     1       8.067   8.184  -1.455  0.00  0.00    -0.081 C 
BRANCH  10  11
ATOM     11  N   UNL     1       8.369   9.222  -2.450  0.00  0.00    +0.378 N 
ATOM     12  H   UNL     1       8.186   8.864  -3.375  0.00  0.00    -0.090 HD
ATOM     13  H   UNL     1       7.788  10.029  -2.280  0.00  0.00    -0.090 HD
ATOM     14  H   UNL     1       9.340   9.485  -2.377  0.00  0.00    -0.090 HD
ENDBRANCH  10  11
ENDBRANCH   9  10
ENDBRANCH   7   9
ENDBRANCH   1   4
BRANCH   1  15
ATOM     15  N   UNL     1       4.105   2.426   1.356  0.00  0.00    -0.185 NA
ATOM     16  H   UNL     1       3.483   2.300   2.089  0.00  0.00    +0.148 HD
BRANCH  15  17
ATOM     17  C   UNL     1       3.672   2.183  -0.022  0.00  0.00    +0.141 C 
BRANCH  17  20
ATOM     18  C   UNL     1      -0.017   1.378   0.010  0.00  0.00    +0.001 A 
ATOM     19  C   UNL     1       1.171   2.086   0.002  0.00  0.00    +0.005 A 
ATOM     20  C   UNL     1       2.378   1.411  -0.013  0.00  0.00    -0.031 A 
ATOM     21  C   UNL     1       2.397   0.029  -0.022  0.00  0.00    +0.020 A 
ATOM     22  C   UNL     1       1.210  -0.679  -0.014  0.00  0.00    +0.018 A 
ATOM     23  C   UNL     1       0.002  -0.004   0.002  0.00  0.00    +0.015 A 
ATOM     24 BR   UNL     1       1.236  -2.570  -0.025  0.00  0.00    -0.050 Br
ENDBRANCH  17  20
ENDBRANCH  15  17
ENDBRANCH   1  15
TORSDOF 7
