REMARK  Name = ZINC32809737
REMARK  6 active torsions:
REMARK  status: ('A' for Active; 'I' for Inactive)
REMARK    1  A    between atoms: C_4  and  C_7
REMARK    2  A    between atoms: N_16  and  C_17
REMARK    3  A    between atoms: C_17  and  C_18
REMARK    4  A    between atoms: N_20  and  C_21
REMARK    5  A    between atoms: C_26  and  C_27
REMARK    6  A    between atoms: N_29  and  C_30
REMARK                            x       y       z     vdW  Elec       q    Type
REMARK                         _______ _______ _______ _____ _____    ______ ____
ROOT
ATOM      1  C   UNL     1      -3.991  -0.567   0.048  0.00  0.00    +0.201 C 
ATOM      2  O   UNL     1      -4.969   0.150   0.028  0.00  0.00    -0.278 OA
ATOM      3  N   UNL     1      -2.758  -0.027  -0.008  0.00  0.00    -0.286 N 
ATOM      4  H   UNL     1      -1.874  -0.679  -0.067  0.00  0.00    +0.155 HD
ENDROOT
BRANCH   3   5
ATOM      5  C   UNL     1      -2.602   1.357   0.009  0.00  0.00    +0.046 A 
ATOM      6  C   UNL     1      -3.534   2.171  -0.621  0.00  0.00    +0.024 A 
ATOM      7  C   UNL     1      -3.378   3.543  -0.605  0.00  0.00    +0.002 A 
ATOM      8  C   UNL     1      -2.293   4.117   0.038  0.00  0.00    +0.001 A 
ATOM      9  C   UNL     1      -1.362   3.325   0.674  0.00  0.00    +0.015 A 
ATOM     10  C   UNL     1      -1.503   1.935   0.661  0.00  0.00    +0.058 A 
BRANCH  10  11
ATOM     11  C   UNL     1      -0.506   1.082   1.333  0.00  0.00    +0.250 C 
ATOM     12  O   UNL     1      -0.585  -0.129   1.247  0.00  0.00    -0.270 OA
ATOM     13  N   UNL     1       0.496   1.643   2.038  0.00  0.00    -0.281 N 
ATOM     14  H   UNL     1       0.624   2.736   2.037  0.00  0.00    +0.155 HD
BRANCH  13  15
ATOM     15  C   UNL     1       1.373   0.837   2.771  0.00  0.00    +0.034 A 
ATOM     16  C   UNL     1       0.955  -0.404   3.234  0.00  0.00    +0.023 A 
ATOM     17  C   UNL     1       1.824  -1.200   3.953  0.00  0.00    +0.002 A 
ATOM     18  C   UNL     1       3.107  -0.758   4.221  0.00  0.00    +0.000 A 
ATOM     19  C   UNL     1       3.525   0.479   3.766  0.00  0.00    +0.002 A 
ATOM     20  C   UNL     1       2.662   1.277   3.042  0.00  0.00    +0.023 A 
ENDBRANCH  13  15
ENDBRANCH  10  11
ENDBRANCH   3   5
BRANCH   1  21
ATOM     21  C   UNL     1      -4.156  -2.062   0.136  0.00  0.00    +0.020 C 
BRANCH  21  30
ATOM     22  C   UNL     1      -5.795  -3.847   0.032  0.00  0.00    +0.011 C 
ATOM     23  C   UNL     1      -7.263  -4.130   0.234  0.00  0.00    +0.009 A 
ATOM     24  C   UNL     1      -7.946  -5.239  -0.087  0.00  0.00    +0.021 A 
ATOM     25  C   UNL     1      -9.289  -5.030   0.292  0.00  0.00    +0.019 A 
ATOM     26  C   UNL     1      -9.371  -3.796   0.834  0.00  0.00    +0.086 A 
ATOM     27  N   UNL     1      -8.134  -3.238   0.805  0.00  0.00    -0.353 N 
ATOM     28  C   UNL     1      -7.728  -1.912   1.287  0.00  0.00    +0.103 C 
ATOM     29  C   UNL     1      -6.200  -1.899   1.424  0.00  0.00    -0.055 C 
ATOM     30  N   UNL     1      -5.585  -2.396   0.185  0.00  0.00    +0.395 N 
ATOM     31  H   UNL     1      -6.078  -1.891  -0.659  0.00  0.00    -0.080 HD
BRANCH  22  35
ATOM     32  C   UNL     1      -4.613  -5.071  -3.886  0.00  0.00    +0.000 A 
ATOM     33  C   UNL     1      -4.319  -5.867  -2.795  0.00  0.00    +0.000 A 
ATOM     34  C   UNL     1      -4.702  -5.471  -1.527  0.00  0.00    +0.002 A 
ATOM     35  C   UNL     1      -5.378  -4.278  -1.350  0.00  0.00    -0.055 A 
ATOM     36  C   UNL     1      -5.676  -3.484  -2.442  0.00  0.00    +0.002 A 
ATOM     37  C   UNL     1      -5.289  -3.878  -3.709  0.00  0.00    +0.000 A 
ENDBRANCH  22  35
ENDBRANCH  21  30
ENDBRANCH   1  21
TORSDOF 6
