REMARK  Name = ZINC40004538
REMARK  9 active torsions:
REMARK  status: ('A' for Active; 'I' for Inactive)
REMARK    1  A    between atoms: C_1  and  C_2
REMARK    2  A    between atoms: C_2  and  C_3
REMARK    3  A    between atoms: C_6  and  O_9
REMARK    4  A    between atoms: O_9  and  C_10
REMARK    5  A    between atoms: C_11  and  C_21
REMARK    6  A    between atoms: C_22  and  C_23
REMARK    7  A    between atoms: C_22  and  C_25
REMARK    8  A    between atoms: N_27  and  C_28
REMARK    9  A    between atoms: C_29  and  C_37
REMARK                            x       y       z     vdW  Elec       q    Type
REMARK                         _______ _______ _______ _____ _____    ______ ____
ROOT
ATOM      1  C   UNL     1      -6.006  -1.827  -1.125  0.00  0.00    +0.235 A 
ATOM      2  C   UNL     1      -7.281  -2.443  -1.173  0.00  0.00    +0.103 A 
ATOM      3  C   UNL     1      -7.817  -2.781  -2.443  0.00  0.00    +0.269 A 
ATOM      4  O   UNL     1      -8.909  -3.312  -2.534  0.00  0.00    -0.266 OA
ATOM      5  N   UNL     1      -7.093  -2.503  -3.550  0.00  0.00    -0.268 N 
ATOM      6  C   UNL     1      -7.599  -2.824  -4.774  0.00  0.00    +0.096 A 
ATOM      7  C   UNL     1      -6.901  -2.560  -5.902  0.00  0.00    +0.018 A 
ATOM      8  C   UNL     1      -5.643  -1.950  -5.822  0.00  0.00    +0.005 A 
ATOM      9  C   UNL     1      -5.129  -1.625  -4.601  0.00  0.00    +0.047 A 
ATOM     10  C   UNL     1      -5.869  -1.907  -3.440  0.00  0.00    +0.144 A 
ATOM     11  N   UNL     1      -5.359  -1.581  -2.251  0.00  0.00    -0.194 NA
ENDROOT
BRANCH   2  12
ATOM     12  C   UNL     1      -7.996  -2.713   0.007  0.00  0.00    +0.042 C 
ATOM     13  C   UNL     1      -7.421  -3.485   1.007  0.00  0.00    +0.114 C 
BRANCH  13  14
ATOM     14  C   UNL     1      -8.114  -3.663   2.287  0.00  0.00    +0.259 C 
ATOM     15  O   UNL     1      -9.194  -3.133   2.473  0.00  0.00    -0.269 OA
ATOM     16  N   UNL     1      -7.555  -4.413   3.257  0.00  0.00    -0.274 N 
ATOM     17  H   UNL     1      -6.694  -4.835   3.109  0.00  0.00    +0.156 HD
BRANCH  16  18
ATOM     18  C   UNL     1      -8.210  -4.581   4.467  0.00  0.00    +0.090 A 
ATOM     19  C   UNL     1      -7.789  -5.306   5.571  0.00  0.00    +0.084 A 
ATOM     20  C   UNL     1      -8.666  -5.325   6.728  0.00  0.00    -0.018 A 
ATOM     21  C   UNL     1      -9.806  -4.616   6.569  0.00  0.00    -0.004 A 
ATOM     22  S   UNL     1      -9.693  -3.947   4.935  0.00  0.00    -0.077 S 
ATOM     23  C   UNL     1     -10.905  -4.445   7.571  0.00  0.00    +0.043 C 
ATOM     24  C   UNL     1     -10.725  -5.502   8.670  0.00  0.00    +0.005 C 
ATOM     25  C   UNL     1      -9.264  -5.497   9.128  0.00  0.00    +0.005 C 
ATOM     26  C   UNL     1      -8.369  -6.065   8.024  0.00  0.00    +0.037 C 
BRANCH  19  27
ATOM     27  C   UNL     1      -6.540  -6.007   5.570  0.00  0.00    +0.102 C 
ATOM     28  N   UNL     1      -5.550  -6.563   5.569  0.00  0.00    -0.191 NA
ENDBRANCH  19  27
ENDBRANCH  16  18
ENDBRANCH  13  14
BRANCH  13  29
ATOM     29  C   UNL     1      -6.150  -4.109   0.788  0.00  0.00    +0.104 C 
ATOM     30  N   UNL     1      -5.143  -4.603   0.614  0.00  0.00    -0.191 NA
ENDBRANCH  13  29
ENDBRANCH   2  12
BRANCH   1  31
ATOM     31  O   UNL     1      -5.458  -1.487   0.063  0.00  0.00    -0.437 OA
BRANCH  31  35
ATOM     32  C   UNL     1      -1.914   0.624   0.031  0.00  0.00    -0.047 A 
ATOM     33  C   UNL     1      -3.087   1.239  -0.365  0.00  0.00    +0.007 A 
ATOM     34  C   UNL     1      -4.276   0.534  -0.355  0.00  0.00    +0.046 A 
ATOM     35  C   UNL     1      -4.291  -0.792   0.052  0.00  0.00    +0.130 A 
ATOM     36  C   UNL     1      -3.112  -1.407   0.449  0.00  0.00    +0.046 A 
ATOM     37  C   UNL     1      -1.926  -0.700   0.433  0.00  0.00    +0.007 A 
BRANCH  32  39
ATOM     38  C   UNL     1       0.054   1.241  -1.345  0.00  0.00    +0.009 C 
ATOM     39  C   UNL     1      -0.620   1.395   0.020  0.00  0.00    +0.032 C 
ENDBRANCH  32  39
ENDBRANCH  31  35
ENDBRANCH   1  31
TORSDOF 8
