REMARK  Name = ZINC43213997
REMARK  6 active torsions:
REMARK  status: ('A' for Active; 'I' for Inactive)
REMARK    1  A    between atoms: C_4  and  C_7
REMARK    2  A    between atoms: C_7  and  C_8
REMARK    3  A    between atoms: C_7  and  N_14
REMARK    4  A    between atoms: C_20  and  C_22
REMARK    5  A    between atoms: C_25  and  C_27
REMARK    6  A    between atoms: C_32  and  N_33
REMARK                            x       y       z     vdW  Elec       q    Type
REMARK                         _______ _______ _______ _____ _____    ______ ____
ROOT
ATOM      1  N   UNL     1       4.978  -1.532   1.204  0.00  0.00    -0.289 NA
ATOM      2  C   UNL     1       3.788  -2.367   1.418  0.00  0.00    +0.104 C 
ATOM      3  C   UNL     1       3.603  -3.304   0.220  0.00  0.00    +0.123 C 
ATOM      4  N   UNL     1       4.854  -4.048   0.011  0.00  0.00    -0.294 N 
ATOM      5  C   UNL     1       6.110  -3.286  -0.076  0.00  0.00    +0.123 C 
ATOM      6  C   UNL     1       6.196  -2.350   1.134  0.00  0.00    +0.104 C 
ATOM      7  C   UNL     1       4.851  -5.391  -0.099  0.00  0.00    +0.268 C 
ATOM      8  O   UNL     1       3.821  -6.013   0.078  0.00  0.00    -0.268 OA
ENDROOT
BRANCH   7   9
ATOM      9  C   UNL     1       6.096  -6.106  -0.432  0.00  0.00    +0.164 A 
ATOM     10  C   UNL     1       6.271  -7.457  -0.453  0.00  0.00    +0.230 A 
ATOM     11  O   UNL     1       7.546  -7.686  -0.805  0.00  0.00    -0.443 OA
ATOM     12  C   UNL     1       8.148  -6.499  -0.999  0.00  0.00    +0.230 A 
ATOM     13  N   UNL     1       7.281  -5.541  -0.781  0.00  0.00    -0.204 NA
BRANCH  12  14
ATOM     14  C   UNL     1       9.557  -6.307  -1.397  0.00  0.00    +0.057 A 
ATOM     15  C   UNL     1       9.875  -5.481  -2.476  0.00  0.00    +0.015 A 
ATOM     16  C   UNL     1      11.192  -5.304  -2.843  0.00  0.00    +0.001 A 
ATOM     17  C   UNL     1      12.204  -5.943  -2.145  0.00  0.00    +0.002 A 
ATOM     18  C   UNL     1      11.904  -6.764  -1.076  0.00  0.00    +0.023 A 
ATOM     19  C   UNL     1      10.584  -6.948  -0.689  0.00  0.00    +0.037 A 
BRANCH  19  20
ATOM     20  N   UNL     1      10.280  -7.771   0.393  0.00  0.00    -0.357 N 
ATOM     21  H   UNL     1       9.354  -7.949   0.621  0.00  0.00    +0.142 HD
ATOM     22  H   UNL     1      10.993  -8.165   0.917  0.00  0.00    +0.142 HD
ENDBRANCH  19  20
ENDBRANCH  12  14
ENDBRANCH   7   9
BRANCH   1  23
ATOM     23  C   UNL     1       5.093  -0.503   2.246  0.00  0.00    +0.117 C 
BRANCH  23  27
ATOM     24  C   UNL     1       8.681   1.736   1.642  0.00  0.00    +0.000 A 
ATOM     25  C   UNL     1       8.354   1.282   2.906  0.00  0.00    +0.000 A 
ATOM     26  C   UNL     1       7.193   0.558   3.102  0.00  0.00    +0.005 A 
ATOM     27  C   UNL     1       6.359   0.287   2.033  0.00  0.00    -0.026 A 
ATOM     28  C   UNL     1       6.685   0.742   0.769  0.00  0.00    +0.005 A 
ATOM     29  C   UNL     1       7.847   1.465   0.573  0.00  0.00    +0.000 A 
ENDBRANCH  23  27
BRANCH  23  30
ATOM     30  C   UNL     1       3.905   0.421   2.174  0.00  0.00    -0.026 A 
ATOM     31  C   UNL     1       3.501   0.932   0.955  0.00  0.00    +0.005 A 
ATOM     32  C   UNL     1       2.411   1.780   0.888  0.00  0.00    +0.000 A 
ATOM     33  C   UNL     1       1.726   2.116   2.040  0.00  0.00    +0.000 A 
ATOM     34  C   UNL     1       2.129   1.604   3.259  0.00  0.00    +0.000 A 
ATOM     35  C   UNL     1       3.216   0.753   3.325  0.00  0.00    +0.005 A 
ENDBRANCH  23  30
ENDBRANCH   1  23
TORSDOF 6
