REMARK  Name = ZINC40423154
REMARK  16 active torsions:
REMARK  status: ('A' for Active; 'I' for Inactive)
REMARK    1  A    between atoms: C_1  and  C_2
REMARK    2  A    between atoms: C_2  and  C_3
REMARK    3  A    between atoms: C_2  and  S_4
REMARK    4  A    between atoms: S_4  and  C_5
REMARK    5  A    between atoms: C_7  and  C_18
REMARK    6  A    between atoms: C_10  and  C_11
REMARK    7  A    between atoms: N_13  and  S_14
REMARK    8  A    between atoms: S_14  and  C_17
REMARK    9  A    between atoms: C_21  and  C_24
REMARK   10  A    between atoms: C_24  and  C_25
REMARK   11  A    between atoms: C_25  and  N_26
REMARK   12  A    between atoms: N_26  and  C_27
REMARK   13  A    between atoms: C_27  and  C_28
REMARK   14  A    between atoms: C_28  and  C_30
REMARK   15  A    between atoms: C_28  and  O_37
REMARK   16  A    between atoms: C_35  and  N_36
REMARK                            x       y       z     vdW  Elec       q    Type
REMARK                         _______ _______ _______ _____ _____    ______ ____
ROOT
ATOM      1  C   UNL     1      -3.358   1.182   3.632  0.00  0.00    -0.018 A 
ATOM      2  C   UNL     1      -3.881   1.401   2.359  0.00  0.00    +0.009 A 
ATOM      3  C   UNL     1      -5.150   1.925   2.219  0.00  0.00    +0.004 A 
ATOM      4  C   UNL     1      -5.902   2.233   3.338  0.00  0.00    -0.049 A 
ATOM      5  C   UNL     1      -5.387   2.018   4.604  0.00  0.00    +0.004 A 
ATOM      6  C   UNL     1      -4.122   1.489   4.757  0.00  0.00    +0.009 A 
ENDROOT
BRANCH   1   9
ATOM      7  C   UNL     1       0.039  -0.214   2.812  0.00  0.00    +0.021 A 
ATOM      8  C   UNL     1      -1.236   0.313   2.665  0.00  0.00    +0.024 A 
ATOM      9  C   UNL     1      -1.995   0.618   3.790  0.00  0.00    -0.017 A 
ATOM     10  C   UNL     1      -1.476   0.395   5.068  0.00  0.00    +0.009 A 
ATOM     11  C   UNL     1      -0.213  -0.127   5.221  0.00  0.00    +0.015 A 
ATOM     12  C   UNL     1       0.555  -0.443   4.098  0.00  0.00    +0.056 A 
BRANCH  12  13
ATOM     13  C   UNL     1       1.907  -1.010   4.262  0.00  0.00    +0.296 C 
ATOM     14  O   UNL     1       2.403  -1.229   5.501  0.00  0.00    -0.264 OA
ATOM     15  N   UNL     1       2.624  -1.298   3.214  0.00  0.00    -0.091 NA
BRANCH  15  16
ATOM     16  S   UNL     1       4.142  -1.934   3.398  0.00  0.00    +0.070 S 
ATOM     17  O   UNL     1       4.886  -0.913   4.049  0.00  0.00    -0.152 OA
ATOM     18  O   UNL     1       3.934  -3.192   4.026  0.00  0.00    -0.152 OA
ATOM     19  C   UNL     1       4.755  -2.173   1.708  0.00  0.00    +0.223 C 
ENDBRANCH  15  16
ENDBRANCH  12  13
BRANCH   7  20
ATOM     20  S   UNL     1       1.004  -0.603   1.390  0.00  0.00    -0.122 S 
BRANCH  20  22
ATOM     21  C   UNL     1       0.014   1.545   0.017  0.00  0.00    +0.019 C 
ATOM     22  C   UNL     1       0.012   0.015   0.003  0.00  0.00    +0.045 C 
ATOM     23  C   UNL     1       0.609  -0.484  -1.314  0.00  0.00    +0.019 C 
ENDBRANCH  20  22
ENDBRANCH   7  20
ENDBRANCH   1   9
BRANCH   4  24
ATOM     24  C   UNL     1      -7.287   2.805   3.178  0.00  0.00    +0.016 C 
BRANCH  24  25
ATOM     25  C   UNL     1      -8.306   1.665   3.121  0.00  0.00    -0.078 C 
BRANCH  25  26
ATOM     26  N   UNL     1      -9.656   2.223   2.965  0.00  0.00    +0.381 N 
ATOM     27  H   UNL     1      -9.865   2.822   3.749  0.00  0.00    -0.086 HD
ATOM     28  H   UNL     1      -9.702   2.759   2.111  0.00  0.00    -0.086 HD
BRANCH  26  29
ATOM     29  C   UNL     1     -10.635   1.129   2.910  0.00  0.00    -0.046 C 
BRANCH  29  30
ATOM     30  C   UNL     1     -12.041   1.710   2.747  0.00  0.00    +0.131 C 
BRANCH  30  31
ATOM     31  C   UNL     1     -13.045   0.587   2.691  0.00  0.00    +0.016 A 
ATOM     32  C   UNL     1     -13.709   0.185   3.831  0.00  0.00    +0.090 A 
ATOM     33  N   UNL     1     -14.590  -0.797   3.790  0.00  0.00    -0.367 N 
ATOM     34  C   UNL     1     -14.874  -1.433   2.669  0.00  0.00    +0.084 A 
ATOM     35  C   UNL     1     -14.254  -1.092   1.486  0.00  0.00    +0.040 A 
ATOM     36  C   UNL     1     -13.320  -0.055   1.485  0.00  0.00    +0.033 A 
ATOM     37  H   UNL     1     -15.041  -1.058   4.608  0.00  0.00    +0.165 HD
BRANCH  36  38
ATOM     38  N   UNL     1     -12.676   0.324   0.311  0.00  0.00    -0.358 N 
ATOM     39  H   UNL     1     -12.026   1.044   0.325  0.00  0.00    +0.142 HD
ATOM     40  H   UNL     1     -12.877  -0.132  -0.522  0.00  0.00    +0.142 HD
ENDBRANCH  36  38
ENDBRANCH  30  31
BRANCH  30  41
ATOM     41  O   UNL     1     -12.337   2.559   3.858  0.00  0.00    -0.389 OA
ATOM     42  H   UNL     1     -12.311   2.110   4.714  0.00  0.00    +0.210 HD
ENDBRANCH  30  41
ENDBRANCH  29  30
ENDBRANCH  26  29
ENDBRANCH  25  26
ENDBRANCH  24  25
ENDBRANCH   4  24
TORSDOF 13
