REMARK  Name = ZINC20467724
REMARK  6 active torsions:
REMARK  status: ('A' for Active; 'I' for Inactive)
REMARK    1  A    between atoms: C_1  and  C_2
REMARK    2  A    between atoms: C_2  and  O_3
REMARK    3  A    between atoms: O_3  and  C_4
REMARK    4  A    between atoms: C_8  and  C_10
REMARK    5  A    between atoms: C_24  and  O_25
REMARK    6  A    between atoms: O_25  and  C_26
REMARK                            x       y       z     vdW  Elec       q    Type
REMARK                         _______ _______ _______ _____ _____    ______ ____
ROOT
ATOM      1  C   UNL     1      -0.076   5.326   0.032  0.00  0.00    +0.145 A 
ATOM      2  N   UNL     1      -1.276   5.973   0.041  0.00  0.00    -0.307 N 
ATOM      3  H   UNL     1      -2.212   5.396   0.039  0.00  0.00    +0.170 HD
ATOM      4  C   UNL     1      -1.313   7.322   0.053  0.00  0.00    +0.259 A 
ATOM      5  O   UNL     1      -2.380   7.914   0.064  0.00  0.00    -0.267 OA
ATOM      6  C   UNL     1      -0.102   8.031   0.045  0.00  0.00    +0.083 A 
ATOM      7  C   UNL     1       1.085   7.328   0.032  0.00  0.00    +0.231 A 
ATOM      8  N   UNL     1       1.059   5.988   0.025  0.00  0.00    -0.194 NA
ATOM      9  O   UNL     1       2.272   7.968   0.028  0.00  0.00    -0.434 OA
ATOM     10  C   UNL     1       2.347   9.264  -0.362  0.00  0.00    +0.175 A 
ATOM     11  C   UNL     1       1.224  10.073  -0.373  0.00  0.00    +0.004 A 
ATOM     12  C   UNL     1       1.327  11.393  -0.776  0.00  0.00    +0.023 A 
ATOM     13  C   UNL     1       2.549  11.910  -1.168  0.00  0.00    +0.022 A 
ATOM     14  C   UNL     1       3.675  11.108  -1.158  0.00  0.00    +0.064 A 
ATOM     15  C   UNL     1       3.579   9.786  -0.756  0.00  0.00    +0.164 A 
ATOM     16 BR   UNL     1       2.679  13.715  -1.717  0.00  0.00    -0.050 Br
ATOM     17  C   UNL     1      -0.115   9.534   0.052  0.00  0.00    +0.085 C 
ENDROOT
BRANCH   1  22
ATOM     18  C   UNL     1       1.182   1.784   0.000  0.00  0.00    +0.121 A 
ATOM     19  C   UNL     1      -0.013   1.076   0.008  0.00  0.00    +0.045 A 
ATOM     20  C   UNL     1      -1.221   1.748   0.017  0.00  0.00    +0.004 A 
ATOM     21  C   UNL     1      -1.247   3.128   0.031  0.00  0.00    +0.012 A 
ATOM     22  C   UNL     1      -0.051   3.848   0.023  0.00  0.00    +0.021 A 
ATOM     23  C   UNL     1       1.167   3.168   0.008  0.00  0.00    +0.057 A 
BRANCH  18  24
ATOM     24  O   UNL     1       2.366   1.117  -0.014  0.00  0.00    -0.492 OA
BRANCH  24  26
ATOM     25  C   UNL     1       3.728  -0.879  -0.037  0.00  0.00    +0.048 C 
ATOM     26  C   UNL     1       2.308  -0.310  -0.021  0.00  0.00    +0.225 C 
ENDBRANCH  24  26
ENDBRANCH  18  24
ENDBRANCH   1  22
BRANCH  15  27
ATOM     27  O   UNL     1       4.686   8.997  -0.747  0.00  0.00    -0.491 OA
ATOM     28  C   UNL     1       5.914   9.597  -1.163  0.00  0.00    +0.277 C 
ENDBRANCH  15  27
TORSDOF 4
