REMARK  Name = ZINC33787370
REMARK  14 active torsions:
REMARK  status: ('A' for Active; 'I' for Inactive)
REMARK    1  A    between atoms: C_1  and  C_2
REMARK    2  A    between atoms: N_8  and  C_35
REMARK    3  A    between atoms: N_10  and  C_11
REMARK    4  A    between atoms: C_11  and  C_13
REMARK    5  A    between atoms: C_13  and  C_14
REMARK    6  A    between atoms: C_14  and  C_15
REMARK    7  A    between atoms: C_15  and  C_16
REMARK    8  A    between atoms: C_16  and  C_17
REMARK    9  A    between atoms: C_17  and  C_18
REMARK   10  A    between atoms: C_18  and  C_19
REMARK   11  A    between atoms: C_19  and  C_20
REMARK   12  A    between atoms: C_20  and  N_22
REMARK   13  A    between atoms: N_24  and  C_33
REMARK   14  A    between atoms: C_26  and  C_32
REMARK                            x       y       z     vdW  Elec       q    Type
REMARK                         _______ _______ _______ _____ _____    ______ ____
ROOT
ATOM      1  C   UNL     1       4.067   5.202   4.732  0.00  0.00    +0.000 C 
ENDROOT
BRANCH   1   2
ATOM      2  C   UNL     1       4.225   3.778   4.197  0.00  0.00    +0.000 C 
BRANCH   2   3
ATOM      3  C   UNL     1       4.136   3.793   2.670  0.00  0.00    +0.009 C 
BRANCH   3   4
ATOM      4  C   UNL     1       4.295   2.369   2.135  0.00  0.00    +0.098 C 
BRANCH   4   5
ATOM      5  C   UNL     1       4.207   2.384   0.631  0.00  0.00    +0.238 C 
ATOM      6  O   UNL     1       4.035   3.435   0.043  0.00  0.00    -0.274 OA
BRANCH   5  16
ATOM      7  C   UNL     1       8.515   3.780  -2.214  0.00  0.00    +0.046 C 
ATOM      8  C   UNL     1       8.131   2.492  -2.896  0.00  0.00    -0.026 A 
ATOM      9  C   UNL     1       8.851   2.055  -3.983  0.00  0.00    +0.005 A 
ATOM     10  C   UNL     1       8.524   0.877  -4.633  0.00  0.00    +0.001 A 
ATOM     11  C   UNL     1       7.455   0.126  -4.178  0.00  0.00    +0.017 A 
ATOM     12  C   UNL     1       6.735   0.561  -3.091  0.00  0.00    +0.039 A 
ATOM     13  C   UNL     1       7.046   1.748  -2.412  0.00  0.00    +0.060 A 
ATOM     14  N   UNL     1       6.212   2.014  -1.342  0.00  0.00    -0.324 N 
ATOM     15  C   UNL     1       5.209   1.152  -1.038  0.00  0.00    +0.166 A 
ATOM     16  N   UNL     1       4.319   1.250  -0.053  0.00  0.00    -0.156 NA
ATOM     17  S   UNL     1       5.335  -0.060  -2.196  0.00  0.00    -0.052 S 
ATOM     18  C   UNL     1       6.412   3.222  -0.539  0.00  0.00    +0.151 C 
ENDBRANCH   5  16
ENDBRANCH   4   5
ENDBRANCH   3   4
ENDBRANCH   2   3
ENDBRANCH   1   2
BRANCH   1  19
ATOM     19  C   UNL     1       4.156   5.186   6.260  0.00  0.00    +0.000 C 
BRANCH  19  20
ATOM     20  C   UNL     1       3.997   6.611   6.795  0.00  0.00    +0.009 C 
BRANCH  20  21
ATOM     21  C   UNL     1       4.086   6.595   8.322  0.00  0.00    +0.098 C 
BRANCH  21  22
ATOM     22  C   UNL     1       3.930   7.999   8.849  0.00  0.00    +0.238 C 
ATOM     23  O   UNL     1       3.763   8.923   8.076  0.00  0.00    -0.274 OA
BRANCH  22  24
ATOM     24  N   UNL     1       3.974   8.226  10.157  0.00  0.00    -0.156 NA
ATOM     25  C   UNL     1       3.836   9.465  10.623  0.00  0.00    +0.166 A 
ATOM     26  N   UNL     1       3.860   9.876  11.916  0.00  0.00    -0.324 N 
ATOM     27  C   UNL     1       3.699  11.216  12.215  0.00  0.00    +0.060 A 
ATOM     28  C   UNL     1       3.691  11.850  13.465  0.00  0.00    -0.026 A 
ATOM     29  C   UNL     1       3.514  13.210  13.559  0.00  0.00    +0.005 A 
ATOM     30  C   UNL     1       3.339  13.991  12.429  0.00  0.00    +0.001 A 
ATOM     31  C   UNL     1       3.344  13.390  11.182  0.00  0.00    +0.017 A 
ATOM     32  C   UNL     1       3.520  12.030  11.086  0.00  0.00    +0.039 A 
ATOM     33  S   UNL     1       3.599  10.877   9.741  0.00  0.00    -0.052 S 
ATOM     34  C   UNL     1       3.878  11.032  14.717  0.00  0.00    +0.046 C 
ATOM     35  C   UNL     1       4.057   8.902  12.992  0.00  0.00    +0.151 C 
ENDBRANCH  22  24
ENDBRANCH  21  22
ENDBRANCH  20  21
ENDBRANCH  19  20
ENDBRANCH   1  19
TORSDOF 10
