REMARK  Name = ZINC35577390
REMARK  3 active torsions:
REMARK  status: ('A' for Active; 'I' for Inactive)
REMARK    1  A    between atoms: C_3  and  C_6
REMARK    2  A    between atoms: C_8  and  N_27
REMARK    3  A    between atoms: N_9  and  C_20
REMARK                            x       y       z     vdW  Elec       q    Type
REMARK                         _______ _______ _______ _____ _____    ______ ____
ROOT
ATOM      1  C   UNL     1       3.567   0.647   0.006  0.00  0.00    +0.124 A 
ATOM      2  C   UNL     1       4.279  -0.325   0.751  0.00  0.00    +0.089 A 
ATOM      3  C   UNL     1       3.941  -1.372   1.597  0.00  0.00    +0.131 A 
ATOM      4  N   UNL     1       5.088  -1.947   2.010  0.00  0.00    -0.216 N 
ATOM      5  N   UNL     1       6.183  -1.285   1.442  0.00  0.00    -0.144 NA
ATOM      6  C   UNL     1       5.750  -0.304   0.679  0.00  0.00    +0.189 A 
ATOM      7  N   UNL     1       6.331   0.637  -0.091  0.00  0.00    -0.193 NA
ATOM      8  C   UNL     1       5.593   1.506  -0.752  0.00  0.00    +0.220 A 
ATOM      9  N   UNL     1       4.264   1.517  -0.720  0.00  0.00    -0.210 NA
ATOM     10  N   UNL     1       6.236   2.453  -1.529  0.00  0.00    -0.300 N 
ATOM     11  C   UNL     1       5.577   3.498  -2.326  0.00  0.00    +0.108 C 
ATOM     12  C   UNL     1       6.688   4.298  -3.039  0.00  0.00    +0.020 C 
ATOM     13  C   UNL     1       7.879   3.303  -3.052  0.00  0.00    +0.020 C 
ATOM     14  C   UNL     1       7.695   2.585  -1.689  0.00  0.00    +0.108 C 
ENDROOT
BRANCH   4  15
ATOM     15  C   UNL     1       5.172  -3.042   2.878  0.00  0.00    +0.068 A 
ATOM     16  C   UNL     1       4.249  -3.189   3.905  0.00  0.00    +0.029 A 
ATOM     17  C   UNL     1       4.334  -4.271   4.759  0.00  0.00    +0.022 A 
ATOM     18  C   UNL     1       5.339  -5.208   4.593  0.00  0.00    +0.041 A 
ATOM     19  C   UNL     1       6.261  -5.064   3.571  0.00  0.00    +0.022 A 
ATOM     20  C   UNL     1       6.176  -3.987   2.710  0.00  0.00    +0.029 A 
ATOM     21 CL   UNL     1       5.444  -6.565   5.670  0.00  0.00    -0.084 Cl
ENDBRANCH   4  15
BRANCH   1  24
ATOM     22  C   UNL     1      -0.037   0.836  -0.574  0.00  0.00    +0.042 A 
ATOM     23  C   UNL     1       1.284   0.863  -1.053  0.00  0.00    +0.051 A 
ATOM     24  C   UNL     1       2.097   0.689   0.028  0.00  0.00    +0.154 A 
ATOM     25  O   UNL     1       1.318   0.561   1.121  0.00  0.00    -0.461 OA
ATOM     26  C   UNL     1       0.029   0.650   0.762  0.00  0.00    +0.196 A 
ENDBRANCH   1  24
BRANCH   3  27
ATOM     27  N   UNL     1       2.660  -1.757   1.951  0.00  0.00    -0.342 N 
ATOM     28  H   UNL     1       1.894  -1.335   1.532  0.00  0.00    +0.144 HD
ATOM     29  H   UNL     1       2.529  -2.448   2.618  0.00  0.00    +0.144 HD
ENDBRANCH   3  27
TORSDOF 3
