REMARK  Name = ZINC20235318
REMARK  8 active torsions:
REMARK  status: ('A' for Active; 'I' for Inactive)
REMARK    1  A    between atoms: C_4  and  C_7
REMARK    2  A    between atoms: C_7  and  S_8
REMARK    3  A    between atoms: S_8  and  N_11
REMARK    4  A    between atoms: N_11  and  C_12
REMARK    5  A    between atoms: C_12  and  C_13
REMARK    6  A    between atoms: N_18  and  C_20
REMARK    7  A    between atoms: C_20  and  C_21
REMARK    8  A    between atoms: C_26  and  C_27
REMARK                            x       y       z     vdW  Elec       q    Type
REMARK                         _______ _______ _______ _____ _____    ______ ____
ROOT
ATOM      1  C   UNL     1       0.169   6.531  -0.366  0.00  0.00    -0.012 C 
ATOM      2  C   UNL     1       0.931   7.256   0.746  0.00  0.00    +0.001 C 
ATOM      3  C   UNL     1       1.830   6.254   1.476  0.00  0.00    -0.018 C 
ATOM      4  C   UNL     1       2.783   5.604   0.469  0.00  0.00    -0.078 C 
ATOM      5  N   UNL     1       2.006   4.923  -0.574  0.00  0.00    +0.383 N 
ATOM      6  C   UNL     1       1.170   5.874  -1.319  0.00  0.00    -0.074 C 
ATOM      7  H   UNL     1       1.335   4.206  -0.078  0.00  0.00    -0.081 HD
ENDROOT
BRANCH   1   8
ATOM      8  C   UNL     1      -0.686   7.537  -1.139  0.00  0.00    +0.107 C 
BRANCH   8   9
ATOM      9  N   UNL     1      -1.722   8.079  -0.255  0.00  0.00    -0.194 NA
ATOM     10  H   UNL     1      -2.063   7.496   0.613  0.00  0.00    +0.148 HD
BRANCH   9  11
ATOM     11  S   UNL     1      -2.552   9.443  -0.692  0.00  0.00    +0.033 S 
ATOM     12  O   UNL     1      -3.441   9.688   0.390  0.00  0.00    -0.158 OA
ATOM     13  O   UNL     1      -1.546  10.387  -1.031  0.00  0.00    -0.158 OA
BRANCH  11  14
ATOM     14  C   UNL     1      -3.487   8.966  -2.172  0.00  0.00    +0.220 C 
BRANCH  14  18
ATOM     15  C   UNL     1      -5.760  12.307  -3.558  0.00  0.00    +0.000 A 
ATOM     16  C   UNL     1      -4.473  12.105  -4.023  0.00  0.00    +0.000 A 
ATOM     17  C   UNL     1      -3.738  11.025  -3.574  0.00  0.00    +0.005 A 
ATOM     18  C   UNL     1      -4.289  10.145  -2.661  0.00  0.00    -0.025 A 
ATOM     19  C   UNL     1      -5.577  10.344  -2.200  0.00  0.00    +0.005 A 
ATOM     20  C   UNL     1      -6.310  11.428  -2.645  0.00  0.00    +0.000 A 
ENDBRANCH  14  18
ENDBRANCH  11  14
ENDBRANCH   9  11
ENDBRANCH   8   9
ENDBRANCH   1   8
BRANCH   5  21
ATOM     21  C   UNL     1       2.885   4.172  -1.480  0.00  0.00    -0.039 C 
BRANCH  21  22
ATOM     22  C   UNL     1       3.890   3.393  -0.672  0.00  0.00    -0.019 A 
ATOM     23  C   UNL     1       5.173   3.749  -0.442  0.00  0.00    +0.107 A 
ATOM     24  N   UNL     1       5.741   2.791   0.322  0.00  0.00    -0.284 N 
ATOM     25  H   UNL     1       6.794   2.882   0.626  0.00  0.00    +0.188 HD
ATOM     26  N   UNL     1       4.776   1.809   0.579  0.00  0.00    -0.174 NA
ATOM     27  C   UNL     1       3.660   2.164  -0.023  0.00  0.00    +0.094 A 
BRANCH  27  28
ATOM     28  C   UNL     1       2.384   1.408  -0.014  0.00  0.00    +0.002 A 
ATOM     29  C   UNL     1       1.168   2.088   0.002  0.00  0.00    +0.010 A 
ATOM     30  C   UNL     1      -0.017   1.379   0.010  0.00  0.00    +0.001 A 
ATOM     31  C   UNL     1       0.002  -0.004   0.002  0.00  0.00    +0.000 A 
ATOM     32  C   UNL     1       1.206  -0.684  -0.013  0.00  0.00    +0.001 A 
ATOM     33  C   UNL     1       2.397   0.014  -0.021  0.00  0.00    +0.010 A 
ENDBRANCH  27  28
ENDBRANCH  21  22
ENDBRANCH   5  21
TORSDOF 8
