REMARK  Name = ZINC20744699
REMARK  6 active torsions:
REMARK  status: ('A' for Active; 'I' for Inactive)
REMARK    1  A    between atoms: C_1  and  C_2
REMARK    2  A    between atoms: C_2  and  C_4
REMARK    3  A    between atoms: C_2  and  N_8
REMARK    4  A    between atoms: C_4  and  O_6
REMARK    5  A    between atoms: O_6  and  C_7
REMARK    6  A    between atoms: C_20  and  C_22
REMARK                            x       y       z     vdW  Elec       q    Type
REMARK                         _______ _______ _______ _____ _____    ______ ____
ROOT
ATOM      1  N   UNL     1      -1.458  -0.334  -2.471  0.00  0.00    -0.286 N 
ATOM      2  C   UNL     1      -1.991  -0.614  -1.265  0.00  0.00    +0.304 C 
ATOM      3  O   UNL     1      -1.303  -0.542  -0.265  0.00  0.00    -0.253 OA
ATOM      4  N   UNL     1      -3.286  -0.972  -1.168  0.00  0.00    -0.273 N 
ATOM      5  C   UNL     1      -3.916  -1.176   0.145  0.00  0.00    +0.116 C 
ATOM      6  C   UNL     1      -4.329  -2.647   0.284  0.00  0.00    +0.076 C 
ATOM      7  C   UNL     1      -5.008  -3.083  -0.990  0.00  0.00    +0.066 A 
ATOM      8  C   UNL     1      -4.908  -2.433  -2.170  0.00  0.00    +0.064 A 
ATOM      9  N   UNL     1      -5.649  -3.125  -3.076  0.00  0.00    -0.346 N 
ATOM     10  H   UNL     1      -5.769  -2.903  -4.013  0.00  0.00    +0.167 HD
ATOM     11  C   UNL     1      -6.186  -4.181  -2.423  0.00  0.00    +0.197 A 
ATOM     12  N   UNL     1      -5.796  -4.147  -1.175  0.00  0.00    -0.240 NA
ATOM     13  C   UNL     1      -4.111  -1.164  -2.375  0.00  0.00    +0.159 C 
ATOM     14  H   UNL     1      -1.985  -0.461  -3.276  0.00  0.00    +0.151 HD
ENDROOT
BRANCH  13  15
ATOM     15  C   UNL     1      -5.041   0.008  -2.553  0.00  0.00    +0.017 A 
ATOM     16  C   UNL     1      -6.379  -0.116  -2.229  0.00  0.00    +0.011 A 
ATOM     17  C   UNL     1      -7.234   0.958  -2.391  0.00  0.00    +0.042 A 
ATOM     18  C   UNL     1      -6.751   2.160  -2.879  0.00  0.00    +0.161 A 
ATOM     19  C   UNL     1      -5.410   2.287  -3.205  0.00  0.00    +0.194 A 
ATOM     20  C   UNL     1      -4.553   1.210  -3.036  0.00  0.00    +0.167 A 
ATOM     21  F   UNL     1      -3.244   1.333  -3.348  0.00  0.00    -0.202 F 
ATOM     22  F   UNL     1      -4.938   3.459  -3.682  0.00  0.00    -0.199 F 
ATOM     23  F   UNL     1      -7.588   3.209  -3.038  0.00  0.00    -0.202 F 
ENDBRANCH  13  15
BRANCH   1  25
ATOM     24  C   UNL     1       0.886  -1.024  -2.576  0.00  0.00    +0.040 C 
ATOM     25  C   UNL     1      -0.082   0.161  -2.567  0.00  0.00    +0.180 C 
BRANCH  25  26
ATOM     26  C   UNL     1       0.079   0.952  -3.840  0.00  0.00    +0.327 C 
ATOM     27  O   UNL     1      -0.858   1.088  -4.589  0.00  0.00    -0.249 OA
BRANCH  26  28
ATOM     28  O   UNL     1       1.265   1.505  -4.140  0.00  0.00    -0.467 OA
ATOM     29  C   UNL     1       1.346   2.241  -5.362  0.00  0.00    +0.280 C 
ENDBRANCH  26  28
ENDBRANCH  25  26
ENDBRANCH   1  25
TORSDOF 4
