REMARK  Name = ZINC00034539
REMARK  8 active torsions:
REMARK  status: ('A' for Active; 'I' for Inactive)
REMARK    1  A    between atoms: C_1  and  C_2
REMARK    2  A    between atoms: C_2  and  O_3
REMARK    3  A    between atoms: O_3  and  C_4
REMARK    4  A    between atoms: C_9  and  O_10
REMARK    5  A    between atoms: O_10  and  C_11
REMARK    6  A    between atoms: C_11  and  C_12
REMARK    7  A    between atoms: C_13  and  C_17
REMARK    8  A    between atoms: C_21  and  O_23
REMARK                            x       y       z     vdW  Elec       q    Type
REMARK                         _______ _______ _______ _____ _____    ______ ____
ROOT
ATOM      1  C   UNL     1      -2.158   2.426   3.463  0.00  0.00    +0.162 A 
ATOM      2  C   UNL     1      -0.776   2.483   3.449  0.00  0.00    +0.053 A 
ATOM      3  C   UNL     1      -0.067   2.055   2.336  0.00  0.00    -0.044 A 
ATOM      4  C   UNL     1      -0.740   1.567   1.236  0.00  0.00    -0.050 A 
ATOM      5  C   UNL     1      -2.127   1.508   1.245  0.00  0.00    +0.052 A 
ATOM      6  C   UNL     1      -2.838   1.935   2.352  0.00  0.00    +0.162 A 
ATOM      7  C   UNL     1      -0.013   1.086   0.008  0.00  0.00    -0.010 C 
ATOM      8  C   UNL     1       2.034   1.264   1.267  0.00  0.00    -0.077 C 
ATOM      9  C   UNL     1       1.438   2.140   2.368  0.00  0.00    +0.016 C 
ATOM     10  N   UNL     1       1.367   1.591  -0.006  0.00  0.00    +0.386 N 
ATOM     11  H   UNL     1       1.355   2.610  -0.132  0.00  0.00    -0.085 HD
ATOM     12  H   UNL     1       1.881   1.156  -0.782  0.00  0.00    -0.085 HD
ENDROOT
BRANCH   7  13
ATOM     13  C   UNL     1      -0.732   1.580  -1.220  0.00  0.00    -0.054 A 
ATOM     14  C   UNL     1      -0.535   2.876  -1.662  0.00  0.00    +0.002 A 
ATOM     15  C   UNL     1      -1.193   3.332  -2.789  0.00  0.00    +0.004 A 
ATOM     16  C   UNL     1      -2.049   2.494  -3.477  0.00  0.00    +0.045 A 
ATOM     17  C   UNL     1      -2.248   1.194  -3.037  0.00  0.00    +0.117 A 
ATOM     18  C   UNL     1      -1.583   0.737  -1.908  0.00  0.00    +0.047 A 
BRANCH  17  19
ATOM     19  O   UNL     1      -3.090   0.368  -3.712  0.00  0.00    -0.507 OA
ATOM     20  H   UNL     1      -2.661  -0.145  -4.411  0.00  0.00    +0.292 HD
ENDBRANCH  17  19
ENDBRANCH   7  13
BRANCH   1  21
ATOM     21  O   UNL     1      -2.849   2.846   4.556  0.00  0.00    -0.489 OA
BRANCH  21  23
ATOM     22  C   UNL     1      -3.025   3.760   6.787  0.00  0.00    +0.048 C 
ATOM     23  C   UNL     1      -2.082   3.337   5.658  0.00  0.00    +0.226 C 
ENDBRANCH  21  23
ENDBRANCH   1  21
BRANCH   6  24
ATOM     24  O   UNL     1      -4.197   1.875   2.355  0.00  0.00    -0.489 OA
BRANCH  24  25
ATOM     25  C   UNL     1      -4.826   1.360   1.180  0.00  0.00    +0.226 C 
ATOM     26  C   UNL     1      -6.345   1.370   1.369  0.00  0.00    +0.048 C 
ENDBRANCH  24  25
ENDBRANCH   6  24
TORSDOF 6
