REMARK  Name = ZINC40612894
REMARK  8 active torsions:
REMARK  status: ('A' for Active; 'I' for Inactive)
REMARK    1  A    between atoms: C_1  and  C_2
REMARK    2  A    between atoms: C_9  and  N_25
REMARK    3  A    between atoms: C_10  and  N_14
REMARK    4  A    between atoms: N_14  and  C_15
REMARK    5  A    between atoms: C_17  and  C_23
REMARK    6  A    between atoms: C_17  and  C_24
REMARK    7  A    between atoms: C_19  and  C_21
REMARK    8  A    between atoms: C_19  and  C_22
REMARK                            x       y       z     vdW  Elec       q    Type
REMARK                         _______ _______ _______ _____ _____    ______ ____
ROOT
ATOM      1  C   UNL     1      -1.184  -0.474  -2.592  0.00  0.00    +0.007 C 
ATOM      2  C   UNL     1      -0.587  -1.122  -1.341  0.00  0.00    -0.011 C 
ATOM      3  C   UNL     1      -0.469  -2.632  -1.556  0.00  0.00    +0.022 C 
ATOM      4  C   UNL     1       0.160  -3.273  -0.316  0.00  0.00    +0.107 C 
ATOM      5  N   UNL     1      -0.626  -2.891   0.865  0.00  0.00    -0.313 N 
ATOM      6  C   UNL     1      -0.877  -1.465   1.116  0.00  0.00    +0.107 C 
ATOM      7  C   UNL     1      -1.495  -0.845  -0.141  0.00  0.00    +0.022 C 
ATOM      8  C   UNL     1      -1.123  -3.857   1.726  0.00  0.00    +0.157 A 
ATOM      9  C   UNL     1      -0.334  -4.357   2.757  0.00  0.00    +0.205 A 
ATOM     10  C   UNL     1      -0.879  -5.325   3.594  0.00  0.00    +0.155 A 
ATOM     11  N   UNL     1      -2.128  -5.736   3.380  0.00  0.00    -0.218 NA
ATOM     12  C   UNL     1      -2.843  -5.239   2.392  0.00  0.00    +0.225 A 
ATOM     13  N   UNL     1      -2.365  -4.317   1.581  0.00  0.00    -0.218 NA
ENDROOT
BRANCH   9  14
ATOM     14  N   UNL     1       1.050  -3.871   2.958  0.00  0.00    +0.063 N 
ATOM     15  O   UNL     1       1.269  -2.977   3.742  0.00  0.00    -0.126 OA
ATOM     16  O   UNL     1       1.961  -4.369   2.339  0.00  0.00    -0.126 OA
ENDBRANCH   9  14
BRANCH  10  17
ATOM     17  N   UNL     1      -0.134  -5.855   4.636  0.00  0.00    -0.324 N 
ATOM     18  H   UNL     1       0.775  -5.551   4.786  0.00  0.00    +0.148 HD
BRANCH  17  19
ATOM     19  C   UNL     1      -0.720  -6.877   5.513  0.00  0.00    +0.069 C 
ATOM     20  C   UNL     1      -0.499  -8.258   4.893  0.00  0.00    +0.009 C 
ATOM     21  C   UNL     1      -1.094  -9.334   5.800  0.00  0.00    -0.072 C 
ATOM     22  N   UNL     1      -0.585  -9.246   7.161  0.00  0.00    +0.386 N 
ATOM     23  C   UNL     1      -0.553  -7.934   7.787  0.00  0.00    -0.072 C 
ATOM     24  C   UNL     1      -0.015  -6.842   6.868  0.00  0.00    +0.009 C 
ATOM     25  C   UNL     1       0.400  -8.023   9.002  0.00  0.00    -0.010 C 
ATOM     26  C   UNL     1      -1.928  -7.531   8.326  0.00  0.00    -0.010 C 
ATOM     27  C   UNL     1      -0.664 -10.705   5.228  0.00  0.00    -0.010 C 
ATOM     28  C   UNL     1      -2.620  -9.282   5.752  0.00  0.00    -0.010 C 
ATOM     29  H   UNL     1      -1.137  -9.872   7.752  0.00  0.00    -0.084 HD
ATOM     30  H   UNL     1       0.363  -9.632   7.174  0.00  0.00    -0.084 HD
ENDBRANCH  17  19
ENDBRANCH  10  17
TORSDOF 3
