REMARK  Name = ZINC64392212
REMARK  6 active torsions:
REMARK  status: ('A' for Active; 'I' for Inactive)
REMARK    1  A    between atoms: C_1  and  C_2
REMARK    2  A    between atoms: C_5  and  C_8
REMARK    3  A    between atoms: C_8  and  N_9
REMARK    4  A    between atoms: C_15  and  C_22
REMARK    5  A    between atoms: C_25  and  C_28
REMARK    6  A    between atoms: C_33  and  C_34
REMARK                            x       y       z     vdW  Elec       q    Type
REMARK                         _______ _______ _______ _____ _____    ______ ____
ROOT
ATOM      1  N   UNL     1       0.709  -6.745  -0.801  0.00  0.00    -0.256 N 
ATOM      2  C   UNL     1       1.457  -6.771  -1.925  0.00  0.00    +0.265 A 
ATOM      3  O   UNL     1       0.944  -6.644  -3.020  0.00  0.00    -0.267 OA
ATOM      4  C   UNL     1       2.913  -6.957  -1.790  0.00  0.00    +0.063 A 
ATOM      5  C   UNL     1       3.753  -6.995  -2.901  0.00  0.00    +0.016 A 
ATOM      6  C   UNL     1       5.109  -7.171  -2.721  0.00  0.00    +0.009 A 
ATOM      7  C   UNL     1       5.636  -7.310  -1.446  0.00  0.00    +0.006 A 
ATOM      8  C   UNL     1       4.814  -7.274  -0.337  0.00  0.00    +0.034 A 
ATOM      9  C   UNL     1       3.449  -7.098  -0.498  0.00  0.00    +0.056 A 
ATOM     10  N   UNL     1       2.588  -7.055   0.590  0.00  0.00    -0.307 N 
ATOM     11  H   UNL     1       2.943  -7.151   1.487  0.00  0.00    +0.170 HD
ATOM     12  C   UNL     1       1.268  -6.878   0.412  0.00  0.00    +0.330 A 
ATOM     13  O   UNL     1       0.548  -6.843   1.391  0.00  0.00    -0.246 OA
ENDROOT
BRANCH   7  14
ATOM     14  C   UNL     1       7.120  -7.502  -1.269  0.00  0.00    +0.274 C 
ATOM     15  N   UNL     1       7.851  -6.859  -2.368  0.00  0.00    -0.339 N 
ATOM     16  C   UNL     1       8.523  -7.766  -3.007  0.00  0.00    +0.134 C 
ATOM     17  N   UNL     1       8.335  -9.010  -2.458  0.00  0.00    -0.247 N 
ATOM     18  O   UNL     1       7.454  -8.896  -1.350  0.00  0.00    -0.243 OA
ATOM     19  H   UNL     1       8.740  -9.833  -2.775  0.00  0.00    +0.196 HD
ATOM     20  H   UNL     1       7.833  -5.913  -2.581  0.00  0.00    +0.164 HD
BRANCH  16  21
ATOM     21  C   UNL     1       9.383  -7.494  -4.182  0.00  0.00    +0.020 A 
ATOM     22  C   UNL     1       8.853  -6.861  -5.306  0.00  0.00    +0.012 A 
ATOM     23  C   UNL     1       9.660  -6.609  -6.397  0.00  0.00    +0.001 A 
ATOM     24  C   UNL     1      10.992  -6.984  -6.377  0.00  0.00    +0.000 A 
ATOM     25  C   UNL     1      11.523  -7.612  -5.265  0.00  0.00    +0.004 A 
ATOM     26  C   UNL     1      10.727  -7.864  -4.165  0.00  0.00    -0.040 A 
ATOM     27  C   UNL     1      11.309  -8.543  -2.952  0.00  0.00    +0.044 C 
ENDBRANCH  16  21
ENDBRANCH   7  14
BRANCH   1  28
ATOM     28  C   UNL     1      -0.741  -6.561  -0.908  0.00  0.00    +0.165 C 
BRANCH  28  33
ATOM     29  C   UNL     1      -1.985  -0.919  -0.760  0.00  0.00    +0.044 C 
ATOM     30  C   UNL     1      -1.661  -2.390  -0.798  0.00  0.00    -0.050 A 
ATOM     31  C   UNL     1      -1.417  -3.013  -2.008  0.00  0.00    +0.004 A 
ATOM     32  C   UNL     1      -1.119  -4.362  -2.044  0.00  0.00    +0.005 A 
ATOM     33  C   UNL     1      -1.065  -5.089  -0.869  0.00  0.00    -0.027 A 
ATOM     34  C   UNL     1      -1.308  -4.467   0.341  0.00  0.00    +0.005 A 
ATOM     35  C   UNL     1      -1.601  -3.116   0.377  0.00  0.00    +0.004 A 
ENDBRANCH  28  33
ENDBRANCH   1  28
TORSDOF 4
