REMARK  Name = ZINC15946893
REMARK  7 active torsions:
REMARK  status: ('A' for Active; 'I' for Inactive)
REMARK    1  A    between atoms: C_1  and  C_2
REMARK    2  A    between atoms: C_9  and  N_21
REMARK    3  A    between atoms: C_10  and  C_11
REMARK    4  A    between atoms: N_13  and  C_14
REMARK    5  A    between atoms: C_22  and  C_24
REMARK    6  A    between atoms: C_24  and  N_61
REMARK    7  A    between atoms: C_29  and  C_31
REMARK                            x       y       z     vdW  Elec       q    Type
REMARK                         _______ _______ _______ _____ _____    ______ ____
ROOT
ATOM      1  C   UNL     1       4.734   2.472   9.982  0.00  0.00    +0.008 C 
ATOM      2  C   UNL     1       3.390   2.610   9.264  0.00  0.00    -0.009 C 
ATOM      3  C   UNL     1       2.727   3.931   9.665  0.00  0.00    +0.008 C 
ATOM      4  C   UNL     1       1.285   3.965   9.155  0.00  0.00    +0.037 C 
ATOM      5  C   UNL     1       1.285   3.649   7.665  0.00  0.00    -0.023 A 
ATOM      6  C   UNL     1       2.344   3.046   7.081  0.00  0.00    -0.004 A 
ATOM      7  S   UNL     1       1.889   2.884   5.378  0.00  0.00    -0.077 S 
ATOM      8  C   UNL     1       0.320   3.615   5.436  0.00  0.00    +0.084 A 
ATOM      9  C   UNL     1       0.181   3.960   6.773  0.00  0.00    +0.069 A 
ATOM     10  C   UNL     1       3.614   2.611   7.745  0.00  0.00    +0.046 C 
ENDROOT
BRANCH   9  11
ATOM     11  C   UNL     1      -1.034   4.615   7.267  0.00  0.00    +0.251 C 
ATOM     12  O   UNL     1      -1.966   3.944   7.672  0.00  0.00    -0.270 OA
ATOM     13  N   UNL     1      -1.120   5.960   7.272  0.00  0.00    -0.279 N 
ATOM     14  H   UNL     1      -0.413   6.493   6.876  0.00  0.00    +0.155 HD
BRANCH  13  15
ATOM     15  C   UNL     1      -2.229   6.588   7.851  0.00  0.00    +0.069 A 
ATOM     16  C   UNL     1      -2.960   5.940   8.837  0.00  0.00    +0.026 A 
ATOM     17  C   UNL     1      -4.054   6.562   9.407  0.00  0.00    +0.002 A 
ATOM     18  C   UNL     1      -4.422   7.830   8.996  0.00  0.00    +0.003 A 
ATOM     19  C   UNL     1      -3.697   8.480   8.014  0.00  0.00    +0.040 A 
ATOM     20  C   UNL     1      -2.597   7.866   7.444  0.00  0.00    +0.144 A 
ATOM     21  F   UNL     1      -1.886   8.503   6.489  0.00  0.00    -0.204 F 
ENDBRANCH  13  15
ENDBRANCH   9  11
BRANCH   8  22
ATOM     22  N   UNL     1      -0.582   3.803   4.399  0.00  0.00    -0.281 N 
ATOM     23  C   UNL     1      -0.270   3.398   3.152  0.00  0.00    +0.201 C 
ATOM     24  O   UNL     1       0.800   2.869   2.937  0.00  0.00    -0.278 OA
ATOM     25  H   UNL     1      -1.438   4.226   4.572  0.00  0.00    +0.155 HD
BRANCH  23  26
ATOM     26  C   UNL     1      -1.250   3.603   2.026  0.00  0.00    +0.019 C 
BRANCH  26  33
ATOM     27  C   UNL     1      -0.627   1.612   0.797  0.00  0.00    -0.078 C 
ATOM     28  C   UNL     1       0.104   1.110  -0.450  0.00  0.00    -0.019 C 
ATOM     29  C   UNL     1      -0.633   1.599  -1.700  0.00  0.00    -0.003 C 
ATOM     30  C   UNL     1      -0.714   3.127  -1.671  0.00  0.00    -0.016 C 
ATOM     31  C   UNL     1      -1.421   3.571  -0.389  0.00  0.00    -0.071 C 
ATOM     32  C   UNL     1      -1.486   5.099  -0.345  0.00  0.00    -0.013 C 
ATOM     33  N   UNL     1      -0.649   3.091   0.777  0.00  0.00    +0.387 N 
ATOM     34  H   UNL     1       0.315   3.437   0.704  0.00  0.00    -0.081 HD
ENDBRANCH  26  33
ENDBRANCH  23  26
ENDBRANCH   8  22
TORSDOF 5
