REMARK  Name = ZINC30977205
REMARK  12 active torsions:
REMARK  status: ('A' for Active; 'I' for Inactive)
REMARK    1  A    between atoms: C_1  and  C_2
REMARK    2  A    between atoms: C_2  and  C_3
REMARK    3  A    between atoms: C_2  and  C_4
REMARK    4  A    between atoms: C_2  and  C_5
REMARK    5  A    between atoms: C_8  and  C_11
REMARK    6  A    between atoms: C_13  and  C_16
REMARK    7  A    between atoms: C_16  and  N_17
REMARK    8  A    between atoms: C_20  and  C_23
REMARK    9  A    between atoms: N_25  and  C_26
REMARK   10  A    between atoms: C_26  and  C_27
REMARK   11  A    between atoms: C_27  and  S_28
REMARK   12  A    between atoms: S_28  and  C_29
REMARK                            x       y       z     vdW  Elec       q    Type
REMARK                         _______ _______ _______ _____ _____    ______ ____
ROOT
ATOM      1  N   UNL     1       0.235  -0.627   7.351  0.00  0.00    +0.386 N 
ATOM      2  C   UNL     1       0.248   0.841   7.401  0.00  0.00    -0.077 C 
ATOM      3  C   UNL     1      -0.460   1.401   6.165  0.00  0.00    -0.006 C 
ATOM      4  C   UNL     1       0.256   0.907   4.905  0.00  0.00    +0.071 C 
ATOM      5  C   UNL     1       0.270  -0.624   4.902  0.00  0.00    -0.006 C 
ATOM      6  C   UNL     1       0.958  -1.125   6.173  0.00  0.00    -0.077 C 
ATOM      7  H   UNL     1      -0.813  -0.950   7.263  0.00  0.00    -0.081 HD
ENDROOT
BRANCH   4   8
ATOM      8  C   UNL     1      -0.473   1.407   3.684  0.00  0.00    +0.216 C 
ATOM      9  O   UNL     1      -1.468   2.090   3.808  0.00  0.00    -0.276 OA
ATOM     10  N   UNL     1      -0.020   1.094   2.454  0.00  0.00    -0.314 N 
ATOM     11  H   UNL     1       0.881   0.474   2.341  0.00  0.00    +0.149 HD
BRANCH  10  12
ATOM     12  C   UNL     1      -0.729   1.579   1.267  0.00  0.00    +0.115 C 
BRANCH  12  13
ATOM     13  C   UNL     1      -0.013   1.086   0.008  0.00  0.00    +0.088 C 
BRANCH  13  14
ATOM     14  S   UNL     1      -0.890   1.687  -1.462  0.00  0.00    -0.156 S 
BRANCH  14  15
ATOM     15  C   UNL     1       0.072   1.024  -2.849  0.00  0.00    +0.047 C 
ATOM     16  C   UNL     1       1.468   1.651  -2.848  0.00  0.00    +0.014 C 
ATOM     17  C   UNL     1       2.280   1.092  -4.018  0.00  0.00    +0.001 C 
ATOM     18  C   UNL     1       1.573   1.424  -5.333  0.00  0.00    +0.000 C 
ATOM     19  C   UNL     1       0.177   0.796  -5.335  0.00  0.00    +0.001 C 
ATOM     20  C   UNL     1      -0.634   1.355  -4.165  0.00  0.00    +0.014 C 
ENDBRANCH  14  15
ENDBRANCH  13  14
ENDBRANCH  12  13
ENDBRANCH  10  12
ENDBRANCH   4   8
BRANCH   1  21
ATOM     21  C   UNL     1       0.784  -1.201   8.587  0.00  0.00    +0.022 C 
BRANCH  21  24
ATOM     22  C   UNL     1       0.690  -4.787   8.370  0.00  0.00    +0.202 A 
ATOM     23  N   UNL     1       1.323  -3.616   8.132  0.00  0.00    -0.193 NA
ATOM     24  C   UNL     1       0.531  -2.686   8.607  0.00  0.00    +0.211 A 
ATOM     25  O   UNL     1      -0.539  -3.303   9.117  0.00  0.00    -0.340 OA
ATOM     26  N   UNL     1      -0.437  -4.503   8.969  0.00  0.00    -0.056 NA
BRANCH  22  30
ATOM     27  C   UNL     1       2.100  -8.669   7.356  0.00  0.00    -0.042 A 
ATOM     28  C   UNL     1       0.881  -8.523   7.994  0.00  0.00    +0.005 A 
ATOM     29  C   UNL     1       0.419  -7.266   8.325  0.00  0.00    +0.012 A 
ATOM     30  C   UNL     1       1.182  -6.142   8.016  0.00  0.00    +0.022 A 
ATOM     31  C   UNL     1       2.407  -6.294   7.370  0.00  0.00    +0.012 A 
ATOM     32  C   UNL     1       2.861  -7.557   7.047  0.00  0.00    +0.005 A 
BRANCH  27  34
ATOM     33  C   UNL     1       1.602 -10.718   6.051  0.00  0.00    +0.015 C 
ATOM     34  C   UNL     1       2.599 -10.045   6.996  0.00  0.00    -0.013 C 
ATOM     35  C   UNL     1       3.959  -9.929   6.305  0.00  0.00    +0.015 C 
ATOM     36  C   UNL     1       2.742 -10.884   8.267  0.00  0.00    +0.015 C 
ENDBRANCH  27  34
ENDBRANCH  22  30
ENDBRANCH  21  24
ENDBRANCH   1  21
TORSDOF 9
