REMARK  Name = ZINC19530931
REMARK  13 active torsions:
REMARK  status: ('A' for Active; 'I' for Inactive)
REMARK    1  A    between atoms: C_1  and  C_2
REMARK    2  A    between atoms: C_2  and  N_3
REMARK    3  A    between atoms: N_3  and  C_4
REMARK    4  A    between atoms: N_3  and  C_18
REMARK    5  A    between atoms: C_4  and  C_5
REMARK    6  A    between atoms: N_7  and  C_8
REMARK    7  A    between atoms: C_11  and  N_14
REMARK    8  A    between atoms: C_15  and  C_17
REMARK    9  A    between atoms: C_18  and  C_20
REMARK   10  A    between atoms: C_18  and  C_21
REMARK   11  A    between atoms: N_23  and  C_24
REMARK   12  A    between atoms: C_27  and  O_30
REMARK   13  A    between atoms: O_30  and  C_31
REMARK                            x       y       z     vdW  Elec       q    Type
REMARK                         _______ _______ _______ _____ _____    ______ ____
ROOT
ATOM      1  N   UNL     1       0.082  -0.444  -0.767  0.00  0.00    +0.393 N 
ATOM      2  H   UNL     1      -0.081   0.183  -1.541  0.00  0.00    -0.080 HD
ENDROOT
BRANCH   1   4
ATOM      3  C   UNL     1      -0.398   1.456   0.701  0.00  0.00    -0.017 C 
ATOM      4  C   UNL     1      -0.710  -0.009   0.391  0.00  0.00    -0.081 C 
ENDBRANCH   1   4
BRANCH   1   5
ATOM      5  C   UNL     1       1.509  -0.430  -0.418  0.00  0.00    +0.017 C 
ATOM      6  C   UNL     1       2.333  -0.889  -1.623  0.00  0.00    -0.004 C 
BRANCH   5   7
ATOM      7  C   UNL     1       1.752  -1.361   0.741  0.00  0.00    +0.203 C 
ATOM      8  O   UNL     1       0.851  -2.058   1.159  0.00  0.00    -0.277 OA
ATOM      9  N   UNL     1       2.970  -1.421   1.314  0.00  0.00    -0.287 N 
ATOM     10  H   UNL     1       3.672  -0.817   1.025  0.00  0.00    +0.155 HD
BRANCH   9  11
ATOM     11  C   UNL     1       3.224  -2.355   2.327  0.00  0.00    +0.034 A 
ATOM     12  C   UNL     1       4.475  -2.947   2.429  0.00  0.00    +0.027 A 
ATOM     13  C   UNL     1       4.724  -3.868   3.428  0.00  0.00    +0.047 A 
ATOM     14  C   UNL     1       3.724  -4.201   4.329  0.00  0.00    +0.127 A 
ATOM     15  C   UNL     1       2.473  -3.611   4.227  0.00  0.00    +0.047 A 
ATOM     16  C   UNL     1       2.224  -2.685   3.233  0.00  0.00    +0.027 A 
BRANCH  14  17
ATOM     17  O   UNL     1       3.970  -5.108   5.312  0.00  0.00    -0.434 OA
BRANCH  17  18
ATOM     18  C   UNL     1       2.894  -5.404   6.205  0.00  0.00    +0.541 C 
ATOM     19  F   UNL     1       2.498  -4.235   6.863  0.00  0.00    -0.166 F 
ATOM     20  F   UNL     1       1.814  -5.919   5.479  0.00  0.00    -0.166 F 
ENDBRANCH  17  18
ENDBRANCH  14  17
ENDBRANCH   9  11
ENDBRANCH   5   7
ENDBRANCH   1   5
BRANCH   1  21
ATOM     21  C   UNL     1      -0.315  -1.806  -1.148  0.00  0.00    +0.020 C 
BRANCH  21  22
ATOM     22  C   UNL     1      -1.726  -1.788  -1.676  0.00  0.00    +0.201 C 
ATOM     23  O   UNL     1      -2.341  -0.744  -1.729  0.00  0.00    -0.278 OA
ATOM     24  N   UNL     1      -2.306  -2.933  -2.089  0.00  0.00    -0.287 N 
ATOM     25  H   UNL     1      -1.842  -3.778  -1.980  0.00  0.00    +0.155 HD
BRANCH  24  26
ATOM     26  C   UNL     1      -3.578  -2.903  -2.675  0.00  0.00    +0.033 A 
ATOM     27  C   UNL     1      -3.950  -1.827  -3.471  0.00  0.00    +0.025 A 
ATOM     28  C   UNL     1      -5.203  -1.797  -4.049  0.00  0.00    +0.025 A 
ATOM     29  C   UNL     1      -6.092  -2.842  -3.834  0.00  0.00    +0.033 A 
ATOM     30  C   UNL     1      -5.720  -3.918  -3.038  0.00  0.00    +0.025 A 
ATOM     31  C   UNL     1      -4.464  -3.951  -2.465  0.00  0.00    +0.025 A 
BRANCH  29  32
ATOM     32  N   UNL     1      -7.364  -2.811  -4.420  0.00  0.00    -0.286 N 
ATOM     33  C   UNL     1      -8.420  -3.335  -3.766  0.00  0.00    +0.214 C 
ATOM     34  O   UNL     1      -8.287  -3.752  -2.635  0.00  0.00    -0.276 OA
ATOM     35  C   UNL     1      -9.766  -3.403  -4.441  0.00  0.00    +0.109 C 
ATOM     36  H   UNL     1      -7.485  -2.413  -5.296  0.00  0.00    +0.155 HD
ENDBRANCH  29  32
ENDBRANCH  24  26
ENDBRANCH  21  22
ENDBRANCH   1  21
TORSDOF 10
