REMARK  Name = ZINC23429350
REMARK  10 active torsions:
REMARK  status: ('A' for Active; 'I' for Inactive)
REMARK    1  A    between atoms: C_1  and  C_2
REMARK    2  A    between atoms: C_7  and  C_8
REMARK    3  A    between atoms: C_8  and  N_9
REMARK    4  A    between atoms: C_15  and  C_17
REMARK    5  A    between atoms: C_17  and  C_18
REMARK    6  A    between atoms: N_20  and  C_21
REMARK    7  A    between atoms: C_21  and  C_22
REMARK    8  A    between atoms: C_25  and  C_27
REMARK    9  A    between atoms: C_27  and  C_28
REMARK   10  A    between atoms: C_27  and  C_29
REMARK                            x       y       z     vdW  Elec       q    Type
REMARK                         _______ _______ _______ _____ _____    ______ ____
ROOT
ATOM      1  N   UNL     1      -2.849   4.460  -1.585  0.00  0.00    +0.391 N 
ATOM      2  C   UNL     1      -3.046   3.346  -2.527  0.00  0.00    -0.058 C 
ATOM      3  C   UNL     1      -3.382   3.921  -3.905  0.00  0.00    +0.085 C 
ATOM      4  N   UNL     1      -4.461   4.898  -3.789  0.00  0.00    -0.318 N 
ATOM      5  C   UNL     1      -4.800   5.473  -2.630  0.00  0.00    +0.200 C 
ATOM      6  O   UNL     1      -5.689   6.298  -2.629  0.00  0.00    -0.278 OA
ATOM      7  C   UNL     1      -4.127   5.139  -1.329  0.00  0.00    +0.028 C 
ATOM      8  H   UNL     1      -5.035   5.191  -4.680  0.00  0.00    +0.149 HD
ATOM      9  H   UNL     1      -2.156   5.184  -2.038  0.00  0.00    -0.080 HD
ENDROOT
BRANCH   1  10
ATOM     10  C   UNL     1      -2.242   3.990  -0.333  0.00  0.00    -0.042 C 
BRANCH  10  17
ATOM     11  C   UNL     1      -0.041   5.839  -0.620  0.00  0.00    +0.044 C 
ATOM     12  C   UNL     1       0.198   4.357  -0.748  0.00  0.00    -0.049 A 
ATOM     13  C   UNL     1       1.472   3.882  -1.002  0.00  0.00    +0.003 A 
ATOM     14  C   UNL     1       1.692   2.522  -1.118  0.00  0.00    +0.000 A 
ATOM     15  C   UNL     1       0.638   1.637  -0.980  0.00  0.00    +0.000 A 
ATOM     16  C   UNL     1      -0.636   2.113  -0.732  0.00  0.00    +0.002 A 
ATOM     17  C   UNL     1      -0.855   3.472  -0.610  0.00  0.00    -0.061 A 
ENDBRANCH  10  17
ENDBRANCH   1  10
BRANCH   7  18
ATOM     18  C   UNL     1      -3.869   6.427  -0.545  0.00  0.00    +0.089 C 
BRANCH  18  19
ATOM     19  C   UNL     1      -2.938   7.315  -1.330  0.00  0.00    +0.212 C 
ATOM     20  O   UNL     1      -2.578   6.986  -2.440  0.00  0.00    -0.276 OA
ATOM     21  N   UNL     1      -2.505   8.475  -0.797  0.00  0.00    -0.310 N 
ATOM     22  H   UNL     1      -2.831   8.773   0.210  0.00  0.00    +0.149 HD
BRANCH  21  23
ATOM     23  C   UNL     1      -1.599   9.338  -1.560  0.00  0.00    +0.160 C 
BRANCH  23  24
ATOM     24  C   UNL     1      -1.268  10.562  -0.746  0.00  0.00    +0.066 A 
ATOM     25  C   UNL     1      -0.144  10.610   0.013  0.00  0.00    +0.071 A 
ATOM     26  S   UNL     1      -0.291  12.247   0.715  0.00  0.00    -0.080 S 
ATOM     27  C   UNL     1      -1.787  12.685  -0.050  0.00  0.00    +0.081 A 
ATOM     28  N   UNL     1      -2.060  11.614  -0.758  0.00  0.00    -0.247 NA
BRANCH  27  29
ATOM     29  C   UNL     1      -2.568  13.969   0.065  0.00  0.00    +0.038 C 
ATOM     30  C   UNL     1      -2.968  14.194   1.525  0.00  0.00    +0.014 C 
ATOM     31  C   UNL     1      -1.702  15.137  -0.412  0.00  0.00    +0.014 C 
ENDBRANCH  27  29
ENDBRANCH  23  24
ENDBRANCH  21  23
ENDBRANCH  18  19
ENDBRANCH   7  18
TORSDOF 7
