REMARK  Name = ZINC39912342
REMARK  8 active torsions:
REMARK  status: ('A' for Active; 'I' for Inactive)
REMARK    1  A    between atoms: C_1  and  C_2
REMARK    2  A    between atoms: C_5  and  C_8
REMARK    3  A    between atoms: C_8  and  N_9
REMARK    4  A    between atoms: C_10  and  C_29
REMARK    5  A    between atoms: C_13  and  C_20
REMARK    6  A    between atoms: C_22  and  C_28
REMARK    7  A    between atoms: C_24  and  C_27
REMARK    8  A    between atoms: C_25  and  O_26
REMARK                            x       y       z     vdW  Elec       q    Type
REMARK                         _______ _______ _______ _____ _____    ______ ____
ROOT
ATOM      1  N   UNL     1       1.499  -4.570  -0.071  0.00  0.00    -0.281 N 
ATOM      2  C   UNL     1       2.348  -4.867  -1.232  0.00  0.00    +0.142 C 
ATOM      3  C   UNL     1       3.627  -5.432  -0.678  0.00  0.00    +0.035 A 
ATOM      4  C   UNL     1       4.899  -5.953  -0.943  0.00  0.00    +0.102 A 
ATOM      5  N   UNL     1       5.454  -6.244   0.217  0.00  0.00    -0.173 NA
ATOM      6  N   UNL     1       4.660  -5.960   1.187  0.00  0.00    -0.272 N 
ATOM      7  H   UNL     1       4.860  -6.091   2.127  0.00  0.00    +0.189 HD
ATOM      8  C   UNL     1       3.494  -5.445   0.697  0.00  0.00    +0.126 A 
ATOM      9  C   UNL     1       2.175  -4.904   1.043  0.00  0.00    +0.266 C 
ATOM     10  O   UNL     1       1.751  -4.777   2.176  0.00  0.00    -0.268 OA
ENDROOT
BRANCH   4  11
ATOM     11  C   UNL     1       5.509  -6.142  -2.282  0.00  0.00    +0.044 A 
ATOM     12  C   UNL     1       5.455  -5.120  -3.226  0.00  0.00    +0.017 A 
ATOM     13  C   UNL     1       6.024  -5.301  -4.471  0.00  0.00    -0.049 A 
ATOM     14  C   UNL     1       6.650  -6.495  -4.784  0.00  0.00    +0.010 A 
ATOM     15  C   UNL     1       6.710  -7.516  -3.853  0.00  0.00    -0.008 A 
ATOM     16  C   UNL     1       6.147  -7.345  -2.599  0.00  0.00    +0.129 A 
ATOM     17  C   UNL     1       7.393  -8.813  -4.202  0.00  0.00    +0.047 C 
ATOM     18  C   UNL     1       5.965  -4.195  -5.492  0.00  0.00    +0.044 C 
BRANCH  16  19
ATOM     19  O   UNL     1       6.210  -8.345  -1.682  0.00  0.00    -0.506 OA
ATOM     20  H   UNL     1       5.464  -8.960  -1.719  0.00  0.00    +0.292 HD
ENDBRANCH  16  19
ENDBRANCH   4  11
BRANCH   2  21
ATOM     21  C   UNL     1       1.674  -5.880  -2.121  0.00  0.00    -0.021 A 
ATOM     22  C   UNL     1       1.087  -7.004  -1.569  0.00  0.00    +0.006 A 
ATOM     23  C   UNL     1       0.469  -7.933  -2.384  0.00  0.00    +0.001 A 
ATOM     24  C   UNL     1       0.438  -7.740  -3.752  0.00  0.00    +0.015 A 
ATOM     25  C   UNL     1       1.025  -6.617  -4.306  0.00  0.00    +0.018 A 
ATOM     26  C   UNL     1       1.639  -5.684  -3.489  0.00  0.00    +0.021 A 
ATOM     27 BR   UNL     1       0.983  -6.353  -6.178  0.00  0.00    -0.050 Br
ENDBRANCH   2  21
BRANCH   1  28
ATOM     28  C   UNL     1       0.150  -4.000  -0.119  0.00  0.00    +0.144 C 
BRANCH  28  33
ATOM     29  C   UNL     1       0.482   1.766   0.047  0.00  0.00    +0.044 C 
ATOM     30  C   UNL     1       0.395   0.263   0.004  0.00  0.00    -0.050 A 
ATOM     31  C   UNL     1       0.412  -0.396  -1.211  0.00  0.00    +0.003 A 
ATOM     32  C   UNL     1       0.332  -1.776  -1.251  0.00  0.00    +0.005 A 
ATOM     33  C   UNL     1       0.237  -2.497  -0.075  0.00  0.00    -0.030 A 
ATOM     34  C   UNL     1       0.222  -1.838   1.140  0.00  0.00    +0.005 A 
ATOM     35  C   UNL     1       0.305  -0.459   1.180  0.00  0.00    +0.003 A 
ENDBRANCH  28  33
ENDBRANCH   1  28
TORSDOF 5
