REMARK  Name = ZINC39545401
REMARK  7 active torsions:
REMARK  status: ('A' for Active; 'I' for Inactive)
REMARK    1  A    between atoms: C_9  and  C_23
REMARK    2  A    between atoms: C_12  and  C_16
REMARK    3  A    between atoms: C_21  and  O_22
REMARK    4  A    between atoms: N_25  and  C_26
REMARK    5  A    between atoms: N_25  and  C_33
REMARK    6  A    between atoms: C_31  and  O_32
REMARK    7  A    between atoms: C_38  and  O_39
REMARK                            x       y       z     vdW  Elec       q    Type
REMARK                         _______ _______ _______ _____ _____    ______ ____
ROOT
ATOM      1  C   UNL     1      -0.017   1.377   0.010  0.00  0.00    +0.000 A 
ATOM      2  C   UNL     1       1.169   2.090   0.002  0.00  0.00    +0.002 A 
ATOM      3  C   UNL     1       2.376   1.419  -0.011  0.00  0.00    +0.023 A 
ATOM      4  C   UNL     1       2.396   0.030  -0.017  0.00  0.00    +0.037 A 
ATOM      5  C   UNL     1       1.207  -0.685  -0.013  0.00  0.00    -0.007 A 
ATOM      6  C   UNL     1       0.002  -0.004   0.002  0.00  0.00    +0.007 A 
ATOM      7  C   UNL     1       1.203  -2.190  -0.033  0.00  0.00    +0.155 C 
ATOM      8  N   UNL     1       2.538  -2.710   0.293  0.00  0.00    -0.346 N 
ATOM      9  C   UNL     1       2.821  -4.105   0.663  0.00  0.00    +0.171 C 
ATOM     10  C   UNL     1       4.225  -4.083   1.308  0.00  0.00    +0.050 C 
ATOM     11  C   UNL     1       4.825  -2.811   0.663  0.00  0.00    +0.086 C 
ATOM     12  C   UNL     1       3.615  -1.990   0.287  0.00  0.00    +0.083 C 
ATOM     13  N   UNL     1       3.623  -0.647  -0.022  0.00  0.00    -0.304 N 
ATOM     14  H   UNL     1       4.450  -0.186  -0.235  0.00  0.00    +0.153 HD
ENDROOT
BRANCH  11  15
ATOM     15  C   UNL     1       5.683  -2.069   1.656  0.00  0.00    +0.004 A 
ATOM     16  C   UNL     1       5.132  -1.604   2.834  0.00  0.00    +0.008 A 
ATOM     17  C   UNL     1       5.918  -0.923   3.745  0.00  0.00    +0.001 A 
ATOM     18  C   UNL     1       7.258  -0.707   3.480  0.00  0.00    +0.004 A 
ATOM     19  C   UNL     1       7.814  -1.171   2.304  0.00  0.00    +0.046 A 
ATOM     20  C   UNL     1       7.028  -1.859   1.391  0.00  0.00    +0.121 A 
BRANCH  20  21
ATOM     21  O   UNL     1       7.574  -2.321   0.235  0.00  0.00    -0.506 OA
ATOM     22  H   UNL     1       7.534  -1.692  -0.498  0.00  0.00    +0.292 HD
ENDBRANCH  20  21
ENDBRANCH  11  15
BRANCH   9  23
ATOM     23  C   UNL     1       1.798  -4.600   1.652  0.00  0.00    +0.247 C 
ATOM     24  O   UNL     1       0.907  -3.864   2.024  0.00  0.00    -0.273 OA
ATOM     25  N   UNL     1       1.871  -5.860   2.124  0.00  0.00    -0.232 N 
BRANCH  25  26
ATOM     26  C   UNL     1       2.900  -6.710   1.695  0.00  0.00    +0.083 A 
ATOM     27  C   UNL     1       4.100  -6.756   2.390  0.00  0.00    +0.027 A 
ATOM     28  C   UNL     1       5.112  -7.596   1.966  0.00  0.00    +0.002 A 
ATOM     29  C   UNL     1       4.933  -8.390   0.848  0.00  0.00    +0.004 A 
ATOM     30  C   UNL     1       3.741  -8.349   0.150  0.00  0.00    +0.047 A 
ATOM     31  C   UNL     1       2.719  -7.515   0.573  0.00  0.00    +0.138 A 
BRANCH  31  32
ATOM     32  O   UNL     1       1.543  -7.478  -0.110  0.00  0.00    -0.505 OA
ATOM     33  H   UNL     1       1.522  -6.822  -0.820  0.00  0.00    +0.292 HD
ENDBRANCH  31  32
ENDBRANCH  25  26
BRANCH  25  34
ATOM     34  C   UNL     1       0.920  -6.321   3.045  0.00  0.00    +0.083 A 
ATOM     35  C   UNL     1      -0.241  -6.934   2.597  0.00  0.00    +0.027 A 
ATOM     36  C   UNL     1      -1.178  -7.388   3.506  0.00  0.00    +0.002 A 
ATOM     37  C   UNL     1      -0.961  -7.231   4.863  0.00  0.00    +0.004 A 
ATOM     38  C   UNL     1       0.193  -6.621   5.317  0.00  0.00    +0.047 A 
ATOM     39  C   UNL     1       1.140  -6.169   4.412  0.00  0.00    +0.138 A 
BRANCH  39  40
ATOM     40  O   UNL     1       2.278  -5.573   4.857  0.00  0.00    -0.505 OA
ATOM     41  H   UNL     1       2.205  -4.615   4.963  0.00  0.00    +0.292 HD
ENDBRANCH  39  40
ENDBRANCH  25  34
ENDBRANCH   9  23
TORSDOF 7
