REMARK  Name = ZINC58453160
REMARK  8 active torsions:
REMARK  status: ('A' for Active; 'I' for Inactive)
REMARK    1  A    between atoms: C_3  and  O_9
REMARK    2  A    between atoms: C_6  and  C_7
REMARK    3  A    between atoms: O_9  and  C_10
REMARK    4  A    between atoms: C_10  and  C_11
REMARK    5  A    between atoms: C_11  and  C_13
REMARK    6  A    between atoms: C_11  and  O_25
REMARK    7  A    between atoms: C_13  and  S_14
REMARK    8  A    between atoms: S_14  and  C_15
REMARK                            x       y       z     vdW  Elec       q    Type
REMARK                         _______ _______ _______ _____ _____    ______ ____
ROOT
ATOM      1  C   UNL     1       7.245   1.496  -0.188  0.00  0.00    +0.112 C 
ENDROOT
BRANCH   1   2
ATOM      2  C   UNL     1       5.955   2.305  -0.045  0.00  0.00    +0.162 C 
BRANCH   2   3
ATOM      3  O   UNL     1       5.987   3.041   1.179  0.00  0.00    -0.388 OA
ATOM      4  H   UNL     1       6.066   2.488   1.969  0.00  0.00    +0.210 HD
ENDBRANCH   2   3
BRANCH   2   5
ATOM      5  C   UNL     1       4.756   1.355  -0.038  0.00  0.00    +0.261 C 
BRANCH   5   6
ATOM      6  O   UNL     1       3.546   2.114  -0.022  0.00  0.00    -0.489 OA
BRANCH   6   9
ATOM      7  C   UNL     1      -0.017   1.393   0.010  0.00  0.00    +0.022 A 
ATOM      8  C   UNL     1       1.168   2.096   0.002  0.00  0.00    +0.047 A 
ATOM      9  C   UNL     1       2.380   1.418  -0.013  0.00  0.00    +0.121 A 
ATOM     10  C   UNL     1       2.404   0.028  -0.021  0.00  0.00    +0.047 A 
ATOM     11  C   UNL     1       1.224  -0.682  -0.013  0.00  0.00    +0.022 A 
ATOM     12  C   UNL     1       0.002  -0.004   0.002  0.00  0.00    +0.052 A 
BRANCH  12  13
ATOM     13  C   UNL     1      -1.227  -0.739   0.010  0.00  0.00    +0.099 C 
ATOM     14  N   UNL     1      -2.202  -1.322   0.017  0.00  0.00    -0.191 NA
ENDBRANCH  12  13
ENDBRANCH   6   9
ENDBRANCH   5   6
ENDBRANCH   2   5
ENDBRANCH   1   2
BRANCH   1  15
ATOM     15  S   UNL     1       8.667   2.623  -0.197  0.00  0.00    -0.083 S 
BRANCH  15  16
ATOM     16  C   UNL     1      10.057   1.554  -0.365  0.00  0.00    +0.191 A 
ATOM     17  N   UNL     1      11.279   2.074  -0.400  0.00  0.00    -0.207 NA
ATOM     18  C   UNL     1      12.359   1.322  -0.525  0.00  0.00    +0.129 A 
ATOM     19  C   UNL     1      12.217  -0.090  -0.626  0.00  0.00    +0.047 A 
ATOM     20  C   UNL     1      13.236  -1.117  -0.767  0.00  0.00    +0.021 A 
ATOM     21  C   UNL     1      12.864  -2.402  -0.844  0.00  0.00    +0.048 A 
ATOM     22  S   UNL     1      11.087  -2.329  -0.729  0.00  0.00    -0.077 S 
ATOM     23  C   UNL     1      10.892  -0.573  -0.581  0.00  0.00    +0.114 A 
ATOM     24  N   UNL     1       9.865   0.244  -0.449  0.00  0.00    -0.215 NA
ATOM     25  N   UNL     1      13.614   1.903  -0.558  0.00  0.00    -0.343 N 
ATOM     26  H   UNL     1      13.705   2.866  -0.489  0.00  0.00    +0.144 HD
ATOM     27  H   UNL     1      14.403   1.346  -0.650  0.00  0.00    +0.144 HD
ENDBRANCH  15  16
ENDBRANCH   1  15
TORSDOF 8
