REMARK  Name = ZINC22818775
REMARK  11 active torsions:
REMARK  status: ('A' for Active; 'I' for Inactive)
REMARK    1  A    between atoms: C_1  and  O_2
REMARK    2  A    between atoms: O_2  and  C_3
REMARK    3  A    between atoms: C_6  and  C_9
REMARK    4  A    between atoms: C_15  and  C_23
REMARK    5  A    between atoms: C_17  and  C_21
REMARK    6  A    between atoms: C_18  and  N_20
REMARK    7  A    between atoms: C_26  and  O_31
REMARK    8  A    between atoms: C_27  and  O_29
REMARK    9  A    between atoms: O_29  and  C_30
REMARK   10  A    between atoms: O_31  and  C_32
REMARK   11  A    between atoms: C_32  and  C_33
REMARK                            x       y       z     vdW  Elec       q    Type
REMARK                         _______ _______ _______ _____ _____    ______ ____
ROOT
ATOM      1  C   UNL     1      -4.953  -2.614   0.035  0.00  0.00    +0.084 C 
ATOM      2  N   UNL     1      -6.132  -2.060   0.131  0.00  0.00    -0.150 NA
ATOM      3  N   UNL     1      -7.163  -2.999   0.073  0.00  0.00    -0.115 NA
ATOM      4  C   UNL     1      -6.720  -4.190  -0.118  0.00  0.00    +0.227 C 
ATOM      5  C   UNL     1      -5.197  -4.102  -0.070  0.00  0.00    +0.140 C 
ATOM      6  C   UNL     1      -4.703  -4.644  -1.417  0.00  0.00    +0.082 C 
ATOM      7  C   UNL     1      -5.508  -5.862  -1.782  0.00  0.00    +0.095 C 
ATOM      8  C   UNL     1      -6.725  -6.149  -1.276  0.00  0.00    +0.200 C 
ATOM      9  O   UNL     1      -7.345  -5.364  -0.352  0.00  0.00    -0.425 OA
ENDROOT
BRANCH   1  13
ATOM     10  C   UNL     1      -1.199  -0.637   0.007  0.00  0.00    +0.120 A 
ATOM     11  C   UNL     1      -1.283  -1.959   0.428  0.00  0.00    +0.046 A 
ATOM     12  C   UNL     1      -2.499  -2.606   0.439  0.00  0.00    +0.013 A 
ATOM     13  C   UNL     1      -3.652  -1.929   0.026  0.00  0.00    -0.001 A 
ATOM     14  C   UNL     1      -3.562  -0.598  -0.396  0.00  0.00    +0.013 A 
ATOM     15  C   UNL     1      -2.342   0.041  -0.398  0.00  0.00    +0.046 A 
BRANCH  10  17
ATOM     16  C   UNL     1       1.137  -0.760   0.428  0.00  0.00    +0.277 C 
ATOM     17  O   UNL     1       0.002  -0.005  -0.002  0.00  0.00    -0.495 OA
ENDBRANCH  10  17
ENDBRANCH   1  13
BRANCH   6  18
ATOM     18  C   UNL     1      -3.246  -5.014  -1.307  0.00  0.00    -0.034 A 
ATOM     19  C   UNL     1      -2.846  -5.976  -0.399  0.00  0.00    +0.008 A 
ATOM     20  C   UNL     1      -1.511  -6.319  -0.294  0.00  0.00    +0.050 A 
ATOM     21  C   UNL     1      -0.571  -5.699  -1.102  0.00  0.00    +0.162 A 
ATOM     22  C   UNL     1      -0.974  -4.731  -2.017  0.00  0.00    +0.162 A 
ATOM     23  C   UNL     1      -2.314  -4.395  -2.119  0.00  0.00    +0.053 A 
BRANCH  22  24
ATOM     24  O   UNL     1      -0.055  -4.120  -2.811  0.00  0.00    -0.491 OA
ATOM     25  C   UNL     1      -0.541  -3.136  -3.727  0.00  0.00    +0.277 C 
ENDBRANCH  22  24
BRANCH  21  26
ATOM     26  O   UNL     1       0.743  -6.035  -1.000  0.00  0.00    -0.484 OA
BRANCH  26  27
ATOM     27  C   UNL     1       1.084  -7.037  -0.039  0.00  0.00    +0.264 C 
BRANCH  27  28
ATOM     28  C   UNL     1       2.571  -7.276  -0.069  0.00  0.00    -0.010 A 
ATOM     29  C   UNL     1       3.101  -8.230  -0.917  0.00  0.00    +0.010 A 
ATOM     30  C   UNL     1       4.465  -8.450  -0.945  0.00  0.00    +0.039 A 
ATOM     31  C   UNL     1       5.301  -7.713  -0.124  0.00  0.00    +0.123 A 
ATOM     32  C   UNL     1       4.770  -6.758   0.725  0.00  0.00    +0.039 A 
ATOM     33  C   UNL     1       3.406  -6.536   0.748  0.00  0.00    +0.010 A 
ATOM     34  F   UNL     1       6.635  -7.928  -0.151  0.00  0.00    -0.205 F 
ENDBRANCH  27  28
ENDBRANCH  26  27
ENDBRANCH  21  26
ENDBRANCH   6  18
BRANCH   8  35
ATOM     35  N   UNL     1      -7.364  -7.286  -1.706  0.00  0.00    -0.328 N 
ATOM     36  H   UNL     1      -6.939  -7.863  -2.360  0.00  0.00    +0.145 HD
ATOM     37  H   UNL     1      -8.239  -7.512  -1.355  0.00  0.00    +0.145 HD
ENDBRANCH   8  35
BRANCH   7  38
ATOM     38  C   UNL     1      -4.945  -6.776  -2.729  0.00  0.00    +0.100 C 
ATOM     39  N   UNL     1      -4.498  -7.502  -3.480  0.00  0.00    -0.191 NA
ENDBRANCH   7  38
TORSDOF 9
