REMARK  Name = ZINC57933729
REMARK  4 active torsions:
REMARK  status: ('A' for Active; 'I' for Inactive)
REMARK    1  A    between atoms: C_1  and  C_2
REMARK    2  A    between atoms: N_6  and  C_16
REMARK    3  A    between atoms: C_16  and  C_17
REMARK    4  A    between atoms: N_19  and  C_20
REMARK                            x       y       z     vdW  Elec       q    Type
REMARK                         _______ _______ _______ _____ _____    ______ ____
ROOT
ATOM      1  C   UNL     1      -0.019   1.526   0.010  0.00  0.00    +0.038 C 
ATOM      2  C   UNL     1       0.002  -0.004   0.002  0.00  0.00    +0.154 C 
ATOM      3  C   UNL     1      -1.411  -0.528   0.017  0.00  0.00    +0.240 C 
ATOM      4  O   UNL     1      -1.991  -0.717  -1.031  0.00  0.00    -0.273 OA
ATOM      5  N   UNL     1      -2.037  -0.787   1.181  0.00  0.00    -0.259 N 
ATOM      6  C   UNL     1      -1.372  -0.625   2.402  0.00  0.00    +0.059 A 
ATOM      7  C   UNL     1      -2.076  -0.605   3.595  0.00  0.00    +0.046 A 
ATOM      8  C   UNL     1      -1.400  -0.448   4.792  0.00  0.00    +0.061 A 
ATOM      9  C   UNL     1      -0.022  -0.311   4.804  0.00  0.00    +0.061 A 
ATOM     10  C   UNL     1       0.689  -0.329   3.616  0.00  0.00    +0.046 A 
ATOM     11  C   UNL     1       0.017  -0.483   2.417  0.00  0.00    +0.051 A 
ATOM     12  N   UNL     1       0.709  -0.493   1.195  0.00  0.00    -0.332 N 
ATOM     13 CL   UNL     1       0.816  -0.117   6.312  0.00  0.00    -0.082 Cl
ATOM     14 CL   UNL     1      -2.284  -0.422   6.286  0.00  0.00    -0.082 Cl
ATOM     15  H   UNL     1       1.623  -0.813   1.139  0.00  0.00    +0.147 HD
ENDROOT
BRANCH   5  16
ATOM     16  C   UNL     1      -3.429  -1.245   1.168  0.00  0.00    +0.209 C 
BRANCH  16  17
ATOM     17  C   UNL     1      -3.462  -2.751   1.102  0.00  0.00    +0.231 C 
ATOM     18  O   UNL     1      -2.425  -3.379   1.068  0.00  0.00    -0.274 OA
ATOM     19  N   UNL     1      -4.644  -3.398   1.080  0.00  0.00    -0.317 N 
ATOM     20  C   UNL     1      -4.676  -4.861   1.016  0.00  0.00    +0.128 C 
ATOM     21  H   UNL     1      -5.473  -2.896   1.107  0.00  0.00    +0.148 HD
ENDBRANCH  16  17
ENDBRANCH   5  16
TORSDOF 2
