REMARK  Name = ZINC11910332
REMARK  13 active torsions:
REMARK  status: ('A' for Active; 'I' for Inactive)
REMARK    1  A    between atoms: C_1  and  C_2
REMARK    2  A    between atoms: C_10  and  C_11
REMARK    3  A    between atoms: N_13  and  C_14
REMARK    4  A    between atoms: C_14  and  C_15
REMARK    5  A    between atoms: C_15  and  C_16
REMARK    6  A    between atoms: C_15  and  C_17
REMARK    7  A    between atoms: C_15  and  C_18
REMARK    8  A    between atoms: C_18  and  N_58
REMARK    9  A    between atoms: C_19  and  N_58
REMARK   10  A    between atoms: C_20  and  N_58
REMARK   11  A    between atoms: N_21  and  C_22
REMARK   12  A    between atoms: C_22  and  C_24
REMARK   13  A    between atoms: C_22  and  C_25
REMARK                            x       y       z     vdW  Elec       q    Type
REMARK                         _______ _______ _______ _____ _____    ______ ____
ROOT
ATOM      1  C   UNL     1       0.434   0.208  -1.859  0.00  0.00    +0.046 C 
ATOM      2  C   UNL     1       1.114   1.552  -1.857  0.00  0.00    -0.019 A 
ATOM      3  C   UNL     1       0.355   2.724  -1.982  0.00  0.00    +0.051 A 
ATOM      4  C   UNL     1      -1.057   2.874  -2.121  0.00  0.00    +0.131 A 
ATOM      5  N   UNL     1      -1.569   4.089  -2.225  0.00  0.00    -0.220 NA
ATOM      6  C   UNL     1      -0.818   5.175  -2.205  0.00  0.00    +0.224 A 
ATOM      7  N   UNL     1       0.493   5.104  -2.075  0.00  0.00    -0.228 NA
ATOM      8  C   UNL     1       1.090   3.934  -1.969  0.00  0.00    +0.114 A 
ATOM      9  S   UNL     1       2.769   3.390  -1.787  0.00  0.00    -0.064 S 
ATOM     10  C   UNL     1       2.467   1.632  -1.734  0.00  0.00    +0.079 A 
ATOM     11  N   UNL     1      -1.879   1.765  -2.146  0.00  0.00    -0.321 N 
ATOM     12  H   UNL     1      -1.492   0.876  -2.160  0.00  0.00    +0.148 HD
ENDROOT
BRANCH  10  13
ATOM     13  C   UNL     1       3.439   0.541  -1.591  0.00  0.00    +0.251 C 
ATOM     14  O   UNL     1       3.079  -0.615  -1.719  0.00  0.00    -0.270 OA
ATOM     15  N   UNL     1       4.730   0.819  -1.319  0.00  0.00    -0.310 N 
ATOM     16  H   UNL     1       5.016   1.740  -1.218  0.00  0.00    +0.149 HD
BRANCH  15  17
ATOM     17  C   UNL     1       5.699  -0.270  -1.178  0.00  0.00    +0.109 C 
BRANCH  17  18
ATOM     18  C   UNL     1       7.080   0.313  -0.873  0.00  0.00    -0.034 C 
ATOM     19  C   UNL     1       7.510   1.232  -2.018  0.00  0.00    +0.010 C 
ATOM     20  C   UNL     1       7.020   1.115   0.429  0.00  0.00    +0.010 C 
BRANCH  18  21
ATOM     21  C   UNL     1       8.093  -0.824  -0.725  0.00  0.00    -0.072 C 
BRANCH  21  24
ATOM     22  C   UNL     1       9.621   0.108   0.906  0.00  0.00    -0.097 C 
ATOM     23  C   UNL     1      10.475  -1.196  -0.947  0.00  0.00    -0.097 C 
ATOM     24  N   UNL     1       9.434  -0.238  -0.519  0.00  0.00    +0.376 N 
ATOM     25  H   UNL     1       9.515   0.616  -1.083  0.00  0.00    -0.083 HD
ENDBRANCH  21  24
ENDBRANCH  18  21
ENDBRANCH  17  18
ENDBRANCH  15  17
ENDBRANCH  10  13
BRANCH  11  26
ATOM     26  C   UNL     1      -3.334   1.932  -2.152  0.00  0.00    +0.106 C 
ATOM     27  C   UNL     1      -3.818   2.141  -3.589  0.00  0.00    +0.033 C 
BRANCH  26  28
ATOM     28  C   UNL     1      -3.983   0.699  -1.578  0.00  0.00    +0.010 A 
ATOM     29  C   UNL     1      -5.046   0.605  -0.742  0.00  0.00    +0.013 A 
ATOM     30  C   UNL     1      -5.476  -0.647  -0.343  0.00  0.00    +0.008 A 
ATOM     31  C   UNL     1      -4.816  -1.743  -0.791  0.00  0.00    +0.045 A 
ATOM     32  S   UNL     1      -3.548  -1.016  -1.817  0.00  0.00    -0.100 S 
ENDBRANCH  26  28
ENDBRANCH  11  26
TORSDOF 7
