REMARK  Name = ZINC06821983
REMARK  13 active torsions:
REMARK  status: ('A' for Active; 'I' for Inactive)
REMARK    1  A    between atoms: C_1  and  C_2
REMARK    2  A    between atoms: C_2  and  C_3
REMARK    3  A    between atoms: C_6  and  N_9
REMARK    4  A    between atoms: N_9  and  C_10
REMARK    5  A    between atoms: C_10  and  C_12
REMARK    6  A    between atoms: C_10  and  C_19
REMARK    7  A    between atoms: N_21  and  C_22
REMARK    8  A    between atoms: C_22  and  C_23
REMARK    9  A    between atoms: C_22  and  C_24
REMARK   10  A    between atoms: C_22  and  C_25
REMARK   11  A    between atoms: C_26  and  C_28
REMARK   12  A    between atoms: C_29  and  N_36
REMARK   13  A    between atoms: C_30  and  C_33
REMARK                            x       y       z     vdW  Elec       q    Type
REMARK                         _______ _______ _______ _____ _____    ______ ____
ROOT
ATOM      1  N   UNL     1      -2.179   3.349   4.174  0.00  0.00    -0.251 N 
ATOM      2  C   UNL     1      -3.318   2.670   3.933  0.00  0.00    +0.262 C 
ATOM      3  O   UNL     1      -3.718   2.537   2.790  0.00  0.00    -0.269 OA
ENDROOT
BRANCH   1   7
ATOM      4  C   UNL     1      -0.155   5.199   1.040  0.00  0.00    -0.048 A 
ATOM      5  C   UNL     1       0.423   5.141   2.295  0.00  0.00    +0.005 A 
ATOM      6  C   UNL     1      -0.248   4.533   3.337  0.00  0.00    +0.024 A 
ATOM      7  C   UNL     1      -1.500   3.970   3.122  0.00  0.00    +0.038 A 
ATOM      8  C   UNL     1      -2.075   4.026   1.859  0.00  0.00    +0.024 A 
ATOM      9  C   UNL     1      -1.401   4.640   0.821  0.00  0.00    +0.005 A 
BRANCH   4  11
ATOM     10  C   UNL     1       0.203   7.351  -0.140  0.00  0.00    +0.009 C 
ATOM     11  C   UNL     1       0.578   5.869  -0.095  0.00  0.00    +0.032 C 
ENDBRANCH   4  11
ENDBRANCH   1   7
BRANCH   2  12
ATOM     12  C   UNL     1      -4.076   2.092   5.045  0.00  0.00    +0.116 A 
ATOM     13  C   UNL     1      -4.918   0.979   5.058  0.00  0.00    +0.076 A 
ATOM     14  C   UNL     1      -5.465   0.738   6.318  0.00  0.00    +0.155 A 
ATOM     15  N   UNL     1      -5.154   1.534   7.317  0.00  0.00    -0.203 NA
ATOM     16  S   UNL     1      -4.162   2.616   6.744  0.00  0.00    +0.019 S 
BRANCH  14  17
ATOM     17  C   UNL     1      -6.382  -0.398   6.527  0.00  0.00    +0.262 C 
ATOM     18  O   UNL     1      -6.665  -1.130   5.599  0.00  0.00    -0.269 OA
ATOM     19  N   UNL     1      -6.906  -0.624   7.748  0.00  0.00    -0.324 N 
ATOM     20  H   UNL     1      -6.680  -0.040   8.489  0.00  0.00    +0.145 HD
ATOM     21  H   UNL     1      -7.510  -1.371   7.886  0.00  0.00    +0.145 HD
ENDBRANCH  14  17
BRANCH  13  22
ATOM     22  N   UNL     1      -5.183   0.198   3.940  0.00  0.00    -0.355 N 
ATOM     23  H   UNL     1      -4.772   0.416   3.088  0.00  0.00    +0.142 HD
ATOM     24  H   UNL     1      -5.778  -0.564   4.011  0.00  0.00    +0.142 HD
ENDBRANCH  13  22
ENDBRANCH   2  12
BRANCH   1  25
ATOM     25  C   UNL     1      -1.653   3.435   5.538  0.00  0.00    +0.197 C 
BRANCH  25  26
ATOM     26  C   UNL     1      -0.218   2.976   5.553  0.00  0.00    -0.018 A 
ATOM     27  C   UNL     1       0.327   2.375   4.434  0.00  0.00    +0.007 A 
ATOM     28  C   UNL     1       1.645   1.959   4.446  0.00  0.00    +0.020 A 
ATOM     29  C   UNL     1       2.416   2.134   5.581  0.00  0.00    +0.041 A 
ATOM     30  C   UNL     1       1.868   2.731   6.703  0.00  0.00    +0.020 A 
ATOM     31  C   UNL     1       0.552   3.152   6.688  0.00  0.00    +0.007 A 
ATOM     32 CL   UNL     1       4.069   1.605   5.599  0.00  0.00    -0.084 Cl
ENDBRANCH  25  26
BRANCH  25  33
ATOM     33  C   UNL     1      -1.729   4.862   6.016  0.00  0.00    +0.239 C 
ATOM     34  O   UNL     1      -1.815   5.767   5.213  0.00  0.00    -0.273 OA
ATOM     35  N   UNL     1      -1.702   5.133   7.336  0.00  0.00    -0.309 N 
ATOM     36  H   UNL     1      -1.633   4.410   7.979  0.00  0.00    +0.149 HD
BRANCH  35  37
ATOM     37  C   UNL     1      -1.776   6.521   7.801  0.00  0.00    +0.026 C 
ATOM     38  C   UNL     1      -3.086   7.150   7.322  0.00  0.00    +0.031 C 
ATOM     39  C   UNL     1      -1.726   6.550   9.330  0.00  0.00    +0.031 C 
ATOM     40  C   UNL     1      -0.594   7.311   7.237  0.00  0.00    +0.031 C 
ENDBRANCH  35  37
ENDBRANCH  25  33
ENDBRANCH   1  25
TORSDOF 9
