REMARK  Name = ZINC65752320
REMARK  5 active torsions:
REMARK  status: ('A' for Active; 'I' for Inactive)
REMARK    1  A    between atoms: C_3  and  C_6
REMARK    2  A    between atoms: C_6  and  C_7
REMARK    3  A    between atoms: C_6  and  N_23
REMARK    4  A    between atoms: C_7  and  N_8
REMARK    5  A    between atoms: N_11  and  C_12
REMARK                            x       y       z     vdW  Elec       q    Type
REMARK                         _______ _______ _______ _____ _____    ______ ____
ROOT
ATOM      1  N   UNL     1       3.505  -0.845   2.114  0.00  0.00    -0.300 N 
ATOM      2  C   UNL     1       3.713  -1.139   3.413  0.00  0.00    +0.304 C 
ATOM      3  O   UNL     1       4.380  -0.395   4.106  0.00  0.00    -0.253 OA
ATOM      4  N   UNL     1       3.181  -2.258   3.944  0.00  0.00    -0.269 N 
ATOM      5  H   UNL     1       2.973  -1.438   1.562  0.00  0.00    +0.150 HD
ATOM      6  H   UNL     1       2.593  -2.816   3.411  0.00  0.00    +0.156 HD
ENDROOT
BRANCH   4   7
ATOM      7  C   UNL     1       3.478  -2.615   5.266  0.00  0.00    +0.036 A 
ATOM      8  C   UNL     1       3.639  -1.626   6.233  0.00  0.00    +0.027 A 
ATOM      9  C   UNL     1       3.932  -1.961   7.537  0.00  0.00    +0.049 A 
ATOM     10  C   UNL     1       4.068  -3.296   7.899  0.00  0.00    +0.139 A 
ATOM     11  C   UNL     1       3.906  -4.298   6.926  0.00  0.00    +0.019 A 
ATOM     12  C   UNL     1       3.603  -3.949   5.607  0.00  0.00    +0.035 A 
ATOM     13  C   UNL     1       4.052  -5.702   7.321  0.00  0.00    +0.018 A 
ATOM     14  C   UNL     1       4.341  -5.977   8.618  0.00  0.00    +0.092 A 
ATOM     15  C   UNL     1       4.491  -4.920   9.542  0.00  0.00    +0.337 A 
ATOM     16  O   UNL     1       4.750  -5.180  10.704  0.00  0.00    -0.245 OA
ATOM     17  O   UNL     1       4.355  -3.638   9.174  0.00  0.00    -0.422 OA
ENDBRANCH   4   7
BRANCH   1  18
ATOM     18  C   UNL     1       4.083   0.372   1.537  0.00  0.00    +0.098 C 
BRANCH  18  19
ATOM     19  C   UNL     1       3.598   0.532   0.095  0.00  0.00    +0.016 C 
BRANCH  19  20
ATOM     20  N   UNL     1       3.902  -0.689  -0.663  0.00  0.00    +0.387 N 
ATOM     21  C   UNL     1       5.338  -0.978  -0.566  0.00  0.00    -0.078 C 
ATOM     22  C   UNL     1       5.647  -2.292  -1.286  0.00  0.00    -0.019 C 
ATOM     23  C   UNL     1       5.248  -2.167  -2.759  0.00  0.00    -0.004 C 
ATOM     24  C   UNL     1       3.766  -1.793  -2.846  0.00  0.00    -0.019 C 
ATOM     25  C   UNL     1       3.526  -0.497  -2.068  0.00  0.00    -0.078 C 
ATOM     26  H   UNL     1       3.379  -1.461  -0.278  0.00  0.00    -0.081 HD
ENDBRANCH  19  20
BRANCH  19  29
ATOM     27  C   UNL     1       0.111   1.723   0.006  0.00  0.00    +0.041 A 
ATOM     28  C   UNL     1       1.504   1.963  -0.042  0.00  0.00    +0.043 A 
ATOM     29  C   UNL     1       2.110   0.769   0.089  0.00  0.00    +0.093 A 
ATOM     30  O   UNL     1       1.163  -0.176   0.213  0.00  0.00    -0.469 OA
ATOM     31  C   UNL     1      -0.051   0.397   0.164  0.00  0.00    +0.195 A 
ENDBRANCH  19  29
ENDBRANCH  18  19
ENDBRANCH   1  18
TORSDOF 5
