REMARK  Name = ZINC06177714
REMARK  10 active torsions:
REMARK  status: ('A' for Active; 'I' for Inactive)
REMARK    1  A    between atoms: C_1  and  C_2
REMARK    2  A    between atoms: C_9  and  N_35
REMARK    3  A    between atoms: C_10  and  C_33
REMARK    4  A    between atoms: C_11  and  C_13
REMARK    5  A    between atoms: N_15  and  C_22
REMARK    6  A    between atoms: C_22  and  C_23
REMARK    7  A    between atoms: C_23  and  O_24
REMARK    8  A    between atoms: O_24  and  C_25
REMARK    9  A    between atoms: C_28  and  O_31
REMARK   10  A    between atoms: O_31  and  C_32
REMARK                            x       y       z     vdW  Elec       q    Type
REMARK                         _______ _______ _______ _____ _____    ______ ____
ROOT
ATOM      1  C   UNL     1      -1.367   0.105  -2.954  0.00  0.00    -0.009 A 
ATOM      2  C   UNL     1      -2.530  -0.560  -2.871  0.00  0.00    +0.091 A 
ATOM      3  N   UNL     1      -3.556   0.239  -3.297  0.00  0.00    -0.343 N 
ATOM      4  C   UNL     1      -3.065   1.469  -3.674  0.00  0.00    +0.049 A 
ATOM      5  C   UNL     1      -1.673   1.441  -3.470  0.00  0.00    +0.004 A 
ATOM      6  C   UNL     1      -0.903   2.568  -3.765  0.00  0.00    +0.010 A 
ATOM      7  C   UNL     1      -1.507   3.695  -4.248  0.00  0.00    +0.001 A 
ATOM      8  C   UNL     1      -2.880   3.729  -4.447  0.00  0.00    +0.002 A 
ATOM      9  C   UNL     1      -3.658   2.625  -4.171  0.00  0.00    +0.026 A 
ENDROOT
BRANCH   1  20
ATOM     10  C   UNL     1      -0.018   1.503   0.010  0.00  0.00    +0.068 C 
ATOM     11  C   UNL     1       0.002  -0.004   0.002  0.00  0.00    +0.068 A 
ATOM     12  C   UNL     1       0.008  -0.813  -1.126  0.00  0.00    +0.049 A 
ATOM     13  C   UNL     1       0.028  -2.116  -0.713  0.00  0.00    +0.222 A 
ATOM     14  N   UNL     1       0.033  -2.116   0.629  0.00  0.00    -0.246 N 
ATOM     15  H   UNL     1       0.046  -2.900   1.201  0.00  0.00    +0.192 HD
ATOM     16  N   UNL     1       0.023  -0.780   1.060  0.00  0.00    -0.176 NA
ATOM     17  O   UNL     1       0.042  -3.159  -1.580  0.00  0.00    -0.423 OA
ATOM     18  C   UNL     1       0.311  -2.892  -2.874  0.00  0.00    +0.200 C 
ATOM     19  C   UNL     1       0.309  -1.648  -3.402  0.00  0.00    +0.098 C 
ATOM     20  C   UNL     1      -0.005  -0.421  -2.581  0.00  0.00    +0.103 C 
BRANCH  18  21
ATOM     21  N   UNL     1       0.605  -3.945  -3.704  0.00  0.00    -0.328 N 
ATOM     22  H   UNL     1       0.615  -4.850  -3.354  0.00  0.00    +0.145 HD
ATOM     23  H   UNL     1       0.803  -3.785  -4.640  0.00  0.00    +0.145 HD
ENDBRANCH  18  21
BRANCH  19  24
ATOM     24  C   UNL     1       0.616  -1.487  -4.791  0.00  0.00    +0.101 C 
ATOM     25  N   UNL     1       0.860  -1.360  -5.894  0.00  0.00    -0.191 NA
ENDBRANCH  19  24
ENDBRANCH   1  20
BRANCH   3  26
ATOM     26  C   UNL     1      -4.966  -0.155  -3.344  0.00  0.00    +0.162 C 
BRANCH  26  27
ATOM     27  C   UNL     1      -5.307  -0.663  -4.746  0.00  0.00    +0.250 C 
BRANCH  27  28
ATOM     28  O   UNL     1      -6.683  -1.047  -4.793  0.00  0.00    -0.490 OA
BRANCH  28  29
ATOM     29  C   UNL     1      -7.151  -1.525  -5.977  0.00  0.00    +0.121 A 
ATOM     30  C   UNL     1      -6.301  -1.625  -7.068  0.00  0.00    +0.049 A 
ATOM     31  C   UNL     1      -6.777  -2.111  -8.271  0.00  0.00    +0.049 A 
ATOM     32  C   UNL     1      -8.104  -2.497  -8.387  0.00  0.00    +0.120 A 
ATOM     33  C   UNL     1      -8.953  -2.397  -7.295  0.00  0.00    +0.049 A 
ATOM     34  C   UNL     1      -8.476  -1.916  -6.091  0.00  0.00    +0.049 A 
BRANCH  32  35
ATOM     35  O   UNL     1      -8.572  -2.974  -9.571  0.00  0.00    -0.495 OA
ATOM     36  C   UNL     1      -9.949  -3.353  -9.619  0.00  0.00    +0.277 C 
ENDBRANCH  32  35
ENDBRANCH  28  29
ENDBRANCH  27  28
ENDBRANCH  26  27
ENDBRANCH   3  26
TORSDOF 8
