REMARK  Name = ZINC40230368
REMARK  4 active torsions:
REMARK  status: ('A' for Active; 'I' for Inactive)
REMARK    1  A    between atoms: C_3  and  N_9
REMARK    2  A    between atoms: N_9  and  S_10
REMARK    3  A    between atoms: S_10  and  N_13
REMARK    4  A    between atoms: C_17  and  C_20
REMARK                            x       y       z     vdW  Elec       q    Type
REMARK                         _______ _______ _______ _____ _____    ______ ____
ROOT
ATOM      1  S   UNL     1       5.029   1.323  -0.039  0.00  0.00    +0.131 S 
ATOM      2  O   UNL     1       5.127   0.637   1.202  0.00  0.00    -0.136 OA
ATOM      3  O   UNL     1       5.103   0.650  -1.289  0.00  0.00    -0.136 OA
ENDROOT
BRANCH   1   4
ATOM      4  N   UNL     1       6.227   2.465  -0.045  0.00  0.00    -0.161 NA
ATOM      5  C   UNL     1       6.752   2.993  -1.312  0.00  0.00    +0.111 C 
ATOM      6  C   UNL     1       6.665   4.522  -1.284  0.00  0.00    +0.018 C 
ATOM      7  C   UNL     1       7.383   5.047  -0.038  0.00  0.00    +0.017 C 
ATOM      8  C   UNL     1       6.697   4.501   1.216  0.00  0.00    +0.118 C 
ATOM      9  C   UNL     1       6.781   2.976   1.216  0.00  0.00    +0.125 C 
BRANCH   8  10
ATOM     10  C   UNL     1       7.384   5.045   2.442  0.00  0.00    +0.360 C 
ATOM     11  O   UNL     1       7.430   6.248   2.632  0.00  0.00    -0.246 OA
ATOM     12  O   UNL     1       7.895   4.281   3.244  0.00  0.00    -0.246 OA
ENDBRANCH   8  10
ENDBRANCH   1   4
BRANCH   1  13
ATOM     13  N   UNL     1       3.583   2.130  -0.021  0.00  0.00    -0.084 NA
BRANCH  13  16
ATOM     14  C   UNL     1      -0.017   1.378   0.010  0.00  0.00    +0.005 A 
ATOM     15  C   UNL     1       1.169   2.088   0.002  0.00  0.00    +0.030 A 
ATOM     16  C   UNL     1       2.382   1.413  -0.013  0.00  0.00    +0.113 A 
ATOM     17  C   UNL     1       2.401   0.022  -0.021  0.00  0.00    +0.183 A 
ATOM     18  C   UNL     1       1.209  -0.683  -0.013  0.00  0.00    +0.160 A 
ATOM     19  C   UNL     1       0.002  -0.004   0.002  0.00  0.00    +0.041 A 
ATOM     20  F   UNL     1       1.224  -2.034  -0.020  0.00  0.00    -0.202 F 
ATOM     21  F   UNL     1       3.579  -0.639  -0.036  0.00  0.00    -0.200 F 
ENDBRANCH  13  16
ENDBRANCH   1  13
TORSDOF 4
