REMARK  Name = ZINC09097214
REMARK  10 active torsions:
REMARK  status: ('A' for Active; 'I' for Inactive)
REMARK    1  A    between atoms: C_1  and  O_2
REMARK    2  A    between atoms: O_2  and  C_3
REMARK    3  A    between atoms: C_8  and  N_9
REMARK    4  A    between atoms: N_9  and  S_10
REMARK    5  A    between atoms: S_10  and  C_13
REMARK    6  A    between atoms: C_16  and  N_22
REMARK    7  A    between atoms: C_17  and  N_19
REMARK    8  A    between atoms: N_22  and  N_23
REMARK    9  A    between atoms: C_24  and  C_25
REMARK   10  A    between atoms: C_30  and  C_31
REMARK                            x       y       z     vdW  Elec       q    Type
REMARK                         _______ _______ _______ _____ _____    ______ ____
ROOT
ATOM      1  C   UNL     1       1.442   2.938   1.248  0.00  0.00    +0.111 A 
ATOM      2  C   UNL     1       0.953   4.232   1.231  0.00  0.00    +0.031 A 
ATOM      3  C   UNL     1       1.070   5.031   2.350  0.00  0.00    +0.029 A 
ATOM      4  C   UNL     1       1.688   4.537   3.493  0.00  0.00    +0.079 A 
ATOM      5  C   UNL     1       2.183   3.238   3.505  0.00  0.00    +0.150 A 
ATOM      6  C   UNL     1       2.058   2.443   2.383  0.00  0.00    +0.063 A 
ENDROOT
BRANCH   1   7
ATOM      7  S   UNL     1       1.285   1.919  -0.181  0.00  0.00    +0.073 S 
ATOM      8  O   UNL     1       2.312   0.940  -0.097  0.00  0.00    -0.150 OA
ATOM      9  O   UNL     1       1.159   2.796  -1.292  0.00  0.00    -0.150 OA
BRANCH   7  10
ATOM     10  N   UNL     1      -0.153   1.110  -0.051  0.00  0.00    -0.213 N 
ATOM     11  H   UNL     1      -0.164   0.140  -0.026  0.00  0.00    +0.174 HD
BRANCH  10  17
ATOM     12  C   UNL     1      -2.398   1.361   0.817  0.00  0.00    +0.142 A 
ATOM     13  C   UNL     1      -3.585   2.073   0.881  0.00  0.00    +0.047 A 
ATOM     14  C   UNL     1      -3.732   3.240   0.153  0.00  0.00    +0.004 A 
ATOM     15  C   UNL     1      -2.697   3.700  -0.639  0.00  0.00    +0.002 A 
ATOM     16  C   UNL     1      -1.508   2.999  -0.705  0.00  0.00    +0.028 A 
ATOM     17  C   UNL     1      -1.355   1.824   0.018  0.00  0.00    +0.090 A 
BRANCH  12  19
ATOM     18  C   UNL     1      -3.363  -0.200   2.329  0.00  0.00    +0.277 C 
ATOM     19  O   UNL     1      -2.252   0.214   1.532  0.00  0.00    -0.493 OA
ENDBRANCH  12  19
ENDBRANCH  10  17
ENDBRANCH   7  10
ENDBRANCH   1   7
BRANCH   5  20
ATOM     20  N   UNL     1       2.842   2.708   4.720  0.00  0.00    +0.058 N 
ATOM     21  O   UNL     1       3.371   1.611   4.696  0.00  0.00    -0.126 OA
ATOM     22  O   UNL     1       2.856   3.368   5.743  0.00  0.00    -0.126 OA
ENDBRANCH   5  20
BRANCH   4  23
ATOM     23  N   UNL     1       1.813   5.343   4.625  0.00  0.00    -0.236 N 
ATOM     24  H   UNL     1       2.174   4.974   5.446  0.00  0.00    +0.174 HD
BRANCH  23  25
ATOM     25  N   UNL     1       1.416   6.686   4.575  0.00  0.00    -0.190 NA
ATOM     26  C   UNL     1       1.532   7.437   5.628  0.00  0.00    +0.138 C 
BRANCH  26  27
ATOM     27  C   UNL     1       1.115   8.850   5.576  0.00  0.00    +0.006 A 
ATOM     28  C   UNL     1       1.233   9.659   6.709  0.00  0.00    +0.010 A 
ATOM     29  C   UNL     1       0.845  10.981   6.651  0.00  0.00    +0.001 A 
ATOM     30  C   UNL     1       0.330  11.504   5.478  0.00  0.00    +0.001 A 
ATOM     31  C   UNL     1       0.205  10.708   4.354  0.00  0.00    +0.013 A 
ATOM     32  C   UNL     1       0.594   9.385   4.395  0.00  0.00    +0.063 A 
BRANCH  32  33
ATOM     33  C   UNL     1       0.457   8.518   3.170  0.00  0.00    +0.418 C 
ATOM     34  F   UNL     1      -0.084   9.273   2.123  0.00  0.00    -0.166 F 
ATOM     35  F   UNL     1       1.717   8.038   2.795  0.00  0.00    -0.166 F 
ATOM     36  F   UNL     1      -0.388   7.440   3.453  0.00  0.00    -0.166 F 
ENDBRANCH  32  33
ENDBRANCH  26  27
ENDBRANCH  23  25
ENDBRANCH   4  23
TORSDOF 9
