REMARK  Name = ZINC20707049
REMARK  5 active torsions:
REMARK  status: ('A' for Active; 'I' for Inactive)
REMARK    1  A    between atoms: C_1  and  N_2
REMARK    2  A    between atoms: N_5  and  S_8
REMARK    3  A    between atoms: S_8  and  C_11
REMARK    4  A    between atoms: C_24  and  C_27
REMARK    5  A    between atoms: C_32  and  O_33
REMARK                            x       y       z     vdW  Elec       q    Type
REMARK                         _______ _______ _______ _____ _____    ______ ____
ROOT
ATOM      1  C   UNL     1      -4.872  -0.325   1.602  0.00  0.00    +0.106 A 
ATOM      2  C   UNL     1      -5.106  -0.246   0.241  0.00  0.00    +0.030 A 
ATOM      3  C   UNL     1      -4.683   0.864  -0.462  0.00  0.00    +0.025 A 
ATOM      4  C   UNL     1      -4.026   1.895   0.196  0.00  0.00    +0.031 A 
ATOM      5  C   UNL     1      -3.790   1.821   1.560  0.00  0.00    -0.018 A 
ATOM      6  C   UNL     1      -4.219   0.700   2.256  0.00  0.00    +0.034 A 
ATOM      7  C   UNL     1      -3.092   2.909   2.312  0.00  0.00    +0.049 C 
ATOM      8  C   UNL     1      -1.675   2.519   2.659  0.00  0.00    -0.023 C 
ATOM      9  C   UNL     1      -0.885   3.562   2.582  0.00  0.00    -0.030 C 
ATOM     10  C   UNL     1      -1.671   4.795   2.177  0.00  0.00    +0.033 C 
ATOM     11  C   UNL     1      -2.938   4.205   1.491  0.00  0.00    +0.029 C 
ATOM     12  C   UNL     1      -2.557   3.865   0.047  0.00  0.00    +0.108 C 
ATOM     13  N   UNL     1      -3.602   3.013  -0.531  0.00  0.00    -0.336 N 
ATOM     14  H   UNL     1      -4.031   3.259  -1.514  0.00  0.00    +0.147 HD
ENDROOT
BRANCH  12  15
ATOM     15  C   UNL     1      -1.241   3.131   0.031  0.00  0.00    +0.014 A 
ATOM     16  C   UNL     1      -1.216   1.753   0.127  0.00  0.00    +0.009 A 
ATOM     17  C   UNL     1      -0.009   1.080   0.118  0.00  0.00    +0.001 A 
ATOM     18  C   UNL     1       1.176   1.782   0.001  0.00  0.00    +0.004 A 
ATOM     19  C   UNL     1       1.157   3.159  -0.102  0.00  0.00    +0.046 A 
ATOM     20  C   UNL     1      -0.054   3.838  -0.088  0.00  0.00    +0.122 A 
BRANCH  20  21
ATOM     21  O   UNL     1      -0.075   5.193  -0.188  0.00  0.00    -0.506 OA
ATOM     22  H   UNL     1       0.867   5.753  -0.282  0.00  0.00    +0.292 HD
ENDBRANCH  20  21
ENDBRANCH  12  15
BRANCH   1  23
ATOM     23  S   UNL     1      -5.409  -1.740   2.504  0.00  0.00    +0.061 S 
ATOM     24  O   UNL     1      -5.555  -1.329   3.856  0.00  0.00    -0.153 OA
ATOM     25  O   UNL     1      -6.477  -2.313   1.763  0.00  0.00    -0.153 OA
BRANCH  23  30
ATOM     26  C   UNL     1      -0.315  -4.059   1.351  0.00  0.00    -0.096 C 
ATOM     27  N   UNL     1      -1.675  -3.934   1.891  0.00  0.00    +0.380 N 
ATOM     28  C   UNL     1      -1.761  -2.824   2.850  0.00  0.00    -0.062 C 
ATOM     29  C   UNL     1      -3.137  -2.840   3.523  0.00  0.00    +0.091 C 
ATOM     30  N   UNL     1      -4.170  -2.839   2.475  0.00  0.00    -0.180 NA
ATOM     31  C   UNL     1      -4.075  -3.842   1.404  0.00  0.00    +0.091 C 
ATOM     32  C   UNL     1      -2.659  -3.783   0.811  0.00  0.00    -0.062 C 
ATOM     33  H   UNL     1      -1.912  -4.862   2.433  0.00  0.00    -0.082 HD
ENDBRANCH  23  30
ENDBRANCH   1  23
TORSDOF 4
