REMARK  Name = ZINC39856378
REMARK  7 active torsions:
REMARK  status: ('A' for Active; 'I' for Inactive)
REMARK    1  A    between atoms: C_1  and  C_2
REMARK    2  A    between atoms: C_6  and  C_7
REMARK    3  A    between atoms: C_7  and  S_9
REMARK    4  A    between atoms: S_9  and  C_10
REMARK    5  A    between atoms: C_20  and  C_28
REMARK    6  A    between atoms: C_20  and  C_29
REMARK    7  A    between atoms: N_23  and  N_24
REMARK                            x       y       z     vdW  Elec       q    Type
REMARK                         _______ _______ _______ _____ _____    ______ ____
ROOT
ATOM      1  C   UNL     1      -0.018   1.503   0.010  0.00  0.00    +0.048 C 
ATOM      2  C   UNL     1       0.002  -0.004   0.002  0.00  0.00    +0.008 A 
ATOM      3  C   UNL     1       0.008  -0.838  -1.122  0.00  0.00    +0.042 A 
ATOM      4  C   UNL     1       0.026  -2.137  -0.673  0.00  0.00    +0.116 A 
ATOM      5  O   UNL     1       0.034  -2.112   0.658  0.00  0.00    -0.455 OA
ATOM      6  C   UNL     1       0.024  -0.831   1.091  0.00  0.00    +0.185 A 
ATOM      7  C   UNL     1       0.033  -3.326  -1.600  0.00  0.00    +0.081 C 
ATOM      8  C   UNL     1      -0.492  -2.902  -2.974  0.00  0.00    -0.023 C 
ATOM      9  C   UNL     1       0.280  -1.685  -3.495  0.00  0.00    +0.064 C 
ATOM     10  C   UNL     1       0.001  -0.512  -2.566  0.00  0.00    +0.071 C 
ATOM     11  N   UNL     1      -0.226   0.686  -3.007  0.00  0.00    -0.183 NA
ATOM     12  C   UNL     1      -1.976  -2.548  -2.861  0.00  0.00    +0.011 C 
ATOM     13  C   UNL     1      -0.325  -4.063  -3.957  0.00  0.00    +0.011 C 
ENDROOT
BRANCH  11  14
ATOM     14  N   UNL     1      -0.221   0.938  -4.386  0.00  0.00    -0.191 N 
ATOM     15  C   UNL     1      -0.458   2.183  -4.844  0.00  0.00    +0.317 C 
ATOM     16  O   UNL     1      -0.453   2.401  -6.041  0.00  0.00    -0.251 OA
ATOM     17  N   UNL     1      -0.698   3.186  -3.977  0.00  0.00    -0.312 N 
ATOM     18  H   UNL     1      -0.048   0.216  -5.010  0.00  0.00    +0.179 HD
ATOM     19  H   UNL     1      -0.702   3.012  -3.023  0.00  0.00    +0.147 HD
ATOM     20  H   UNL     1      -0.868   4.082  -4.307  0.00  0.00    +0.147 HD
ENDBRANCH  11  14
BRANCH   6  21
ATOM     21  C   UNL     1       0.032  -0.400   2.493  0.00  0.00    +0.261 C 
ATOM     22  O   UNL     1       0.018   0.786   2.765  0.00  0.00    -0.276 OA
BRANCH  21  23
ATOM     23  S   UNL     1       0.061  -1.600   3.783  0.00  0.00    -0.017 S 
BRANCH  23  24
ATOM     24  C   UNL     1       0.062  -0.639   5.260  0.00  0.00    +0.143 A 
ATOM     25  N   UNL     1       0.039   0.668   5.392  0.00  0.00    -0.232 NA
ATOM     26  C   UNL     1       0.043   1.275   6.598  0.00  0.00    +0.079 A 
ATOM     27  C   UNL     1       0.021   2.661   6.878  0.00  0.00    +0.029 A 
ATOM     28  C   UNL     1       0.030   3.115   8.171  0.00  0.00    +0.002 A 
ATOM     29  C   UNL     1       0.061   2.238   9.246  0.00  0.00    +0.001 A 
ATOM     30  C   UNL     1       0.082   0.876   9.010  0.00  0.00    +0.017 A 
ATOM     31  C   UNL     1       0.073   0.413   7.718  0.00  0.00    +0.040 A 
ATOM     32  S   UNL     1       0.086  -1.194   6.958  0.00  0.00    -0.061 S 
ENDBRANCH  23  24
ENDBRANCH  21  23
ENDBRANCH   6  21
TORSDOF 4
