REMARK  Name = ZINC38659762
REMARK  11 active torsions:
REMARK  status: ('A' for Active; 'I' for Inactive)
REMARK    1  A    between atoms: C_1  and  O_2
REMARK    2  A    between atoms: O_2  and  C_3
REMARK    3  A    between atoms: C_6  and  O_35
REMARK    4  A    between atoms: C_7  and  C_9
REMARK    5  A    between atoms: C_14  and  O_23
REMARK    6  A    between atoms: C_18  and  N_22
REMARK    7  A    between atoms: C_19  and  C_20
REMARK    8  A    between atoms: O_23  and  C_24
REMARK    9  A    between atoms: C_24  and  C_26
REMARK   10  A    between atoms: C_27  and  C_28
REMARK   11  A    between atoms: O_35  and  C_36
REMARK                            x       y       z     vdW  Elec       q    Type
REMARK                         _______ _______ _______ _____ _____    ______ ____
ROOT
ATOM      1  C   UNL     1       1.376  -4.119  -2.323  0.00  0.00    +0.102 C 
ATOM      2  C   UNL     1       2.107  -4.652  -1.119  0.00  0.00    +0.008 A 
ATOM      3  C   UNL     1       3.490  -4.656  -1.110  0.00  0.00    +0.012 A 
ATOM      4  C   UNL     1       4.178  -5.141  -0.015  0.00  0.00    +0.047 A 
ATOM      5  C   UNL     1       3.480  -5.627   1.082  0.00  0.00    +0.135 A 
ATOM      6  C   UNL     1       2.095  -5.623   1.076  0.00  0.00    +0.093 A 
ATOM      7  C   UNL     1       1.405  -5.135  -0.026  0.00  0.00    +0.138 A 
ATOM      8  O   UNL     1       0.049  -5.139  -0.016  0.00  0.00    -0.441 OA
ATOM      9  C   UNL     1      -0.629  -5.048  -1.172  0.00  0.00    +0.199 C 
ATOM     10  C   UNL     1      -0.057  -4.572  -2.299  0.00  0.00    +0.098 C 
ENDROOT
BRANCH   1  15
ATOM     11  C   UNL     1       0.917  -0.527  -1.240  0.00  0.00    +0.121 A 
ATOM     12  C   UNL     1       1.513   0.157  -2.289  0.00  0.00    +0.049 A 
ATOM     13  C   UNL     1       2.063  -0.542  -3.346  0.00  0.00    +0.049 A 
ATOM     14  C   UNL     1       2.019  -1.928  -3.358  0.00  0.00    +0.124 A 
ATOM     15  C   UNL     1       1.423  -2.612  -2.309  0.00  0.00    +0.010 A 
ATOM     16  C   UNL     1       0.878  -1.913  -1.250  0.00  0.00    +0.053 A 
BRANCH  11  18
ATOM     17  C   UNL     1       0.450   1.587  -0.256  0.00  0.00    +0.277 C 
ATOM     18  O   UNL     1       0.375   0.161  -0.200  0.00  0.00    -0.495 OA
ENDBRANCH  11  18
BRANCH  14  19
ATOM     19  O   UNL     1       2.561  -2.616  -4.399  0.00  0.00    -0.495 OA
ATOM     20  C   UNL     1       3.158  -1.847  -5.444  0.00  0.00    +0.277 C 
ENDBRANCH  14  19
ENDBRANCH   1  15
BRANCH   9  21
ATOM     21  N   UNL     1      -1.942  -5.448  -1.207  0.00  0.00    -0.328 N 
ATOM     22  H   UNL     1      -2.366  -5.791  -0.405  0.00  0.00    +0.145 HD
ATOM     23  H   UNL     1      -2.445  -5.388  -2.034  0.00  0.00    +0.145 HD
ENDBRANCH   9  21
BRANCH  10  24
ATOM     24  C   UNL     1      -0.836  -4.498  -3.499  0.00  0.00    +0.101 C 
ATOM     25  N   UNL     1      -1.454  -4.440  -4.450  0.00  0.00    -0.191 NA
ENDBRANCH  10  24
BRANCH   5  26
ATOM     26  O   UNL     1       4.155  -6.105   2.160  0.00  0.00    -0.423 OA
BRANCH  26  27
ATOM     27  C   UNL     1       4.835  -5.225   2.924  0.00  0.00    +0.337 C 
ATOM     28  O   UNL     1       4.748  -4.032   2.701  0.00  0.00    -0.245 OA
BRANCH  27  29
ATOM     29  C   UNL     1       5.678  -5.704   4.018  0.00  0.00    +0.092 C 
ATOM     30  C   UNL     1       6.358  -4.823   4.781  0.00  0.00    +0.016 C 
BRANCH  30  31
ATOM     31  C   UNL     1       7.206  -5.306   5.882  0.00  0.00    -0.006 A 
ATOM     32  C   UNL     1       7.314  -6.677   6.138  0.00  0.00    +0.009 A 
ATOM     33  C   UNL     1       8.110  -7.121   7.172  0.00  0.00    +0.001 A 
ATOM     34  C   UNL     1       8.802  -6.215   7.957  0.00  0.00    +0.001 A 
ATOM     35  C   UNL     1       8.702  -4.857   7.712  0.00  0.00    +0.020 A 
ATOM     36  C   UNL     1       7.914  -4.396   6.676  0.00  0.00    +0.048 A 
ATOM     37 CL   UNL     1       7.795  -2.692   6.365  0.00  0.00    -0.083 Cl
ENDBRANCH  30  31
ENDBRANCH  27  29
ENDBRANCH  26  27
ENDBRANCH   5  26
TORSDOF 9
