REMARK  Name = ZINC64773398
REMARK  10 active torsions:
REMARK  status: ('A' for Active; 'I' for Inactive)
REMARK    1  A    between atoms: C_1  and  C_2
REMARK    2  A    between atoms: C_2  and  O_3
REMARK    3  A    between atoms: O_3  and  C_4
REMARK    4  A    between atoms: C_6  and  C_15
REMARK    5  A    between atoms: C_9  and  O_10
REMARK    6  A    between atoms: O_10  and  C_11
REMARK    7  A    between atoms: C_11  and  C_12
REMARK    8  A    between atoms: C_23  and  S_29
REMARK    9  A    between atoms: S_29  and  C_30
REMARK   10  A    between atoms: C_30  and  C_31
REMARK                            x       y       z     vdW  Elec       q    Type
REMARK                         _______ _______ _______ _____ _____    ______ ____
ROOT
ATOM      1  C   UNL     1      -0.229  -4.969   0.477  0.00  0.00    +0.047 C 
ATOM      2  C   UNL     1      -1.278  -5.873  -0.175  0.00  0.00    +0.105 C 
ATOM      3  C   UNL     1      -1.653  -7.005   0.735  0.00  0.00    +0.219 C 
ATOM      4  O   UNL     1      -2.700  -7.581   0.532  0.00  0.00    -0.275 OA
ATOM      5  N   UNL     1      -0.894  -7.415   1.762  0.00  0.00    -0.273 N 
ATOM      6  C   UNL     1       0.257  -6.757   2.090  0.00  0.00    +0.117 C 
ATOM      7  N   UNL     1       0.794  -6.902   3.267  0.00  0.00    -0.212 NA
ATOM      8  C   UNL     1       1.856  -6.186   3.660  0.00  0.00    +0.182 C 
ATOM      9  N   UNL     1       2.401  -5.253   2.893  0.00  0.00    -0.154 NA
ATOM     10  C   UNL     1       1.972  -5.028   1.659  0.00  0.00    +0.249 C 
ATOM     11  O   UNL     1       2.476  -4.135   1.006  0.00  0.00    -0.273 OA
ATOM     12  C   UNL     1       0.879  -5.853   1.056  0.00  0.00    +0.148 C 
ATOM     13  H   UNL     1      -1.167  -8.188   2.279  0.00  0.00    +0.156 HD
ENDROOT
BRANCH   1  16
ATOM     14  C   UNL     1       0.777  -1.811  -1.336  0.00  0.00    +0.162 A 
ATOM     15  C   UNL     1       0.243  -2.669  -0.388  0.00  0.00    +0.053 A 
ATOM     16  C   UNL     1       0.352  -4.037  -0.555  0.00  0.00    -0.039 A 
ATOM     17  C   UNL     1       0.992  -4.552  -1.667  0.00  0.00    +0.008 A 
ATOM     18  C   UNL     1       1.526  -3.702  -2.616  0.00  0.00    +0.050 A 
ATOM     19  C   UNL     1       1.416  -2.330  -2.458  0.00  0.00    +0.163 A 
BRANCH  14  20
ATOM     20  O   UNL     1       0.671  -0.465  -1.174  0.00  0.00    -0.489 OA
BRANCH  20  22
ATOM     21  C   UNL     1      -0.019   1.526   0.010  0.00  0.00    +0.048 C 
ATOM     22  C   UNL     1       0.002  -0.004   0.002  0.00  0.00    +0.226 C 
ENDBRANCH  20  22
ENDBRANCH  14  20
BRANCH  19  23
ATOM     23  O   UNL     1       1.936  -1.492  -3.394  0.00  0.00    -0.479 OA
BRANCH  23  24
ATOM     24  C   UNL     1       2.578  -2.095  -4.520  0.00  0.00    +0.324 C 
BRANCH  24  25
ATOM     25  C   UNL     1       3.088  -1.019  -5.443  0.00  0.00    +0.248 C 
ATOM     26  O   UNL     1       2.919   0.150  -5.165  0.00  0.00    -0.272 OA
ATOM     27  N   UNL     1       3.733  -1.355  -6.578  0.00  0.00    -0.327 N 
ATOM     28  H   UNL     1       3.868  -2.289  -6.801  0.00  0.00    +0.145 HD
ATOM     29  H   UNL     1       4.061  -0.662  -7.173  0.00  0.00    +0.145 HD
ENDBRANCH  24  25
ENDBRANCH  23  24
ENDBRANCH  19  23
ENDBRANCH   1  16
BRANCH   8  30
ATOM     30  S   UNL     1       2.549  -6.494   5.251  0.00  0.00    -0.084 S 
BRANCH  30  31
ATOM     31  C   UNL     1       3.933  -5.326   5.360  0.00  0.00    +0.112 C 
BRANCH  31  32
ATOM     32  C   UNL     1       4.622  -5.487   6.691  0.00  0.00    -0.037 A 
ATOM     33  C   UNL     1       4.204  -4.745   7.779  0.00  0.00    +0.007 A 
ATOM     34  C   UNL     1       4.835  -4.892   9.000  0.00  0.00    +0.038 A 
ATOM     35  C   UNL     1       5.886  -5.783   9.132  0.00  0.00    +0.123 A 
ATOM     36  C   UNL     1       6.304  -6.526   8.041  0.00  0.00    +0.038 A 
ATOM     37  C   UNL     1       5.668  -6.381   6.823  0.00  0.00    +0.007 A 
ATOM     38  F   UNL     1       6.504  -5.927  10.325  0.00  0.00    -0.205 F 
ENDBRANCH  31  32
ENDBRANCH  30  31
ENDBRANCH   8  30
TORSDOF 9
