REMARK  Name = ZINC40983528
REMARK  11 active torsions:
REMARK  status: ('A' for Active; 'I' for Inactive)
REMARK    1  A    between atoms: C_1  and  C_2
REMARK    2  A    between atoms: C_2  and  C_3
REMARK    3  A    between atoms: C_3  and  C_4
REMARK    4  A    between atoms: C_4  and  S_5
REMARK    5  A    between atoms: S_5  and  C_6
REMARK    6  A    between atoms: C_11  and  C_27
REMARK    7  A    between atoms: C_13  and  C_17
REMARK    8  A    between atoms: C_14  and  C_16
REMARK    9  A    between atoms: N_19  and  C_20
REMARK   10  A    between atoms: C_23  and  C_26
REMARK   11  A    between atoms: C_32  and  N_33
REMARK                            x       y       z     vdW  Elec       q    Type
REMARK                         _______ _______ _______ _____ _____    ______ ____
ROOT
ATOM      1  C   UNL     1      -2.966  -4.974  -0.632  0.00  0.00    +0.210 A 
ATOM      2  N   UNL     1      -1.742  -5.505  -0.497  0.00  0.00    -0.187 NA
ATOM      3  C   UNL     1      -1.847  -6.775  -0.211  0.00  0.00    +0.219 A 
ATOM      4  N   UNL     1      -3.165  -7.088  -0.161  0.00  0.00    -0.220 N 
ATOM      5  N   UNL     1      -3.865  -5.912  -0.426  0.00  0.00    -0.141 NA
ATOM      6  C   UNL     1      -3.666  -8.429   0.126  0.00  0.00    +0.179 C 
ATOM      7  C   UNL     1      -2.539  -9.288   0.634  0.00  0.00    +0.060 C 
ATOM      8  C   UNL     1      -1.250  -8.923   0.561  0.00  0.00    +0.018 C 
ATOM      9  N   UNL     1      -0.859  -7.723   0.021  0.00  0.00    -0.287 N 
ATOM     10  C   UNL     1      -0.197  -9.862   1.089  0.00  0.00    +0.061 C 
ATOM     11  H   UNL     1       0.070  -7.544  -0.190  0.00  0.00    +0.155 HD
ENDROOT
BRANCH   6  12
ATOM     12  C   UNL     1      -4.230  -9.034  -1.134  0.00  0.00    +0.012 A 
ATOM     13  C   UNL     1      -3.477  -9.045  -2.293  0.00  0.00    +0.008 A 
ATOM     14  C   UNL     1      -3.994  -9.600  -3.449  0.00  0.00    +0.000 A 
ATOM     15  C   UNL     1      -5.264 -10.145  -3.445  0.00  0.00    +0.002 A 
ATOM     16  C   UNL     1      -6.017 -10.136  -2.286  0.00  0.00    +0.033 A 
ATOM     17  C   UNL     1      -5.498  -9.584  -1.129  0.00  0.00    +0.132 A 
BRANCH  17  18
ATOM     18  N   UNL     1      -6.302  -9.579   0.114  0.00  0.00    +0.057 N 
ATOM     19  O   UNL     1      -7.353 -10.175   0.156  0.00  0.00    -0.126 OA
ATOM     20  O   UNL     1      -5.908  -8.978   1.086  0.00  0.00    -0.126 OA
ENDBRANCH  17  18
ENDBRANCH   6  12
BRANCH   7  21
ATOM     21  C   UNL     1      -2.854 -10.538   1.217  0.00  0.00    +0.248 C 
ATOM     22  O   UNL     1      -3.368 -10.583   2.320  0.00  0.00    -0.270 OA
ATOM     23  N   UNL     1      -2.584 -11.679   0.552  0.00  0.00    -0.282 N 
ATOM     24  H   UNL     1      -2.243 -11.642  -0.355  0.00  0.00    +0.155 HD
BRANCH  23  25
ATOM     25  C   UNL     1      -2.796 -12.915   1.170  0.00  0.00    +0.034 A 
ATOM     26  C   UNL     1      -3.867 -13.085   2.038  0.00  0.00    +0.023 A 
ATOM     27  C   UNL     1      -4.074 -14.307   2.647  0.00  0.00    +0.005 A 
ATOM     28  C   UNL     1      -3.217 -15.361   2.393  0.00  0.00    -0.050 A 
ATOM     29  C   UNL     1      -2.150 -15.196   1.529  0.00  0.00    +0.005 A 
ATOM     30  C   UNL     1      -1.940 -13.978   0.912  0.00  0.00    +0.023 A 
ATOM     31  C   UNL     1      -3.445 -16.694   3.059  0.00  0.00    +0.044 C 
ENDBRANCH  23  25
ENDBRANCH   7  21
BRANCH   1  32
ATOM     32  S   UNL     1      -3.314  -3.289  -1.014  0.00  0.00    -0.084 S 
BRANCH  32  33
ATOM     33  C   UNL     1      -1.675  -2.529  -1.175  0.00  0.00    +0.077 C 
BRANCH  33  34
ATOM     34  C   UNL     1      -1.833  -1.044  -1.511  0.00  0.00    +0.011 C 
BRANCH  34  36
ATOM     35  C   UNL     1      -0.608   1.082  -1.983  0.00  0.00    +0.004 C 
ATOM     36  C   UNL     1      -0.450  -0.403  -1.647  0.00  0.00    -0.003 C 
ENDBRANCH  34  36
ENDBRANCH  33  34
ENDBRANCH  32  33
ENDBRANCH   1  32
TORSDOF 8
