REMARK  Name = ZINC45606759
REMARK  7 active torsions:
REMARK  status: ('A' for Active; 'I' for Inactive)
REMARK    1  A    between atoms: C_1  and  C_2
REMARK    2  A    between atoms: C_2  and  C_4
REMARK    3  A    between atoms: C_2  and  N_13
REMARK    4  A    between atoms: C_4  and  C_5
REMARK    5  A    between atoms: C_5  and  C_6
REMARK    6  A    between atoms: C_9  and  O_12
REMARK    7  A    between atoms: C_19  and  C_22
REMARK                            x       y       z     vdW  Elec       q    Type
REMARK                         _______ _______ _______ _____ _____    ______ ____
ROOT
ATOM      1  N   UNL     1       0.688  -0.478  -1.203  0.00  0.00    -0.297 N 
ATOM      2  C   UNL     1       0.006  -0.608  -2.358  0.00  0.00    +0.303 C 
ATOM      3  O   UNL     1      -1.195  -0.421  -2.380  0.00  0.00    -0.253 OA
ATOM      4  N   UNL     1       0.656  -0.945  -3.490  0.00  0.00    -0.282 N 
ATOM      5  C   UNL     1      -0.037  -0.985  -4.789  0.00  0.00    +0.114 C 
ATOM      6  C   UNL     1       0.615   0.054  -5.704  0.00  0.00    +0.054 C 
ATOM      7  C   UNL     1       2.110  -0.042  -5.623  0.00  0.00    -0.039 C 
ATOM      8  C   UNL     1       2.763  -0.624  -4.644  0.00  0.00    -0.004 C 
ATOM      9  C   UNL     1       2.087  -1.282  -3.478  0.00  0.00    +0.137 C 
ATOM     10  H   UNL     1       1.631  -0.699  -1.169  0.00  0.00    +0.151 HD
ENDROOT
BRANCH   7  11
ATOM     11  C   UNL     1       2.899   0.557  -6.717  0.00  0.00    +0.005 A 
ATOM     12  C   UNL     1       3.061   0.058  -7.969  0.00  0.00    +0.093 A 
ATOM     13  N   UNL     1       3.859   0.893  -8.698  0.00  0.00    -0.345 N 
ATOM     14  H   UNL     1       4.117   0.746  -9.622  0.00  0.00    +0.167 HD
ATOM     15  C   UNL     1       4.245   1.971  -7.936  0.00  0.00    +0.139 A 
ATOM     16  C   UNL     1       3.661   1.815  -6.667  0.00  0.00    +0.026 A 
ATOM     17  C   UNL     1       3.884   2.779  -5.684  0.00  0.00    +0.013 A 
ATOM     18  C   UNL     1       4.679   3.864  -6.005  0.00  0.00    +0.020 A 
ATOM     19  C   UNL     1       5.221   3.956  -7.277  0.00  0.00    +0.113 A 
ATOM     20  N   UNL     1       5.003   3.030  -8.188  0.00  0.00    -0.237 NA
ENDBRANCH   7  11
BRANCH   1  22
ATOM     21  C   UNL     1      -0.014   1.526   0.010  0.00  0.00    +0.028 C 
ATOM     22  C   UNL     1       0.003  -0.004   0.002  0.00  0.00    +0.072 C 
BRANCH  22  23
ATOM     23  C   UNL     1       0.741  -0.512   1.242  0.00  0.00    +0.026 C 
BRANCH  23  24
ATOM     24  C   UNL     1       0.650  -2.038   1.299  0.00  0.00    +0.037 C 
BRANCH  24  25
ATOM     25  C   UNL     1       1.377  -2.539   2.521  0.00  0.00    -0.047 A 
ATOM     26  C   UNL     1       2.723  -2.847   2.445  0.00  0.00    +0.007 A 
ATOM     27  C   UNL     1       3.391  -3.307   3.563  0.00  0.00    +0.045 A 
ATOM     28  C   UNL     1       2.711  -3.459   4.763  0.00  0.00    +0.117 A 
ATOM     29  C   UNL     1       1.361  -3.149   4.836  0.00  0.00    +0.045 A 
ATOM     30  C   UNL     1       0.698  -2.684   3.716  0.00  0.00    +0.007 A 
BRANCH  28  31
ATOM     31  O   UNL     1       3.366  -3.911   5.864  0.00  0.00    -0.507 OA
ATOM     32  H   UNL     1       3.759  -3.211   6.403  0.00  0.00    +0.292 HD
ENDBRANCH  28  31
ENDBRANCH  24  25
ENDBRANCH  23  24
ENDBRANCH  22  23
ENDBRANCH   1  22
TORSDOF 6
