REMARK  Name = ZINC39532700
REMARK  11 active torsions:
REMARK  status: ('A' for Active; 'I' for Inactive)
REMARK    1  A    between atoms: C_1  and  C_2
REMARK    2  A    between atoms: C_2  and  C_3
REMARK    3  A    between atoms: C_3  and  C_4
REMARK    4  A    between atoms: C_7  and  C_10
REMARK    5  A    between atoms: C_10  and  C_12
REMARK    6  A    between atoms: C_10  and  N_21
REMARK    7  A    between atoms: C_12  and  N_13
REMARK    8  A    between atoms: N_13  and  C_14
REMARK    9  A    between atoms: C_19  and  O_20
REMARK   10  A    between atoms: C_25  and  O_28
REMARK   11  A    between atoms: O_28  and  C_29
REMARK                            x       y       z     vdW  Elec       q    Type
REMARK                         _______ _______ _______ _____ _____    ______ ____
ROOT
ATOM      1  C   UNL     1       0.829  -6.290   1.214  0.00  0.00    -0.020 C 
ENDROOT
BRANCH   1   2
ATOM      2  N   UNL     1       1.275  -6.856  -0.066  0.00  0.00    +0.389 N 
ATOM      3  C   UNL     1       0.479  -6.282  -1.159  0.00  0.00    -0.062 C 
ATOM      4  C   UNL     1       0.956  -6.856  -2.494  0.00  0.00    +0.065 C 
ATOM      5  N   UNL     1       0.810  -8.319  -2.475  0.00  0.00    -0.295 NA
ATOM      6  C   UNL     1       1.582  -8.905  -1.371  0.00  0.00    +0.169 C 
ATOM      7  C   UNL     1       1.100  -8.314  -0.044  0.00  0.00    -0.030 C 
ATOM      8  H   UNL     1      -0.161  -8.585  -2.418  0.00  0.00    +0.124 HD
ATOM      9  H   UNL     1       2.250  -6.636  -0.209  0.00  0.00    -0.081 HD
BRANCH   6  10
ATOM     10  O   UNL     1       1.395 -10.322  -1.358  0.00  0.00    -0.367 OA
ATOM     11  C   UNL     1       2.106 -11.012  -2.388  0.00  0.00    +0.196 C 
ENDBRANCH   6  10
ENDBRANCH   1   2
BRANCH   1  15
ATOM     12  C   UNL     1       1.234  -2.039   1.113  0.00  0.00    -0.047 A 
ATOM     13  C   UNL     1       0.127  -2.614   1.707  0.00  0.00    +0.004 A 
ATOM     14  C   UNL     1      -0.004  -3.989   1.740  0.00  0.00    +0.002 A 
ATOM     15  C   UNL     1       0.972  -4.790   1.177  0.00  0.00    -0.059 A 
ATOM     16  C   UNL     1       2.079  -4.215   0.582  0.00  0.00    +0.002 A 
ATOM     17  C   UNL     1       2.208  -2.840   0.545  0.00  0.00    +0.004 A 
BRANCH  12  18
ATOM     18  C   UNL     1       1.377  -0.539   1.077  0.00  0.00    +0.035 C 
BRANCH  18  20
ATOM     19  C   UNL     1       0.868   1.528  -0.231  0.00  0.00    +0.004 C 
ATOM     20  C   UNL     1       0.723   0.006  -0.194  0.00  0.00    +0.001 C 
ENDBRANCH  18  20
ENDBRANCH  12  18
ENDBRANCH   1  15
BRANCH   1  21
ATOM     21  C   UNL     1       1.686  -6.856   2.348  0.00  0.00    +0.091 C 
BRANCH  21  22
ATOM     22  N   UNL     1       1.181  -6.367   3.633  0.00  0.00    -0.342 N 
ATOM     23  H   UNL     1       0.369  -5.838   3.665  0.00  0.00    +0.146 HD
BRANCH  22  24
ATOM     24  C   UNL     1       1.869  -6.665   4.815  0.00  0.00    +0.069 A 
ATOM     25  C   UNL     1       3.034  -7.417   4.771  0.00  0.00    +0.026 A 
ATOM     26  C   UNL     1       3.712  -7.709   5.939  0.00  0.00    +0.002 A 
ATOM     27  C   UNL     1       3.233  -7.252   7.153  0.00  0.00    +0.004 A 
ATOM     28  C   UNL     1       2.073  -6.502   7.205  0.00  0.00    +0.047 A 
ATOM     29  C   UNL     1       1.390  -6.201   6.038  0.00  0.00    +0.138 A 
BRANCH  29  30
ATOM     30  O   UNL     1       0.252  -5.458   6.087  0.00  0.00    -0.505 OA
ATOM     31  H   UNL     1      -0.555  -5.981   6.194  0.00  0.00    +0.292 HD
ENDBRANCH  29  30
ENDBRANCH  22  24
ENDBRANCH  21  22
ENDBRANCH   1  21
TORSDOF 9
