REMARK  Name = ZINC39665723
REMARK  11 active torsions:
REMARK  status: ('A' for Active; 'I' for Inactive)
REMARK    1  A    between atoms: C_1  and  C_2
REMARK    2  A    between atoms: C_2  and  C_4
REMARK    3  A    between atoms: C_2  and  O_30
REMARK    4  A    between atoms: C_4  and  N_5
REMARK    5  A    between atoms: C_6  and  C_8
REMARK    6  A    between atoms: C_19  and  C_21
REMARK    7  A    between atoms: C_21  and  O_22
REMARK    8  A    between atoms: O_22  and  C_23
REMARK    9  A    between atoms: O_30  and  C_31
REMARK   10  A    between atoms: C_34  and  O_37
REMARK   11  A    between atoms: O_37  and  C_38
REMARK                            x       y       z     vdW  Elec       q    Type
REMARK                         _______ _______ _______ _____ _____    ______ ____
ROOT
ATOM      1  C   UNL     1      -1.834  -3.729   0.532  0.00  0.00    +0.100 C 
ATOM      2  C   UNL     1      -1.136  -3.968   1.889  0.00  0.00    +0.121 C 
ATOM      3  N   UNL     1      -2.240  -4.275   2.829  0.00  0.00    -0.297 N 
ATOM      4  C   UNL     1      -3.171  -5.118   2.041  0.00  0.00    +0.115 C 
ATOM      5  C   UNL     1      -3.168  -4.488   0.634  0.00  0.00    -0.004 C 
ATOM      6  C   UNL     1      -3.239  -5.577  -0.432  0.00  0.00    -0.010 C 
ATOM      7  C   UNL     1      -4.598  -6.279  -0.348  0.00  0.00    -0.082 C 
ATOM      8  N   UNL     1      -5.671  -5.297  -0.549  0.00  0.00    +0.379 N 
ATOM      9  C   UNL     1      -5.652  -4.306   0.534  0.00  0.00    -0.082 C 
ATOM     10  C   UNL     1      -4.338  -3.521   0.487  0.00  0.00    -0.010 C 
ATOM     11  C   UNL     1      -2.368  -3.879   4.111  0.00  0.00    +0.253 C 
ATOM     12  O   UNL     1      -3.338  -4.216   4.756  0.00  0.00    -0.272 OA
ATOM     13  H   UNL     1      -5.537  -4.830  -1.433  0.00  0.00    -0.086 HD
ATOM     14  H   UNL     1      -6.561  -5.771  -0.554  0.00  0.00    -0.086 HD
ENDROOT
BRANCH   1  16
ATOM     15  N   UNL     1      -2.135  -1.754  -0.927  0.00  0.00    -0.312 N 
ATOM     16  C   UNL     1      -2.083  -2.257   0.322  0.00  0.00    +0.218 C 
ATOM     17  O   UNL     1      -2.236  -1.526   1.278  0.00  0.00    -0.275 OA
ATOM     18  H   UNL     1      -2.012  -2.339  -1.691  0.00  0.00    +0.149 HD
BRANCH  15  19
ATOM     19  C   UNL     1      -2.376  -0.323  -1.131  0.00  0.00    +0.148 C 
BRANCH  19  21
ATOM     20  C   UNL     1      -2.640   1.478  -2.842  0.00  0.00    +0.053 C 
ATOM     21  C   UNL     1      -2.387  -0.016  -2.630  0.00  0.00    +0.187 C 
BRANCH  21  22
ATOM     22  O   UNL     1      -1.125  -0.372  -3.198  0.00  0.00    -0.488 OA
BRANCH  22  23
ATOM     23  C   UNL     1      -1.108  -0.670  -4.524  0.00  0.00    +0.121 A 
ATOM     24  C   UNL     1      -2.256  -0.511  -5.286  0.00  0.00    +0.049 A 
ATOM     25  C   UNL     1      -2.238  -0.814  -6.634  0.00  0.00    +0.049 A 
ATOM     26  C   UNL     1      -1.072  -1.277  -7.225  0.00  0.00    +0.120 A 
ATOM     27  C   UNL     1       0.077  -1.435  -6.464  0.00  0.00    +0.049 A 
ATOM     28  C   UNL     1       0.060  -1.128  -5.117  0.00  0.00    +0.049 A 
BRANCH  26  29
ATOM     29  O   UNL     1      -1.054  -1.576  -8.552  0.00  0.00    -0.495 OA
ATOM     30  C   UNL     1       0.181  -2.047  -9.094  0.00  0.00    +0.277 C 
ENDBRANCH  26  29
ENDBRANCH  22  23
ENDBRANCH  21  22
ENDBRANCH  19  21
ENDBRANCH  15  19
ENDBRANCH   1  16
BRANCH  11  31
ATOM     31  C   UNL     1      -1.305  -3.016   4.742  0.00  0.00    +0.324 C 
BRANCH  31  32
ATOM     32  O   UNL     1      -1.666  -2.731   6.095  0.00  0.00    -0.483 OA
BRANCH  32  33
ATOM     33  C   UNL     1      -0.808  -1.958   6.812  0.00  0.00    +0.123 A 
ATOM     34  C   UNL     1       0.354  -1.479   6.223  0.00  0.00    +0.046 A 
ATOM     35  C   UNL     1       1.224  -0.694   6.954  0.00  0.00    +0.005 A 
ATOM     36  C   UNL     1       0.939  -0.383   8.271  0.00  0.00    +0.020 A 
ATOM     37  C   UNL     1      -0.218  -0.859   8.860  0.00  0.00    +0.044 A 
ATOM     38  C   UNL     1      -1.095  -1.642   8.132  0.00  0.00    +0.065 A 
ATOM     39 CL   UNL     1      -0.574  -0.469  10.514  0.00  0.00    -0.083 Cl
ENDBRANCH  32  33
ENDBRANCH  31  32
ENDBRANCH  11  31
TORSDOF 9
