REMARK  Name = ZINC25497359
REMARK  6 active torsions:
REMARK  status: ('A' for Active; 'I' for Inactive)
REMARK    1  A    between atoms: C_1  and  C_2
REMARK    2  A    between atoms: C_5  and  C_28
REMARK    3  A    between atoms: C_6  and  C_8
REMARK    4  A    between atoms: C_8  and  C_9
REMARK    5  A    between atoms: C_10  and  C_27
REMARK    6  A    between atoms: N_16  and  C_17
REMARK                            x       y       z     vdW  Elec       q    Type
REMARK                         _______ _______ _______ _____ _____    ______ ____
ROOT
ATOM      1  C   UNL     1       1.398  -3.279   2.834  0.00  0.00    +0.042 A 
ATOM      2  C   UNL     1       2.032  -2.383   3.645  0.00  0.00    +0.050 A 
ATOM      3  N   UNL     1       3.309  -2.567   3.974  0.00  0.00    -0.221 NA
ATOM      4  C   UNL     1       3.988  -3.606   3.533  0.00  0.00    +0.200 A 
ATOM      5  N   UNL     1       3.409  -4.533   2.721  0.00  0.00    -0.295 N 
ATOM      6  C   UNL     1       2.114  -4.394   2.363  0.00  0.00    +0.256 A 
ATOM      7  O   UNL     1       1.577  -5.218   1.641  0.00  0.00    -0.267 OA
ATOM      8  N   UNL     1       5.301  -3.757   3.897  0.00  0.00    -0.283 N 
ATOM      9  C   UNL     1       1.286  -1.182   4.167  0.00  0.00    +0.066 C 
ATOM     10  H   UNL     1       5.834  -4.467   3.507  0.00  0.00    +0.155 HD
ATOM     11  H   UNL     1       3.922  -5.292   2.405  0.00  0.00    +0.172 HD
ENDROOT
BRANCH   8  12
ATOM     12  C   UNL     1       5.871  -2.888   4.829  0.00  0.00    +0.060 A 
ATOM     13  C   UNL     1       5.104  -2.360   5.845  0.00  0.00    +0.025 A 
ATOM     14  C   UNL     1       5.660  -1.492   6.781  0.00  0.00    +0.003 A 
ATOM     15  C   UNL     1       6.975  -1.142   6.717  0.00  0.00    +0.010 A 
ATOM     16  C   UNL     1       7.789  -1.659   5.696  0.00  0.00    +0.002 A 
ATOM     17  C   UNL     1       7.238  -2.547   4.741  0.00  0.00    +0.092 A 
ATOM     18  N   UNL     1       8.011  -3.044   3.771  0.00  0.00    -0.253 NA
ATOM     19  C   UNL     1       9.281  -2.731   3.684  0.00  0.00    +0.111 A 
ATOM     20  C   UNL     1       9.887  -1.868   4.594  0.00  0.00    +0.020 A 
ATOM     21  C   UNL     1       9.151  -1.315   5.603  0.00  0.00    +0.011 A 
ENDBRANCH   8  12
BRANCH   1  22
ATOM     22  C   UNL     1      -0.047  -3.081   2.456  0.00  0.00    +0.077 C 
BRANCH  22  28
ATOM     23  C   UNL     1       2.222  -1.036  -1.508  0.00  0.00    +0.044 C 
ATOM     24  C   UNL     1       0.960  -1.371  -0.756  0.00  0.00    -0.050 A 
ATOM     25  C   UNL     1      -0.270  -1.008  -1.272  0.00  0.00    +0.003 A 
ATOM     26  C   UNL     1      -1.428  -1.315  -0.582  0.00  0.00    +0.004 A 
ATOM     27  C   UNL     1      -1.355  -1.986   0.625  0.00  0.00    -0.047 A 
ATOM     28  C   UNL     1      -0.126  -2.350   1.140  0.00  0.00    -0.040 A 
ATOM     29  C   UNL     1       1.032  -2.046   0.448  0.00  0.00    +0.007 A 
ATOM     30  C   UNL     1      -2.617  -2.320   1.378  0.00  0.00    +0.044 C 
ENDBRANCH  22  28
ENDBRANCH   1  22
TORSDOF 3
