REMARK  Name = ZINC35442691
REMARK  13 active torsions:
REMARK  status: ('A' for Active; 'I' for Inactive)
REMARK    1  A    between atoms: C_1  and  C_2
REMARK    2  A    between atoms: C_4  and  C_29
REMARK    3  A    between atoms: C_6  and  C_26
REMARK    4  A    between atoms: C_9  and  C_11
REMARK    5  A    between atoms: C_11  and  C_12
REMARK    6  A    between atoms: C_15  and  C_17
REMARK    7  A    between atoms: C_20  and  N_23
REMARK    8  A    between atoms: C_26  and  C_27
REMARK    9  A    between atoms: C_26  and  C_28
REMARK   10  A    between atoms: C_29  and  N_30
REMARK   11  A    between atoms: N_33  and  C_36
REMARK   12  A    between atoms: C_36  and  C_37
REMARK   13  A    between atoms: C_37  and  O_38
REMARK                            x       y       z     vdW  Elec       q    Type
REMARK                         _______ _______ _______ _____ _____    ______ ____
ROOT
ATOM      1  C   UNL     1       0.406   2.295  -0.164  0.00  0.00    +0.039 C 
ATOM      2  C   UNL     1       0.517   0.808   0.052  0.00  0.00    -0.073 C 
ATOM      3  C   UNL     1       0.344   0.032  -0.969  0.00  0.00    -0.026 C 
ATOM      4  C   UNL     1       0.413  -1.466  -0.908  0.00  0.00    -0.002 C 
ATOM      5  C   UNL     1       1.117  -1.909   0.376  0.00  0.00    -0.003 C 
ATOM      6  C   UNL     1       0.481  -1.168   1.559  0.00  0.00    +0.012 C 
ATOM      7  C   UNL     1       0.828   0.319   1.437  0.00  0.00    +0.024 C 
ENDROOT
BRANCH   5   8
ATOM      8  C   UNL     1       0.950  -3.419   0.559  0.00  0.00    -0.014 C 
ATOM      9  C   UNL     1       1.496  -3.830   1.928  0.00  0.00    +0.007 C 
ATOM     10  C   UNL     1      -0.534  -3.782   0.473  0.00  0.00    +0.007 C 
ENDBRANCH   5   8
BRANCH   7  11
ATOM     11  C   UNL     1       2.316   0.524   1.724  0.00  0.00    +0.105 C 
BRANCH  11  12
ATOM     12  C   UNL     1       2.627   1.998   1.742  0.00  0.00    +0.218 A 
ATOM     13  N   UNL     1       2.587   2.781   2.784  0.00  0.00    -0.112 NA
ATOM     14  N   UNL     1       2.911   3.977   2.436  0.00  0.00    -0.107 NA
ATOM     15  C   UNL     1       3.171   3.998   1.150  0.00  0.00    +0.248 A 
ATOM     16  O   UNL     1       3.000   2.743   0.687  0.00  0.00    -0.420 OA
BRANCH  15  17
ATOM     17  C   UNL     1       3.579   5.177   0.357  0.00  0.00    +0.039 A 
ATOM     18  C   UNL     1       3.818   5.052  -1.013  0.00  0.00    +0.015 A 
ATOM     19  C   UNL     1       4.199   6.156  -1.747  0.00  0.00    +0.033 A 
ATOM     20  C   UNL     1       4.345   7.385  -1.129  0.00  0.00    +0.126 A 
ATOM     21  C   UNL     1       4.110   7.516   0.229  0.00  0.00    +0.033 A 
ATOM     22  C   UNL     1       3.722   6.421   0.973  0.00  0.00    +0.015 A 
BRANCH  20  23
ATOM     23  N   UNL     1       4.755   8.565  -1.922  0.00  0.00    +0.056 N 
ATOM     24  O   UNL     1       4.961   8.454  -3.108  0.00  0.00    -0.126 OA
ATOM     25  O   UNL     1       4.883   9.640  -1.385  0.00  0.00    -0.126 OA
ENDBRANCH  20  23
ENDBRANCH  15  17
ENDBRANCH  11  12
ENDBRANCH   7  11
BRANCH   4  26
ATOM     26  C   UNL     1       1.193  -1.987  -2.117  0.00  0.00    -0.071 C 
BRANCH  26  27
ATOM     27  N   UNL     1       0.701  -3.323  -2.478  0.00  0.00    +0.382 N 
ATOM     28  C   UNL     1      -0.693  -3.225  -2.931  0.00  0.00    -0.063 C 
ATOM     29  C   UNL     1      -1.212  -4.619  -3.290  0.00  0.00    +0.066 C 
ATOM     30  N   UNL     1      -0.373  -5.193  -4.352  0.00  0.00    -0.304 NA
ATOM     31  C   UNL     1       1.030  -5.275  -3.921  0.00  0.00    +0.066 C 
ATOM     32  C   UNL     1       1.530  -3.875  -3.557  0.00  0.00    -0.063 C 
ATOM     33  H   UNL     1       0.750  -3.929  -1.673  0.00  0.00    -0.082 HD
BRANCH  30  34
ATOM     34  C   UNL     1      -0.875  -6.511  -4.764  0.00  0.00    +0.112 C 
BRANCH  34  35
ATOM     35  C   UNL     1      -2.121  -6.333  -5.634  0.00  0.00    +0.171 C 
BRANCH  35  36
ATOM     36  O   UNL     1      -1.765  -5.665  -6.846  0.00  0.00    -0.394 OA
ATOM     37  H   UNL     1      -2.508  -5.518  -7.447  0.00  0.00    +0.209 HD
ENDBRANCH  35  36
ENDBRANCH  34  35
ENDBRANCH  30  34
ENDBRANCH  26  27
ENDBRANCH   4  26
TORSDOF 10
