REMARK  Name = ZINC39678725
REMARK  8 active torsions:
REMARK  status: ('A' for Active; 'I' for Inactive)
REMARK    1  A    between atoms: C_1  and  C_2
REMARK    2  A    between atoms: C_2  and  C_3
REMARK    3  A    between atoms: C_2  and  O_4
REMARK    4  A    between atoms: O_4  and  C_5
REMARK    5  A    between atoms: C_5  and  C_7
REMARK    6  A    between atoms: C_7  and  N_8
REMARK    7  A    between atoms: C_9  and  C_11
REMARK    8  A    between atoms: C_22  and  C_24
REMARK                            x       y       z     vdW  Elec       q    Type
REMARK                         _______ _______ _______ _____ _____    ______ ____
ROOT
ATOM      1  C   UNL     1      -4.360  -5.207  -1.804  0.00  0.00    +0.100 C 
ATOM      2  C   UNL     1      -3.267  -6.191  -1.333  0.00  0.00    +0.121 C 
ATOM      3  N   UNL     1      -3.991  -7.192  -0.515  0.00  0.00    -0.296 N 
ATOM      4  C   UNL     1      -5.264  -7.412  -1.244  0.00  0.00    +0.115 C 
ATOM      5  C   UNL     1      -5.668  -6.013  -1.748  0.00  0.00    -0.004 C 
ATOM      6  C   UNL     1      -6.289  -6.111  -3.138  0.00  0.00    -0.010 C 
ATOM      7  C   UNL     1      -7.618  -6.867  -3.047  0.00  0.00    -0.082 C 
ATOM      8  N   UNL     1      -8.524  -6.159  -2.134  0.00  0.00    +0.379 N 
ATOM      9  C   UNL     1      -7.961  -6.150  -0.778  0.00  0.00    -0.082 C 
ATOM     10  C   UNL     1      -6.647  -5.365  -0.773  0.00  0.00    -0.010 C 
ATOM     11  C   UNL     1      -3.586  -7.772   0.632  0.00  0.00    +0.248 C 
ATOM     12  O   UNL     1      -4.255  -8.651   1.139  0.00  0.00    -0.270 OA
ATOM     13  H   UNL     1      -8.645  -5.209  -2.452  0.00  0.00    -0.086 HD
ATOM     14  H   UNL     1      -9.419  -6.624  -2.123  0.00  0.00    -0.086 HD
ENDROOT
BRANCH  11  15
ATOM     15  C   UNL     1      -2.327  -7.338   1.274  0.00  0.00    +0.057 A 
ATOM     16  C   UNL     1      -1.234  -6.960   0.490  0.00  0.00    +0.014 A 
ATOM     17  C   UNL     1      -0.062  -6.557   1.095  0.00  0.00    +0.002 A 
ATOM     18  C   UNL     1       0.034  -6.526   2.475  0.00  0.00    +0.021 A 
ATOM     19  C   UNL     1      -1.043  -6.900   3.259  0.00  0.00    +0.060 A 
ATOM     20  C   UNL     1      -2.226  -7.300   2.666  0.00  0.00    +0.071 A 
ATOM     21 CL   UNL     1      -3.580  -7.762   3.650  0.00  0.00    -0.081 Cl
ATOM     22 CL   UNL     1      -0.911  -6.859   4.989  0.00  0.00    -0.082 Cl
ENDBRANCH  11  15
BRANCH   1  24
ATOM     23  N   UNL     1      -4.870  -2.832  -1.337  0.00  0.00    -0.305 N 
ATOM     24  C   UNL     1      -4.434  -4.021  -0.877  0.00  0.00    +0.219 C 
ATOM     25  O   UNL     1      -4.100  -4.138   0.283  0.00  0.00    -0.275 OA
ATOM     26  H   UNL     1      -5.137  -2.739  -2.265  0.00  0.00    +0.149 HD
BRANCH  23  27
ATOM     27  C   UNL     1      -4.942  -1.680  -0.435  0.00  0.00    +0.224 C 
BRANCH  27  28
ATOM     28  C   UNL     1      -5.458  -0.482  -1.190  0.00  0.00    +0.325 C 
ATOM     29  O   UNL     1      -5.737  -0.581  -2.362  0.00  0.00    -0.249 OA
BRANCH  28  30
ATOM     30  O   UNL     1      -5.607   0.695  -0.562  0.00  0.00    -0.461 OA
BRANCH  30  32
ATOM     31  C   UNL     1      -6.889   2.740  -0.438  0.00  0.00    +0.052 C 
ATOM     32  C   UNL     1      -6.101   1.787  -1.339  0.00  0.00    +0.170 C 
ATOM     33  C   UNL     1      -4.925   2.537  -1.969  0.00  0.00    +0.052 C 
ENDBRANCH  30  32
ENDBRANCH  28  30
ENDBRANCH  27  28
ENDBRANCH  23  27
ENDBRANCH   1  24
TORSDOF 6
