REMARK  Name = ZINC35345026
REMARK  3 active torsions:
REMARK  status: ('A' for Active; 'I' for Inactive)
REMARK    1  A    between atoms: C_3  and  S_11
REMARK    2  A    between atoms: C_4  and  N_10
REMARK    3  A    between atoms: S_11  and  C_12
REMARK                            x       y       z     vdW  Elec       q    Type
REMARK                         _______ _______ _______ _____ _____    ______ ____
ROOT
ATOM      1  C   UNL     1       0.710   0.150   1.190  0.00  0.00    +0.018 A 
ATOM      2  C   UNL     1       1.900   0.854   1.182  0.00  0.00    +0.018 A 
ATOM      3  C   UNL     1       2.381   1.375  -0.016  0.00  0.00    +0.038 A 
ATOM      4  C   UNL     1       1.689   1.201  -1.202  0.00  0.00    +0.065 A 
ATOM      5  C   UNL     1       0.469   0.484  -1.219  0.00  0.00    +0.100 A 
ATOM      6  C   UNL     1       0.016  -0.028   0.017  0.00  0.00    +0.041 A 
ATOM      7  S   UNL     1      -1.496  -0.829  -0.450  0.00  0.00    -0.075 S 
ATOM      8  C   UNL     1      -1.451  -0.478  -2.095  0.00  0.00    +0.157 A 
ATOM      9  N   UNL     1      -0.354   0.204  -2.250  0.00  0.00    -0.246 NA
ENDROOT
BRANCH   4  10
ATOM     10  N   UNL     1       2.198   1.737  -2.391  0.00  0.00    -0.355 N 
ATOM     11  H   UNL     1       3.034   2.229  -2.382  0.00  0.00    +0.142 HD
ATOM     12  H   UNL     1       1.715   1.617  -3.224  0.00  0.00    +0.142 HD
ENDBRANCH   4  10
BRANCH   3  13
ATOM     13  S   UNL     1       3.897   2.272  -0.023  0.00  0.00    -0.048 S 
BRANCH  13  14
ATOM     14  C   UNL     1       3.396   3.955  -0.158  0.00  0.00    +0.196 A 
ATOM     15  N   UNL     1       2.162   4.410  -0.135  0.00  0.00    -0.122 NA
ATOM     16  N   UNL     1       2.166   5.692  -0.251  0.00  0.00    -0.134 NA
ATOM     17  C   UNL     1       3.388   6.125  -0.349  0.00  0.00    +0.134 A 
ATOM     18  N   UNL     1       4.212   5.036  -0.301  0.00  0.00    -0.306 N 
ATOM     19  C   UNL     1       5.671   5.043  -0.401  0.00  0.00    +0.125 C 
ATOM     20  C   UNL     1       6.208   6.377   0.124  0.00  0.00    +0.022 C 
ATOM     21  C   UNL     1       6.277   7.390  -1.018  0.00  0.00    +0.002 C 
ATOM     22  C   UNL     1       4.888   7.649  -1.592  0.00  0.00    +0.008 C 
ATOM     23  C   UNL     1       3.843   7.556  -0.482  0.00  0.00    +0.076 C 
ENDBRANCH  13  14
ENDBRANCH   3  13
TORSDOF 3
