REMARK  Name = ZINC41068299
REMARK  4 active torsions:
REMARK  status: ('A' for Active; 'I' for Inactive)
REMARK    1  A    between atoms: C_4  and  C_7
REMARK    2  A    between atoms: N_10  and  S_14
REMARK    3  A    between atoms: S_14  and  C_17
REMARK    4  A    between atoms: C_19  and  N_22
REMARK                            x       y       z     vdW  Elec       q    Type
REMARK                         _______ _______ _______ _____ _____    ______ ____
ROOT
ATOM      1  C   UNL     1       3.711  -0.707  -0.038  0.00  0.00    +0.164 C 
ATOM      2  C   UNL     1       4.080  -1.062  -1.482  0.00  0.00    +0.146 C 
ATOM      3  N   UNL     1       5.263  -1.937  -1.458  0.00  0.00    -0.171 NA
ATOM      4  C   UNL     1       5.234  -3.115  -0.576  0.00  0.00    +0.137 C 
ATOM      5  C   UNL     1       4.809  -2.660   0.825  0.00  0.00    +0.178 C 
ATOM      6  O   UNL     1       3.596  -1.909   0.729  0.00  0.00    -0.369 OA
ENDROOT
BRANCH   1  10
ATOM      7  C   UNL     1      -0.017   1.378   0.010  0.00  0.00    +0.000 A 
ATOM      8  C   UNL     1       1.171   2.086   0.002  0.00  0.00    +0.000 A 
ATOM      9  C   UNL     1       2.377   1.411  -0.013  0.00  0.00    +0.006 A 
ATOM     10  C   UNL     1       2.396   0.029  -0.020  0.00  0.00    -0.018 A 
ATOM     11  C   UNL     1       1.208  -0.679  -0.012  0.00  0.00    +0.006 A 
ATOM     12  C   UNL     1       0.002  -0.004   0.002  0.00  0.00    +0.000 A 
ENDBRANCH   1  10
BRANCH   3  13
ATOM     13  S   UNL     1       6.588  -1.606  -2.395  0.00  0.00    +0.067 S 
ATOM     14  O   UNL     1       7.268  -2.838  -2.586  0.00  0.00    -0.152 OA
ATOM     15  O   UNL     1       6.129  -0.813  -3.481  0.00  0.00    -0.152 OA
BRANCH  13  16
ATOM     16  C   UNL     1       7.659  -0.582  -1.441  0.00  0.00    +0.144 A 
ATOM     17  C   UNL     1       8.662  -0.944  -0.605  0.00  0.00    +0.059 A 
ATOM     18  C   UNL     1       9.380   0.045   0.049  0.00  0.00    +0.034 A 
ATOM     19  C   UNL     1       9.054   1.346  -0.171  0.00  0.00    +0.069 A 
ATOM     20  S   UNL     1       7.707   1.199  -1.332  0.00  0.00    -0.075 S 
BRANCH  18  21
ATOM     21  N   UNL     1      10.429  -0.292   0.925  0.00  0.00    -0.358 N 
ATOM     22  H   UNL     1      10.655  -1.224   1.076  0.00  0.00    +0.142 HD
ATOM     23  H   UNL     1      10.927   0.406   1.378  0.00  0.00    +0.142 HD
ENDBRANCH  18  21
ENDBRANCH  13  16
ENDBRANCH   3  13
TORSDOF 4
