REMARK  Name = ZINC01893827
REMARK  8 active torsions:
REMARK  status: ('A' for Active; 'I' for Inactive)
REMARK    1  A    between atoms: C_4  and  C_7
REMARK    2  A    between atoms: C_7  and  C_8
REMARK    3  A    between atoms: C_8  and  N_9
REMARK    4  A    between atoms: C_10  and  C_36
REMARK    5  A    between atoms: C_13  and  S_14
REMARK    6  A    between atoms: S_14  and  C_15
REMARK    7  A    between atoms: C_15  and  C_16
REMARK    8  A    between atoms: C_26  and  C_31
REMARK                            x       y       z     vdW  Elec       q    Type
REMARK                         _______ _______ _______ _____ _____    ______ ____
ROOT
ATOM      1  C   UNL     1       2.731   9.583   0.085  0.00  0.00    +0.173 C 
ENDROOT
BRANCH   1   2
ATOM      2  C   UNL     1       3.734  10.697   0.235  0.00  0.00    +0.230 C 
ATOM      3  O   UNL     1       4.881  10.444   0.535  0.00  0.00    -0.274 OA
ATOM      4  N   UNL     1       3.356  11.976   0.035  0.00  0.00    -0.254 N 
ATOM      5  C   UNL     1       4.278  12.999   0.172  0.00  0.00    +0.222 A 
ATOM      6  N   UNL     1       5.525  12.697   0.506  0.00  0.00    -0.222 NA
ATOM      7  C   UNL     1       6.437  13.643   0.641  0.00  0.00    +0.127 A 
ATOM      8  C   UNL     1       6.056  14.975   0.435  0.00  0.00    +0.057 A 
ATOM      9  C   UNL     1       4.729  15.256   0.092  0.00  0.00    +0.057 A 
ATOM     10  N   UNL     1       3.882  14.248  -0.030  0.00  0.00    -0.218 NA
ATOM     11  C   UNL     1       4.254  16.664  -0.131  0.00  0.00    +0.065 C 
ATOM     12  C   UNL     1       5.417  17.589  -0.483  0.00  0.00    +0.039 C 
ATOM     13  C   UNL     1       6.500  17.484   0.599  0.00  0.00    +0.088 C 
ATOM     14  C   UNL     1       7.033  16.065   0.573  0.00  0.00    +0.167 C 
ATOM     15  O   UNL     1       8.221  15.837   0.663  0.00  0.00    -0.292 OA
ATOM     16  H   UNL     1       2.439  12.178  -0.205  0.00  0.00    +0.158 HD
BRANCH  12  17
ATOM     17  C   UNL     1       4.923  19.010  -0.562  0.00  0.00    -0.006 A 
ATOM     18  C   UNL     1       4.954  19.867  -1.611  0.00  0.00    +0.011 A 
ATOM     19  C   UNL     1       4.433  21.138  -1.454  0.00  0.00    +0.008 A 
ATOM     20  C   UNL     1       3.916  21.492  -0.253  0.00  0.00    +0.045 A 
ATOM     21  S   UNL     1       4.151  20.004   0.704  0.00  0.00    -0.101 S 
ENDBRANCH  12  17
ENDBRANCH   1   2
BRANCH   1  22
ATOM     22  S   UNL     1       3.538   7.997   0.415  0.00  0.00    -0.077 S 
BRANCH  22  27
ATOM     23  N   UNL     1       2.197   5.543   0.297  0.00  0.00    -0.301 N 
ATOM     24  C   UNL     1       0.914   5.126   0.019  0.00  0.00    +0.172 A 
ATOM     25  N   UNL     1       0.209   6.203  -0.249  0.00  0.00    -0.128 NA
ATOM     26  N   UNL     1       0.950   7.248  -0.151  0.00  0.00    -0.122 NA
ATOM     27  C   UNL     1       2.175   6.905   0.176  0.00  0.00    +0.192 A 
BRANCH  24  28
ATOM     28  C   UNL     1       0.426   3.737   0.017  0.00  0.00    +0.056 A 
ATOM     29  C   UNL     1      -0.866   3.275   0.026  0.00  0.00    +0.019 A 
ATOM     30  C   UNL     1      -1.081   1.915   0.017  0.00  0.00    +0.008 A 
ATOM     31  C   UNL     1      -0.013   1.076   0.008  0.00  0.00    +0.046 A 
ATOM     32  S   UNL     1       1.361   2.216   0.001  0.00  0.00    -0.094 S 
ENDBRANCH  24  28
BRANCH  23  33
ATOM     33  C   UNL     1       3.345   4.703   0.646  0.00  0.00    +0.130 C 
BRANCH  33  34
ATOM     34  C   UNL     1       4.085   4.293  -0.629  0.00  0.00    +0.057 C 
BRANCH  34  38
ATOM     35  C   UNL     1       7.432   1.844   0.391  0.00  0.00    +0.000 A 
ATOM     36  C   UNL     1       6.202   1.264   0.141  0.00  0.00    +0.000 A 
ATOM     37  C   UNL     1       5.119   2.057  -0.189  0.00  0.00    +0.004 A 
ATOM     38  C   UNL     1       5.266   3.429  -0.269  0.00  0.00    -0.046 A 
ATOM     39  C   UNL     1       6.497   4.008  -0.023  0.00  0.00    +0.004 A 
ATOM     40  C   UNL     1       7.579   3.216   0.312  0.00  0.00    +0.000 A 
ENDBRANCH  34  38
ENDBRANCH  33  34
ENDBRANCH  23  33
ENDBRANCH  22  27
ENDBRANCH   1  22
TORSDOF 8
