REMARK  Name = ZINC09075378
REMARK  10 active torsions:
REMARK  status: ('A' for Active; 'I' for Inactive)
REMARK    1  A    between atoms: C_4  and  N_7
REMARK    2  A    between atoms: N_7  and  C_8
REMARK    3  A    between atoms: N_7  and  S_25
REMARK    4  A    between atoms: C_8  and  C_9
REMARK    5  A    between atoms: C_9  and  C_11
REMARK    6  A    between atoms: C_9  and  O_24
REMARK    7  A    between atoms: C_11  and  N_71
REMARK    8  A    between atoms: C_12  and  N_71
REMARK    9  A    between atoms: C_18  and  N_71
REMARK   10  A    between atoms: S_25  and  C_28
REMARK                            x       y       z     vdW  Elec       q    Type
REMARK                         _______ _______ _______ _____ _____    ______ ____
ROOT
ATOM      1  C   UNL     1       1.939  -2.880  -2.009  0.00  0.00    +0.117 C 
ENDROOT
BRANCH   1   2
ATOM      2  O   UNL     1       2.872  -2.413  -2.986  0.00  0.00    -0.392 OA
ATOM      3  H   UNL     1       3.150  -3.090  -3.619  0.00  0.00    +0.210 HD
ENDBRANCH   1   2
BRANCH   1   4
ATOM      4  C   UNL     1       2.611  -3.933  -1.125  0.00  0.00    +0.161 C 
BRANCH   4   5
ATOM      5  N   UNL     1       3.765  -3.337  -0.447  0.00  0.00    -0.201 N 
BRANCH   5   9
ATOM      6  C   UNL     1       7.365  -2.872  -2.487  0.00  0.00    +0.000 A 
ATOM      7  C   UNL     1       6.795  -4.127  -2.371  0.00  0.00    +0.002 A 
ATOM      8  C   UNL     1       5.601  -4.284  -1.695  0.00  0.00    +0.025 A 
ATOM      9  C   UNL     1       4.973  -3.181  -1.131  0.00  0.00    +0.051 A 
ATOM     10  C   UNL     1       5.546  -1.921  -1.254  0.00  0.00    +0.025 A 
ATOM     11  C   UNL     1       6.742  -1.772  -1.927  0.00  0.00    +0.002 A 
ENDBRANCH   5   9
BRANCH   5  12
ATOM     12  S   UNL     1       3.638  -2.847   1.130  0.00  0.00    +0.075 S 
ATOM     13  O   UNL     1       4.964  -2.728   1.627  0.00  0.00    -0.150 OA
ATOM     14  O   UNL     1       2.669  -3.689   1.739  0.00  0.00    -0.150 OA
BRANCH  12  15
ATOM     15  C   UNL     1       2.956  -1.222   1.118  0.00  0.00    +0.109 A 
ATOM     16  C   UNL     1       1.585  -1.048   1.107  0.00  0.00    +0.029 A 
ATOM     17  C   UNL     1       1.050   0.227   1.098  0.00  0.00    +0.002 A 
ATOM     18  C   UNL     1       1.887   1.327   1.099  0.00  0.00    +0.000 A 
ATOM     19  C   UNL     1       3.258   1.153   1.110  0.00  0.00    +0.002 A 
ATOM     20  C   UNL     1       3.793  -0.122   1.119  0.00  0.00    +0.029 A 
ENDBRANCH  12  15
ENDBRANCH   5  12
ENDBRANCH   4   5
ENDBRANCH   1   4
BRANCH   1  21
ATOM     21  C   UNL     1       0.731  -3.501  -2.713  0.00  0.00    -0.045 C 
BRANCH  21  22
ATOM     22  N   UNL     1       0.196  -2.526  -3.686  0.00  0.00    +0.385 N 
ATOM     23  H   UNL     1       0.978  -2.104  -4.200  0.00  0.00    -0.081 HD
BRANCH  22  24
ATOM     24  C   UNL     1      -0.697  -3.208  -4.646  0.00  0.00    -0.068 C 
ATOM     25  C   UNL     1      -1.722  -4.070  -3.906  0.00  0.00    -0.015 C 
ATOM     26  C   UNL     1      -2.629  -4.768  -4.921  0.00  0.00    -0.002 C 
ATOM     27  C   UNL     1      -1.782  -5.655  -5.837  0.00  0.00    -0.000 C 
ATOM     28  C   UNL     1      -0.757  -4.793  -6.577  0.00  0.00    -0.002 C 
ATOM     29  C   UNL     1       0.150  -4.095  -5.561  0.00  0.00    -0.015 C 
ENDBRANCH  22  24
BRANCH  22  30
ATOM     30  C   UNL     1      -0.544  -1.460  -2.978  0.00  0.00    -0.068 C 
ATOM     31  C   UNL     1      -1.658  -0.926  -3.880  0.00  0.00    -0.015 C 
ATOM     32  C   UNL     1      -2.406   0.196  -3.158  0.00  0.00    -0.002 C 
ATOM     33  C   UNL     1      -1.431   1.328  -2.827  0.00  0.00    -0.000 C 
ATOM     34  C   UNL     1      -0.317   0.794  -1.925  0.00  0.00    -0.002 C 
ATOM     35  C   UNL     1       0.431  -0.328  -2.647  0.00  0.00    -0.015 C 
ENDBRANCH  22  30
ENDBRANCH  21  22
ENDBRANCH   1  21
TORSDOF 10
