REMARK  Name = ZINC20905360
REMARK  6 active torsions:
REMARK  status: ('A' for Active; 'I' for Inactive)
REMARK    1  A    between atoms: C_10  and  C_11
REMARK    2  A    between atoms: N_12  and  N_13
REMARK    3  A    between atoms: C_16  and  S_19
REMARK    4  A    between atoms: S_19  and  C_20
REMARK    5  A    between atoms: C_20  and  C_21
REMARK    6  A    between atoms: N_23  and  C_24
REMARK                            x       y       z     vdW  Elec       q    Type
REMARK                         _______ _______ _______ _____ _____    ______ ____
ROOT
ATOM      1  N   UNL     1       1.147  -2.030  -0.218  0.00  0.00    -0.205 N 
ATOM      2  C   UNL     1       2.353  -2.708  -0.322  0.00  0.00    +0.232 A 
ATOM      3  N   UNL     1       2.512  -4.066  -0.339  0.00  0.00    -0.186 NA
ATOM      4  C   UNL     1       3.847  -4.333  -0.453  0.00  0.00    +0.211 A 
ATOM      5  N   UNL     1       4.486  -3.189  -0.504  0.00  0.00    -0.144 NA
ATOM      6  N   UNL     1       3.539  -2.160  -0.426  0.00  0.00    -0.245 N 
ATOM      7  H   UNL     1       0.204  -2.593  -0.140  0.00  0.00    +0.177 HD
ATOM      8  H   UNL     1       3.639  -1.065  -0.439  0.00  0.00    +0.192 HD
ENDROOT
BRANCH   1  10
ATOM      9  C   UNL     1      -0.001   0.006  -0.116  0.00  0.00    +0.139 C 
ATOM     10  N   UNL     1       1.129  -0.629  -0.213  0.00  0.00    -0.188 NA
BRANCH   9  20
ATOM     11  C   UNL     1       3.555   3.742  -0.077  0.00  0.00    +0.001 A 
ATOM     12  C   UNL     1       3.613   2.350  -0.081  0.00  0.00    +0.001 A 
ATOM     13  C   UNL     1       2.474   1.602  -0.092  0.00  0.00    +0.009 A 
ATOM     14  C   UNL     1       1.228   2.239  -0.099  0.00  0.00    -0.009 A 
ATOM     15  C   UNL     1       1.165   3.654  -0.095  0.00  0.00    -0.017 A 
ATOM     16  C   UNL     1       2.359   4.394  -0.084  0.00  0.00    +0.008 A 
ATOM     17  C   UNL     1      -0.088   4.289  -0.101  0.00  0.00    +0.008 A 
ATOM     18  C   UNL     1      -1.238   3.559  -0.111  0.00  0.00    +0.001 A 
ATOM     19  C   UNL     1      -1.224   2.171  -0.122  0.00  0.00    +0.010 A 
ATOM     20  C   UNL     1      -0.019   1.476  -0.111  0.00  0.00    +0.002 A 
ENDBRANCH   9  20
ENDBRANCH   1  10
BRANCH   4  21
ATOM     21  S   UNL     1       4.581  -5.934  -0.519  0.00  0.00    -0.075 S 
BRANCH  21  22
ATOM     22  C   UNL     1       6.325  -5.474  -0.666  0.00  0.00    +0.173 C 
BRANCH  22  23
ATOM     23  C   UNL     1       7.169  -6.720  -0.740  0.00  0.00    +0.228 C 
ATOM     24  O   UNL     1       6.643  -7.812  -0.698  0.00  0.00    -0.275 OA
ATOM     25  N   UNL     1       8.508  -6.622  -0.853  0.00  0.00    -0.284 N 
ATOM     26  H   UNL     1       8.993  -5.636  -0.800  0.00  0.00    +0.155 HD
BRANCH  25  27
ATOM     27  C   UNL     1       9.282  -7.774  -1.039  0.00  0.00    +0.052 A 
ATOM     28  C   UNL     1       8.781  -8.836  -1.780  0.00  0.00    +0.026 A 
ATOM     29  C   UNL     1       9.546  -9.971  -1.963  0.00  0.00    +0.022 A 
ATOM     30  C   UNL     1      10.812 -10.051  -1.409  0.00  0.00    +0.042 A 
ATOM     31  C   UNL     1      11.314  -8.995  -0.670  0.00  0.00    +0.041 A 
ATOM     32  C   UNL     1      10.555  -7.854  -0.488  0.00  0.00    +0.064 A 
ATOM     33 CL   UNL     1      11.188  -6.526   0.434  0.00  0.00    -0.082 Cl
ATOM     34 CL   UNL     1      11.770 -11.480  -1.640  0.00  0.00    -0.083 Cl
ENDBRANCH  25  27
ENDBRANCH  22  23
ENDBRANCH  21  22
ENDBRANCH   4  21
TORSDOF 6
