REMARK  Name = ZINC15678246
REMARK  9 active torsions:
REMARK  status: ('A' for Active; 'I' for Inactive)
REMARK    1  A    between atoms: C_1  and  C_2
REMARK    2  A    between atoms: C_2  and  C_21
REMARK    3  A    between atoms: C_5  and  C_16
REMARK    4  A    between atoms: N_11  and  C_12
REMARK    5  A    between atoms: C_12  and  C_13
REMARK    6  A    between atoms: C_13  and  N_68
REMARK    7  A    between atoms: C_14  and  N_68
REMARK    8  A    between atoms: C_15  and  N_68
REMARK    9  A    between atoms: N_23  and  C_24
REMARK                            x       y       z     vdW  Elec       q    Type
REMARK                         _______ _______ _______ _____ _____    ______ ____
ROOT
ATOM      1  C   UNL     1       1.898  -3.195  -6.102  0.00  0.00    +0.043 C 
ATOM      2  C   UNL     1       0.674  -2.397  -5.647  0.00  0.00    +0.128 C 
ATOM      3  C   UNL     1       0.239  -1.470  -6.781  0.00  0.00    +0.157 C 
ATOM      4  N   UNL     1      -1.089  -0.929  -6.478  0.00  0.00    -0.331 N 
ATOM      5  C   UNL     1      -1.654   0.250  -6.839  0.00  0.00    +0.085 A 
ATOM      6  C   UNL     1      -2.940   0.290  -6.322  0.00  0.00    +0.032 A 
ATOM      7  C   UNL     1      -3.155  -0.898  -5.621  0.00  0.00    +0.033 A 
ATOM      8  C   UNL     1      -2.010  -1.639  -5.716  0.00  0.00    +0.105 A 
ATOM      9  C   UNL     1      -1.671  -2.953  -5.158  0.00  0.00    +0.264 C 
ATOM     10  O   UNL     1      -2.511  -3.665  -4.639  0.00  0.00    -0.268 OA
ATOM     11  N   UNL     1      -0.374  -3.330  -5.252  0.00  0.00    -0.282 N 
ENDROOT
BRANCH   5  12
ATOM     12  C   UNL     1      -1.014   1.302  -7.640  0.00  0.00    +0.151 A 
ATOM     13  C   UNL     1      -1.546   2.525  -7.929  0.00  0.00    +0.051 A 
ATOM     14  C   UNL     1      -0.596   3.204  -8.713  0.00  0.00    +0.042 A 
ATOM     15  C   UNL     1       0.454   2.373  -8.872  0.00  0.00    +0.196 A 
ATOM     16  O   UNL     1       0.199   1.226  -8.223  0.00  0.00    -0.461 OA
ENDBRANCH   5  12
BRANCH   2  17
ATOM     17  C   UNL     1       1.056  -1.560  -4.453  0.00  0.00    +0.238 C 
ATOM     18  O   UNL     1       2.216  -1.258  -4.270  0.00  0.00    -0.273 OA
ATOM     19  N   UNL     1       0.107  -1.148  -3.588  0.00  0.00    -0.311 N 
ATOM     20  H   UNL     1      -0.820  -1.389  -3.735  0.00  0.00    +0.149 HD
BRANCH  19  21
ATOM     21  C   UNL     1       0.478  -0.334  -2.428  0.00  0.00    +0.073 C 
ATOM     22  C   UNL     1      -0.566  -0.515  -1.324  0.00  0.00    +0.022 C 
ATOM     23  C   UNL     1       0.002  -0.004   0.002  0.00  0.00    +0.002 C 
ATOM     24  C   UNL     1      -0.019   1.526   0.010  0.00  0.00    +0.000 C 
ATOM     25  C   UNL     1       1.416   2.056  -0.000  0.00  0.00    +0.000 C 
ATOM     26  C   UNL     1       2.245   1.265  -1.015  0.00  0.00    +0.000 C 
ATOM     27  C   UNL     1       1.893   1.726  -2.431  0.00  0.00    +0.002 C 
ATOM     28  C   UNL     1       0.539   1.139  -2.836  0.00  0.00    +0.022 C 
ENDBRANCH  19  21
ENDBRANCH   2  17
BRANCH  11  29
ATOM     29  C   UNL     1      -0.014  -4.718  -4.949  0.00  0.00    +0.091 C 
BRANCH  29  30
ATOM     30  C   UNL     1       0.315  -4.846  -3.461  0.00  0.00    -0.060 C 
BRANCH  30  33
ATOM     31  C   UNL     1       1.226  -6.354  -1.800  0.00  0.00    -0.097 C 
ATOM     32  C   UNL     1      -0.475  -7.131  -3.338  0.00  0.00    -0.097 C 
ATOM     33  N   UNL     1       0.697  -6.245  -3.176  0.00  0.00    +0.377 N 
ATOM     34  H   UNL     1       1.427  -6.533  -3.837  0.00  0.00    -0.083 HD
ENDBRANCH  30  33
ENDBRANCH  29  30
ENDBRANCH  11  29
TORSDOF 6
