REMARK  Name = ZINC07262840
REMARK  6 active torsions:
REMARK  status: ('A' for Active; 'I' for Inactive)
REMARK    1  A    between atoms: C_1  and  C_2
REMARK    2  A    between atoms: C_2  and  C_3
REMARK    3  A    between atoms: C_3  and  S_4
REMARK    4  A    between atoms: S_4  and  C_5
REMARK    5  A    between atoms: C_16  and  C_18
REMARK    6  A    between atoms: C_22  and  O_24
REMARK                            x       y       z     vdW  Elec       q    Type
REMARK                         _______ _______ _______ _____ _____    ______ ____
ROOT
ATOM      1  C   UNL     1      -3.112  -2.797   0.017  0.00  0.00    +0.171 A 
ATOM      2  N   UNL     1      -3.454  -4.115   0.019  0.00  0.00    -0.302 N 
ATOM      3  H   UNL     1      -2.762  -4.795   0.015  0.00  0.00    +0.171 HD
ATOM      4  C   UNL     1      -4.754  -4.478   0.026  0.00  0.00    +0.258 A 
ATOM      5  O   UNL     1      -5.071  -5.657   0.026  0.00  0.00    -0.267 OA
ATOM      6  C   UNL     1      -5.733  -3.477   0.035  0.00  0.00    +0.069 A 
ATOM      7  C   UNL     1      -5.332  -2.152   0.037  0.00  0.00    +0.135 A 
ATOM      8  N   UNL     1      -4.029  -1.851   0.031  0.00  0.00    -0.208 NA
ATOM      9  N   UNL     1      -6.282  -1.151   0.054  0.00  0.00    -0.302 N 
ATOM     10  C   UNL     1      -7.565  -1.412   0.454  0.00  0.00    +0.017 C 
ATOM     11  C   UNL     1      -8.042  -2.674   0.472  0.00  0.00    +0.024 C 
ATOM     12  C   UNL     1      -7.188  -3.839   0.040  0.00  0.00    +0.092 C 
ATOM     13  C   UNL     1      -9.354  -2.945   0.898  0.00  0.00    +0.162 C 
ATOM     14  O   UNL     1      -9.756  -4.092   0.895  0.00  0.00    -0.292 OA
ATOM     15  C   UNL     1     -10.270  -1.845   1.358  0.00  0.00    +0.080 C 
ATOM     16  C   UNL     1      -9.427  -0.704   1.937  0.00  0.00    +0.014 C 
ATOM     17  C   UNL     1      -8.431  -0.248   0.868  0.00  0.00    +0.051 C 
ATOM     18  H   UNL     1      -6.039  -0.253  -0.221  0.00  0.00    +0.153 HD
ENDROOT
BRANCH  12  19
ATOM     19  C   UNL     1      -7.596  -4.261  -1.348  0.00  0.00    -0.032 A 
ATOM     20  C   UNL     1      -7.464  -3.379  -2.405  0.00  0.00    +0.005 A 
ATOM     21  C   UNL     1      -7.837  -3.763  -3.679  0.00  0.00    +0.004 A 
ATOM     22  C   UNL     1      -8.344  -5.029  -3.900  0.00  0.00    +0.045 A 
ATOM     23  C   UNL     1      -8.477  -5.916  -2.841  0.00  0.00    +0.117 A 
ATOM     24  C   UNL     1      -8.096  -5.530  -1.564  0.00  0.00    +0.050 A 
BRANCH  23  25
ATOM     25  O   UNL     1      -8.976  -7.162  -3.056  0.00  0.00    -0.507 OA
ATOM     26  H   UNL     1      -8.303  -7.824  -3.267  0.00  0.00    +0.292 HD
ENDBRANCH  23  25
ENDBRANCH  12  19
BRANCH   1  27
ATOM     27  S   UNL     1      -1.409  -2.348   0.003  0.00  0.00    -0.088 S 
BRANCH  27  28
ATOM     28  C   UNL     1      -1.433  -0.534   0.013  0.00  0.00    +0.077 C 
BRANCH  28  30
ATOM     29  C   UNL     1      -0.019   1.526   0.010  0.00  0.00    +0.004 C 
ATOM     30  C   UNL     1       0.002  -0.004   0.002  0.00  0.00    +0.008 C 
ENDBRANCH  28  30
ENDBRANCH  27  28
ENDBRANCH   1  27
TORSDOF 5
