REMARK  Name = ZINC63795250
REMARK  9 active torsions:
REMARK  status: ('A' for Active; 'I' for Inactive)
REMARK    1  A    between atoms: C_1  and  O_2
REMARK    2  A    between atoms: O_2  and  C_3
REMARK    3  A    between atoms: C_9  and  C_12
REMARK    4  A    between atoms: C_12  and  C_13
REMARK    5  A    between atoms: C_13  and  N_14
REMARK    6  A    between atoms: C_15  and  C_33
REMARK    7  A    between atoms: C_19  and  C_27
REMARK    8  A    between atoms: C_38  and  O_39
REMARK    9  A    between atoms: O_39  and  C_40
REMARK                            x       y       z     vdW  Elec       q    Type
REMARK                         _______ _______ _______ _____ _____    ______ ____
ROOT
ATOM      1  N   UNL     1       2.245  -6.758  -0.613  0.00  0.00    -0.292 N 
ATOM      2  C   UNL     1       2.219  -8.059   0.064  0.00  0.00    +0.118 C 
ATOM      3  C   UNL     1       1.120  -8.877  -0.646  0.00  0.00    +0.077 C 
ATOM      4  C   UNL     1       1.694 -10.268  -1.006  0.00  0.00    +0.136 C 
ATOM      5  N   UNL     1       2.381 -10.058  -2.287  0.00  0.00    -0.305 N 
ATOM      6  N   UNL     1       2.072  -9.000  -2.830  0.00  0.00    -0.203 NA
ATOM      7  C   UNL     1       1.089  -8.204  -2.054  0.00  0.00    +0.218 C 
ATOM      8  C   UNL     1       1.621  -6.812  -1.801  0.00  0.00    +0.243 C 
ATOM      9  O   UNL     1       1.503  -5.877  -2.564  0.00  0.00    -0.273 OA
ATOM     10  H   UNL     1       3.013 -10.689  -2.665  0.00  0.00    +0.183 HD
ENDROOT
BRANCH   4  11
ATOM     11  C   UNL     1       2.669 -10.725   0.048  0.00  0.00    -0.023 A 
ATOM     12  C   UNL     1       2.408 -10.478   1.383  0.00  0.00    +0.006 A 
ATOM     13  C   UNL     1       3.302 -10.897   2.351  0.00  0.00    +0.000 A 
ATOM     14  C   UNL     1       4.457 -11.563   1.984  0.00  0.00    +0.000 A 
ATOM     15  C   UNL     1       4.716 -11.811   0.648  0.00  0.00    +0.000 A 
ATOM     16  C   UNL     1       3.820 -11.396  -0.319  0.00  0.00    +0.006 A 
ENDBRANCH   4  11
BRANCH   2  17
ATOM     17  C   UNL     1       3.553  -8.745  -0.075  0.00  0.00    +0.015 A 
ATOM     18  C   UNL     1       4.046  -9.052  -1.328  0.00  0.00    +0.009 A 
ATOM     19  C   UNL     1       5.269  -9.682  -1.456  0.00  0.00    +0.001 A 
ATOM     20  C   UNL     1       6.004 -10.007  -0.330  0.00  0.00    +0.004 A 
ATOM     21  C   UNL     1       5.516  -9.702   0.925  0.00  0.00    +0.046 A 
ATOM     22  C   UNL     1       4.290  -9.065   1.056  0.00  0.00    +0.125 A 
BRANCH  22  23
ATOM     23  O   UNL     1       3.810  -8.758   2.290  0.00  0.00    -0.495 OA
ATOM     24  C   UNL     1       4.688  -8.969   3.398  0.00  0.00    +0.277 C 
ENDBRANCH  22  23
ENDBRANCH   2  17
BRANCH   1  25
ATOM     25  C   UNL     1       2.869  -5.552  -0.062  0.00  0.00    +0.113 C 
BRANCH  25  26
ATOM     26  C   UNL     1       1.841  -4.781   0.768  0.00  0.00    +0.052 C 
BRANCH  26  33
ATOM     27  C   UNL     1       1.982  -0.426  -0.685  0.00  0.00    +0.121 A 
ATOM     28  C   UNL     1       2.700   0.445   0.153  0.00  0.00    +0.047 A 
ATOM     29  C   UNL     1       3.299   0.031   1.290  0.00  0.00    +0.029 A 
ATOM     30  C   UNL     1       3.209  -1.378   1.689  0.00  0.00    +0.043 A 
ATOM     31  N   UNL     1       3.687  -2.028   2.720  0.00  0.00    -0.380 N 
ATOM     32  C   UNL     1       3.288  -3.436   2.611  0.00  0.00    +0.144 C 
ATOM     33  C   UNL     1       2.482  -3.541   1.335  0.00  0.00    -0.040 C 
ATOM     34  C   UNL     1       2.452  -2.296   0.807  0.00  0.00    +0.002 A 
ATOM     35  C   UNL     1       1.836  -1.743  -0.404  0.00  0.00    +0.055 A 
ATOM     36  H   UNL     1       4.217  -1.644   3.436  0.00  0.00    +0.160 HD
BRANCH  27  38
ATOM     37  C   UNL     1       1.589   1.466  -2.070  0.00  0.00    +0.277 C 
ATOM     38  O   UNL     1       1.410   0.071  -1.813  0.00  0.00    -0.495 OA
ENDBRANCH  27  38
ENDBRANCH  26  33
ENDBRANCH  25  26
ENDBRANCH   1  25
TORSDOF 7
