REMARK  Name = ZINC19804946
REMARK  6 active torsions:
REMARK  status: ('A' for Active; 'I' for Inactive)
REMARK    1  A    between atoms: C_4  and  C_7
REMARK    2  A    between atoms: C_8  and  C_27
REMARK    3  A    between atoms: C_9  and  N_26
REMARK    4  A    between atoms: C_13  and  N_25
REMARK    5  A    between atoms: C_14  and  C_16
REMARK    6  A    between atoms: C_16  and  C_18
REMARK                            x       y       z     vdW  Elec       q    Type
REMARK                         _______ _______ _______ _____ _____    ______ ____
ROOT
ATOM      1  C   UNL     1       1.285   2.633  -1.543  0.00  0.00    +0.014 A 
ATOM      2  C   UNL     1       0.070   1.990  -1.811  0.00  0.00    +0.100 A 
ATOM      3  C   UNL     1      -1.142   2.694  -1.663  0.00  0.00    +0.136 A 
ATOM      4  N   UNL     1      -1.134   3.955  -1.263  0.00  0.00    -0.224 NA
ATOM      5  C   UNL     1      -0.013   4.596  -1.002  0.00  0.00    +0.113 A 
ATOM      6  C   UNL     1       1.262   3.995  -1.119  0.00  0.00    +0.038 A 
ATOM      7  C   UNL     1       2.384   4.854  -0.789  0.00  0.00    +0.053 A 
ATOM      8  C   UNL     1       2.120   6.155  -0.398  0.00  0.00    +0.083 A 
ATOM      9  S   UNL     1       0.343   6.252  -0.465  0.00  0.00    -0.063 S 
ENDROOT
BRANCH   1  13
ATOM     10  C   UNL     1       4.971   0.567  -1.985  0.00  0.00    +0.000 A 
ATOM     11  C   UNL     1       4.224   0.890  -3.104  0.00  0.00    +0.001 A 
ATOM     12  C   UNL     1       3.026   1.562  -2.967  0.00  0.00    +0.008 A 
ATOM     13  C   UNL     1       2.568   1.914  -1.697  0.00  0.00    -0.016 A 
ATOM     14  C   UNL     1       3.329   1.589  -0.573  0.00  0.00    +0.008 A 
ATOM     15  C   UNL     1       4.522   0.913  -0.723  0.00  0.00    +0.001 A 
ENDBRANCH   1  13
BRANCH   7  16
ATOM     16  N   UNL     1       3.686   4.385  -0.864  0.00  0.00    -0.356 N 
ATOM     17  H   UNL     1       4.526   5.048  -0.611  0.00  0.00    +0.142 HD
ATOM     18  H   UNL     1       3.879   3.348  -1.177  0.00  0.00    +0.142 HD
ENDBRANCH   7  16
BRANCH   3  19
ATOM     19  N   UNL     1      -2.342   2.064  -1.932  0.00  0.00    -0.342 N 
ATOM     20  H   UNL     1      -3.289   2.612  -1.818  0.00  0.00    +0.144 HD
ATOM     21  H   UNL     1      -2.351   1.014  -2.261  0.00  0.00    +0.144 HD
ENDBRANCH   3  19
BRANCH   8  22
ATOM     22  C   UNL     1       3.039   7.163  -0.033  0.00  0.00    +0.202 C 
ATOM     23  O   UNL     1       4.224   6.897   0.076  0.00  0.00    -0.286 OA
BRANCH  22  24
ATOM     24  C   UNL     1       2.564   8.541   0.218  0.00  0.00    +0.023 A 
ATOM     25  C   UNL     1       1.382   8.993  -0.371  0.00  0.00    +0.013 A 
ATOM     26  C   UNL     1       0.942  10.277  -0.129  0.00  0.00    +0.016 A 
ATOM     27  C   UNL     1       1.675  11.122   0.687  0.00  0.00    +0.018 A 
ATOM     28  C   UNL     1       2.852  10.681   1.269  0.00  0.00    +0.016 A 
ATOM     29  C   UNL     1       3.300   9.397   1.040  0.00  0.00    +0.013 A 
ATOM     30 BR   UNL     1       1.068  12.884   1.008  0.00  0.00    -0.050 Br
ENDBRANCH  22  24
ENDBRANCH   8  22
BRANCH   2  31
ATOM     31  C   UNL     1       0.059   0.623  -2.238  0.00  0.00    +0.103 C 
ATOM     32  N   UNL     1       0.051  -0.462  -2.576  0.00  0.00    -0.191 NA
ENDBRANCH   2  31
TORSDOF 6
