REMARK  Name = ZINC00736593
REMARK  12 active torsions:
REMARK  status: ('A' for Active; 'I' for Inactive)
REMARK    1  A    between atoms: C_1  and  C_2
REMARK    2  A    between atoms: C_5  and  N_8
REMARK    3  A    between atoms: C_9  and  C_22
REMARK    4  A    between atoms: C_12  and  S_13
REMARK    5  A    between atoms: S_13  and  C_14
REMARK    6  A    between atoms: C_14  and  C_15
REMARK    7  A    between atoms: C_20  and  C_21
REMARK    8  A    between atoms: C_22  and  C_24
REMARK    9  A    between atoms: C_22  and  N_25
REMARK   10  A    between atoms: N_28  and  C_29
REMARK   11  A    between atoms: C_34  and  O_35
REMARK   12  A    between atoms: O_35  and  C_36
REMARK                            x       y       z     vdW  Elec       q    Type
REMARK                         _______ _______ _______ _____ _____    ______ ____
ROOT
ATOM      1  N   UNL     1       0.030  -4.191  -0.051  0.00  0.00    -0.273 N 
ATOM      2  C   UNL     1      -0.948  -5.030   0.415  0.00  0.00    +0.159 A 
ATOM      3  N   UNL     1      -0.535  -6.251   0.220  0.00  0.00    -0.131 NA
ATOM      4  N   UNL     1       0.626  -6.243  -0.332  0.00  0.00    -0.122 NA
ATOM      5  C   UNL     1       1.020  -5.006  -0.527  0.00  0.00    +0.196 A 
ENDROOT
BRANCH   1  10
ATOM      6  C   UNL     1      -0.030   1.485  -0.029  0.00  0.00    +0.044 C 
ATOM      7  C   UNL     1      -0.014  -0.022  -0.034  0.00  0.00    -0.050 A 
ATOM      8  C   UNL     1      -0.021  -0.708  -1.235  0.00  0.00    +0.005 A 
ATOM      9  C   UNL     1      -0.007  -2.089  -1.244  0.00  0.00    +0.026 A 
ATOM     10  C   UNL     1       0.015  -2.789  -0.045  0.00  0.00    +0.050 A 
ATOM     11  C   UNL     1       0.023  -2.098   1.159  0.00  0.00    +0.026 A 
ATOM     12  C   UNL     1       0.014  -0.717   1.161  0.00  0.00    +0.005 A 
ENDBRANCH   1  10
BRANCH   2  13
ATOM     13  C   UNL     1      -2.257  -4.619   1.038  0.00  0.00    +0.140 C 
ATOM     14  C   UNL     1      -3.390  -4.840   0.034  0.00  0.00    +0.036 C 
BRANCH  13  15
ATOM     15  N   UNL     1      -2.502  -5.425   2.236  0.00  0.00    -0.290 N 
ATOM     16  C   UNL     1      -3.291  -4.948   3.219  0.00  0.00    +0.305 C 
ATOM     17  O   UNL     1      -3.799  -3.849   3.111  0.00  0.00    -0.252 OA
ATOM     18  N   UNL     1      -3.516  -5.689   4.322  0.00  0.00    -0.266 N 
ATOM     19  H   UNL     1      -2.096  -6.302   2.322  0.00  0.00    +0.151 HD
ATOM     20  H   UNL     1      -3.164  -6.591   4.380  0.00  0.00    +0.156 HD
BRANCH  18  21
ATOM     21  C   UNL     1      -4.260  -5.157   5.385  0.00  0.00    +0.077 A 
ATOM     22  C   UNL     1      -5.313  -4.291   5.131  0.00  0.00    +0.027 A 
ATOM     23  C   UNL     1      -6.045  -3.767   6.180  0.00  0.00    +0.002 A 
ATOM     24  C   UNL     1      -5.729  -4.104   7.484  0.00  0.00    +0.004 A 
ATOM     25  C   UNL     1      -4.680  -4.967   7.744  0.00  0.00    +0.047 A 
ATOM     26  C   UNL     1      -3.946  -5.500   6.697  0.00  0.00    +0.141 A 
BRANCH  26  27
ATOM     27  O   UNL     1      -2.918  -6.353   6.952  0.00  0.00    -0.493 OA
ATOM     28  C   UNL     1      -2.653  -6.661   8.322  0.00  0.00    +0.277 C 
ENDBRANCH  26  27
ENDBRANCH  18  21
ENDBRANCH  13  15
ENDBRANCH   2  13
BRANCH   5  29
ATOM     29  S   UNL     1       2.538  -4.492  -1.260  0.00  0.00    -0.081 S 
BRANCH  29  30
ATOM     30  C   UNL     1       3.378  -6.048  -1.664  0.00  0.00    +0.112 C 
BRANCH  30  31
ATOM     31  C   UNL     1       4.708  -5.748  -2.306  0.00  0.00    -0.034 A 
ATOM     32  C   UNL     1       4.797  -5.607  -3.678  0.00  0.00    +0.005 A 
ATOM     33  C   UNL     1       6.017  -5.332  -4.267  0.00  0.00    +0.000 A 
ATOM     34  C   UNL     1       7.148  -5.198  -3.484  0.00  0.00    +0.000 A 
ATOM     35  C   UNL     1       7.059  -5.339  -2.112  0.00  0.00    +0.003 A 
ATOM     36  C   UNL     1       5.838  -5.610  -1.522  0.00  0.00    -0.046 A 
ATOM     37  C   UNL     1       5.740  -5.758  -0.026  0.00  0.00    +0.044 C 
ENDBRANCH  30  31
ENDBRANCH  29  30
ENDBRANCH   5  29
TORSDOF 8
