REMARK  Name = ZINC19353492
REMARK  7 active torsions:
REMARK  status: ('A' for Active; 'I' for Inactive)
REMARK    1  A    between atoms: C_1  and  C_2
REMARK    2  A    between atoms: C_9  and  C_14
REMARK    3  A    between atoms: C_14  and  S_15
REMARK    4  A    between atoms: S_15  and  C_16
REMARK    5  A    between atoms: C_18  and  C_28
REMARK    6  A    between atoms: C_19  and  C_27
REMARK    7  A    between atoms: N_20  and  C_21
REMARK                            x       y       z     vdW  Elec       q    Type
REMARK                         _______ _______ _______ _____ _____    ______ ____
ROOT
ATOM      1  S   UNL     1       0.018   1.821   4.444  0.00  0.00    -0.082 S 
ENDROOT
BRANCH   1   2
ATOM      2  C   UNL     1       0.022   2.585   6.031  0.00  0.00    +0.148 A 
ATOM      3  N   UNL     1       0.047   1.959   7.185  0.00  0.00    -0.338 N 
ATOM      4  C   UNL     1       0.042   2.862   8.180  0.00  0.00    +0.034 A 
ATOM      5  C   UNL     1       0.013   4.091   7.636  0.00  0.00    +0.037 A 
ATOM      6  N   UNL     1       0.005   3.925   6.270  0.00  0.00    -0.321 N 
ATOM      7  C   UNL     1      -0.003   5.401   8.381  0.00  0.00    +0.065 C 
ATOM      8  C   UNL     1       0.065   2.550   9.654  0.00  0.00    +0.065 C 
ATOM      9  H   UNL     1       0.066   0.997   7.301  0.00  0.00    +0.168 HD
BRANCH   6  10
ATOM     10  C   UNL     1      -0.019   4.989   5.263  0.00  0.00    +0.089 C 
ATOM     11  C   UNL     1      -1.276   4.847   4.401  0.00  0.00    +0.025 C 
ATOM     12  C   UNL     1      -1.301   5.958   3.350  0.00  0.00    +0.002 C 
ATOM     13  C   UNL     1      -0.059   5.850   2.463  0.00  0.00    +0.000 C 
ATOM     14  C   UNL     1       1.197   5.992   3.325  0.00  0.00    +0.002 C 
ATOM     15  C   UNL     1       1.223   4.881   4.376  0.00  0.00    +0.025 C 
ENDBRANCH   6  10
ENDBRANCH   1   2
BRANCH   1  16
ATOM     16  C   UNL     1       0.046   0.044   4.812  0.00  0.00    +0.151 C 
BRANCH  16  25
ATOM     17  C   UNL     1      -0.018   1.503   0.010  0.00  0.00    +0.046 C 
ATOM     18  C   UNL     1       0.002  -0.004   0.002  0.00  0.00    -0.024 A 
ATOM     19  C   UNL     1       0.006  -0.689  -1.192  0.00  0.00    +0.005 A 
ATOM     20  C   UNL     1       0.025  -2.078  -1.216  0.00  0.00    +0.001 A 
ATOM     21  C   UNL     1       0.040  -2.798  -0.042  0.00  0.00    +0.015 A 
ATOM     22  C   UNL     1       0.037  -2.124   1.177  0.00  0.00    +0.065 A 
ATOM     23  C   UNL     1       0.023  -0.712   1.205  0.00  0.00    +0.081 A 
ATOM     24  N   UNL     1       0.025  -0.077   2.404  0.00  0.00    -0.233 NA
ATOM     25  C   UNL     1       0.045  -0.736   3.523  0.00  0.00    +0.121 A 
ATOM     26  N   UNL     1       0.065  -2.093   3.591  0.00  0.00    -0.310 N 
ATOM     27  H   UNL     1       0.080  -2.530   4.456  0.00  0.00    +0.170 HD
ATOM     28  C   UNL     1       0.053  -2.840   2.462  0.00  0.00    +0.259 A 
ATOM     29  O   UNL     1       0.069  -4.056   2.508  0.00  0.00    -0.267 OA
ENDBRANCH  16  25
ENDBRANCH   1  16
TORSDOF 4
