REMARK  Name = ZINC36159584
REMARK  11 active torsions:
REMARK  status: ('A' for Active; 'I' for Inactive)
REMARK    1  A    between atoms: C_3  and  C_6
REMARK    2  A    between atoms: C_6  and  N_7
REMARK    3  A    between atoms: N_7  and  C_8
REMARK    4  A    between atoms: N_7  and  C_23
REMARK    5  A    between atoms: C_8  and  C_9
REMARK    6  A    between atoms: C_23  and  C_24
REMARK    7  A    between atoms: C_24  and  C_26
REMARK    8  A    between atoms: C_24  and  O_34
REMARK    9  A    between atoms: C_26  and  O_27
REMARK   10  A    between atoms: O_27  and  C_28
REMARK   11  A    between atoms: C_28  and  C_29
REMARK                            x       y       z     vdW  Elec       q    Type
REMARK                         _______ _______ _______ _____ _____    ______ ____
ROOT
ATOM      1  N   UNL     1       4.136   1.061   1.593  0.00  0.00    +0.391 N 
ATOM      2  H   UNL     1       3.968   1.898   2.131  0.00  0.00    -0.080 HD
ENDROOT
BRANCH   1   3
ATOM      3  C   UNL     1       3.254   1.047   0.419  0.00  0.00    -0.002 C 
BRANCH   3   6
ATOM      4  C   UNL     1      -0.166   1.853   1.532  0.00  0.00    +0.041 A 
ATOM      5  C   UNL     1       1.139   2.246   1.155  0.00  0.00    +0.042 A 
ATOM      6  C   UNL     1       1.818   1.120   0.869  0.00  0.00    +0.089 A 
ATOM      7  O   UNL     1       0.998   0.072   1.052  0.00  0.00    -0.470 OA
ATOM      8  C   UNL     1      -0.206   0.511   1.454  0.00  0.00    +0.195 A 
ENDBRANCH   3   6
ENDBRANCH   1   3
BRANCH   1   9
ATOM      9  C   UNL     1       3.862  -0.119   2.425  0.00  0.00    -0.003 C 
BRANCH   9  10
ATOM     10  C   UNL     1       4.648  -0.023   3.708  0.00  0.00    +0.094 A 
ATOM     11  N   UNL     1       4.642  -1.070   4.572  0.00  0.00    -0.312 N 
ATOM     12  H   UNL     1       4.133  -1.866   4.352  0.00  0.00    +0.170 HD
ATOM     13  C   UNL     1       5.330  -1.026   5.729  0.00  0.00    +0.260 A 
ATOM     14  O   UNL     1       5.316  -1.974   6.496  0.00  0.00    -0.267 OA
ATOM     15  C   UNL     1       6.078   0.155   6.042  0.00  0.00    +0.075 A 
ATOM     16  C   UNL     1       6.895   0.421   7.236  0.00  0.00    -0.023 A 
ATOM     17  C   UNL     1       7.505   1.617   7.299  0.00  0.00    -0.004 A 
ATOM     18  S   UNL     1       7.043   2.450   5.798  0.00  0.00    -0.073 S 
ATOM     19  C   UNL     1       6.024   1.182   5.090  0.00  0.00    +0.116 A 
ATOM     20  N   UNL     1       5.325   1.064   3.964  0.00  0.00    -0.229 NA
ATOM     21  C   UNL     1       8.306   1.780   8.563  0.00  0.00    +0.043 C 
ATOM     22  C   UNL     1       7.772   0.678   9.505  0.00  0.00    +0.010 C 
ATOM     23  C   UNL     1       7.250  -0.367   8.499  0.00  0.00    +0.037 C 
ENDBRANCH   9  10
ENDBRANCH   1   9
BRANCH   1  24
ATOM     24  C   UNL     1       5.538   1.035   1.153  0.00  0.00    -0.044 C 
BRANCH  24  25
ATOM     25  C   UNL     1       5.877   2.352   0.453  0.00  0.00    +0.124 C 
BRANCH  25  26
ATOM     26  O   UNL     1       5.168   2.428  -0.786  0.00  0.00    -0.391 OA
ATOM     27  H   UNL     1       5.377   1.714  -1.404  0.00  0.00    +0.210 HD
ENDBRANCH  25  26
BRANCH  25  28
ATOM     28  C   UNL     1       7.381   2.414   0.184  0.00  0.00    +0.189 C 
BRANCH  28  29
ATOM     29  O   UNL     1       7.715   3.691  -0.364  0.00  0.00    -0.370 OA
BRANCH  29  30
ATOM     30  C   UNL     1       9.105   3.854  -0.654  0.00  0.00    +0.234 C 
BRANCH  30  31
ATOM     31  C   UNL     1       9.341   5.228  -1.224  0.00  0.00    +0.130 A 
ATOM     32  C   UNL     1       9.634   6.334  -0.516  0.00  0.00    +0.047 A 
ATOM     33  C   UNL     1       9.773   7.391  -1.445  0.00  0.00    +0.041 A 
ATOM     34  C   UNL     1       9.557   6.867  -2.665  0.00  0.00    +0.195 A 
ATOM     35  O   UNL     1       9.302   5.556  -2.526  0.00  0.00    -0.465 OA
ENDBRANCH  30  31
ENDBRANCH  29  30
ENDBRANCH  28  29
ENDBRANCH  25  28
ENDBRANCH  24  25
ENDBRANCH   1  24
TORSDOF 11
