REMARK  Name = ZINC09206666
REMARK  9 active torsions:
REMARK  status: ('A' for Active; 'I' for Inactive)
REMARK    1  A    between atoms: C_1  and  C_2
REMARK    2  A    between atoms: C_3  and  C_32
REMARK    3  A    between atoms: N_4  and  C_25
REMARK    4  A    between atoms: C_5  and  N_9
REMARK    5  A    between atoms: C_6  and  C_7
REMARK    6  A    between atoms: C_10  and  C_12
REMARK    7  A    between atoms: C_12  and  S_13
REMARK    8  A    between atoms: S_13  and  C_14
REMARK    9  A    between atoms: N_18  and  C_19
REMARK                            x       y       z     vdW  Elec       q    Type
REMARK                         _______ _______ _______ _____ _____    ______ ____
ROOT
ATOM      1  N   UNL     1      -0.912   6.527  -0.070  0.00  0.00    -0.270 N 
ATOM      2  C   UNL     1      -0.580   5.710   0.949  0.00  0.00    +0.229 C 
ATOM      3  O   UNL     1      -0.115   6.171   1.970  0.00  0.00    -0.275 OA
ATOM      4  H   UNL     1      -1.213   6.153  -0.912  0.00  0.00    +0.156 HD
ENDROOT
BRANCH   1   9
ATOM      5  C   UNL     1      -2.050  11.414   0.529  0.00  0.00    +0.047 C 
ATOM      6  C   UNL     1      -1.304  10.117   0.357  0.00  0.00    -0.010 A 
ATOM      7  C   UNL     1       0.029   9.960   0.299  0.00  0.00    +0.027 A 
ATOM      8  N   UNL     1       0.323   8.631   0.137  0.00  0.00    -0.300 N 
ATOM      9  C   UNL     1      -0.825   7.902   0.087  0.00  0.00    +0.128 A 
ATOM     10  C   UNL     1      -1.893   8.779   0.215  0.00  0.00    +0.095 A 
ATOM     11  C   UNL     1       1.042  11.072   0.397  0.00  0.00    +0.064 C 
BRANCH   8  12
ATOM     12  C   UNL     1       1.616   8.101   0.037  0.00  0.00    +0.051 A 
ATOM     13  C   UNL     1       2.047   7.538  -1.157  0.00  0.00    +0.026 A 
ATOM     14  C   UNL     1       3.322   7.016  -1.254  0.00  0.00    +0.005 A 
ATOM     15  C   UNL     1       4.170   7.052  -0.163  0.00  0.00    +0.038 A 
ATOM     16  C   UNL     1       3.745   7.612   1.030  0.00  0.00    +0.125 A 
ATOM     17  C   UNL     1       2.470   8.142   1.130  0.00  0.00    +0.064 A 
ATOM     18  F   UNL     1       4.576   7.647   2.094  0.00  0.00    -0.205 F 
ENDBRANCH   8  12
BRANCH  10  19
ATOM     19  C   UNL     1      -3.286   8.447   0.212  0.00  0.00    +0.103 C 
ATOM     20  N   UNL     1      -4.391   8.184   0.210  0.00  0.00    -0.191 NA
ENDBRANCH  10  19
ENDBRANCH   1   9
BRANCH   2  21
ATOM     21  C   UNL     1      -0.785   4.222   0.821  0.00  0.00    +0.173 C 
BRANCH  21  22
ATOM     22  S   UNL     1      -0.246   3.405   2.343  0.00  0.00    -0.075 S 
BRANCH  22  23
ATOM     23  C   UNL     1      -0.588   1.727   1.927  0.00  0.00    +0.214 A 
ATOM     24  N   UNL     1      -1.096   1.289   0.795  0.00  0.00    -0.101 NA
ATOM     25  N   UNL     1      -1.216   0.011   0.820  0.00  0.00    -0.022 NA
ATOM     26  N   UNL     1      -0.803  -0.460   1.947  0.00  0.00    -0.038 NA
ATOM     27  N   UNL     1      -0.377   0.637   2.716  0.00  0.00    -0.187 N 
BRANCH  27  28
ATOM     28  C   UNL     1       0.151   0.614   4.015  0.00  0.00    +0.070 A 
ATOM     29  C   UNL     1       1.144   1.513   4.378  0.00  0.00    +0.028 A 
ATOM     30  C   UNL     1       1.658   1.492   5.660  0.00  0.00    +0.002 A 
ATOM     31  C   UNL     1       1.193   0.568   6.577  0.00  0.00    +0.000 A 
ATOM     32  C   UNL     1       0.208  -0.334   6.217  0.00  0.00    +0.002 A 
ATOM     33  C   UNL     1      -0.314  -0.313   4.938  0.00  0.00    +0.028 A 
ENDBRANCH  27  28
ENDBRANCH  22  23
ENDBRANCH  21  22
ENDBRANCH   2  21
TORSDOF 7
