REMARK  Name = ZINC35377650
REMARK  14 active torsions:
REMARK  status: ('A' for Active; 'I' for Inactive)
REMARK    1  A    between atoms: C_1  and  C_2
REMARK    2  A    between atoms: C_2  and  C_3
REMARK    3  A    between atoms: C_2  and  C_4
REMARK    4  A    between atoms: C_4  and  C_5
REMARK    5  A    between atoms: C_5  and  N_6
REMARK    6  A    between atoms: C_7  and  C_9
REMARK    7  A    between atoms: C_9  and  C_10
REMARK    8  A    between atoms: C_10  and  C_11
REMARK    9  A    between atoms: C_11  and  C_12
REMARK   10  A    between atoms: C_12  and  N_13
REMARK   11  A    between atoms: N_22  and  C_25
REMARK   12  A    between atoms: C_25  and  C_26
REMARK   13  A    between atoms: N_28  and  C_29
REMARK   14  A    between atoms: C_29  and  C_30
REMARK                            x       y       z     vdW  Elec       q    Type
REMARK                         _______ _______ _______ _____ _____    ______ ____
ROOT
ATOM      1  N   UNL     1      -7.209  -8.495  -0.454  0.00  0.00    -0.260 N 
ATOM      2  C   UNL     1      -7.786  -8.821   0.723  0.00  0.00    +0.264 A 
ATOM      3  O   UNL     1      -7.179  -8.700   1.770  0.00  0.00    -0.267 OA
ATOM      4  C   UNL     1      -9.169  -9.329   0.706  0.00  0.00    +0.063 A 
ATOM      5  C   UNL     1      -9.833  -9.686   1.877  0.00  0.00    +0.015 A 
ATOM      6  C   UNL     1     -11.128 -10.155   1.808  0.00  0.00    +0.001 A 
ATOM      7  C   UNL     1     -11.768 -10.272   0.583  0.00  0.00    +0.002 A 
ATOM      8  C   UNL     1     -11.121  -9.921  -0.585  0.00  0.00    +0.027 A 
ATOM      9  C   UNL     1      -9.819  -9.447  -0.535  0.00  0.00    +0.059 A 
ATOM     10  N   UNL     1      -9.133  -9.083  -1.685  0.00  0.00    -0.284 N 
ATOM     11  C   UNL     1      -7.873  -8.620  -1.613  0.00  0.00    +0.333 A 
ATOM     12  O   UNL     1      -7.309  -8.308  -2.644  0.00  0.00    -0.246 OA
ENDROOT
BRANCH   1  13
ATOM     13  C   UNL     1      -5.835  -7.987  -0.464  0.00  0.00    +0.130 C 
BRANCH  13  14
ATOM     14  C   UNL     1      -5.852  -6.463  -0.330  0.00  0.00    +0.022 C 
BRANCH  14  15
ATOM     15  C   UNL     1      -4.417  -5.934  -0.341  0.00  0.00    +0.011 C 
BRANCH  15  16
ATOM     16  C   UNL     1      -4.435  -4.410  -0.207  0.00  0.00    +0.096 C 
BRANCH  16  18
ATOM     17  N   UNL     1      -2.790  -2.565  -0.111  0.00  0.00    -0.315 N 
ATOM     18  C   UNL     1      -3.021  -3.888  -0.217  0.00  0.00    +0.213 C 
ATOM     19  O   UNL     1      -2.091  -4.660  -0.322  0.00  0.00    -0.276 OA
ATOM     20  H   UNL     1      -3.534  -1.948  -0.027  0.00  0.00    +0.149 HD
BRANCH  17  21
ATOM     21  C   UNL     1      -1.416  -2.058  -0.121  0.00  0.00    +0.104 C 
BRANCH  21  22
ATOM     22  C   UNL     1      -1.433  -0.534   0.013  0.00  0.00    +0.022 C 
BRANCH  22  24
ATOM     23  C   UNL     1      -0.019   1.526   0.010  0.00  0.00    +0.007 C 
ATOM     24  C   UNL     1       0.002  -0.004   0.002  0.00  0.00    -0.016 C 
ATOM     25  C   UNL     1       0.742  -0.511   1.242  0.00  0.00    +0.007 C 
ENDBRANCH  22  24
ENDBRANCH  21  22
ENDBRANCH  17  21
ENDBRANCH  16  18
ENDBRANCH  15  16
ENDBRANCH  14  15
ENDBRANCH  13  14
ENDBRANCH   1  13
BRANCH  10  26
ATOM     26  C   UNL     1      -9.791  -9.198  -2.989  0.00  0.00    +0.222 C 
BRANCH  26  27
ATOM     27  C   UNL     1     -10.505  -7.910  -3.307  0.00  0.00    +0.233 C 
ATOM     28  O   UNL     1     -10.469  -6.986  -2.522  0.00  0.00    -0.274 OA
ATOM     29  N   UNL     1     -11.184  -7.784  -4.464  0.00  0.00    -0.310 N 
ATOM     30  H   UNL     1     -11.214  -8.523  -5.092  0.00  0.00    +0.149 HD
BRANCH  29  31
ATOM     31  C   UNL     1     -11.879  -6.532  -4.774  0.00  0.00    +0.141 C 
BRANCH  31  32
ATOM     32  C   UNL     1     -12.555  -6.651  -6.115  0.00  0.00    -0.012 A 
ATOM     33  C   UNL     1     -11.962  -6.107  -7.239  0.00  0.00    +0.006 A 
ATOM     34  C   UNL     1     -12.582  -6.216  -8.470  0.00  0.00    +0.000 A 
ATOM     35  C   UNL     1     -13.796  -6.869  -8.577  0.00  0.00    +0.001 A 
ATOM     36  C   UNL     1     -14.390  -7.413  -7.454  0.00  0.00    +0.020 A 
ATOM     37  C   UNL     1     -13.767  -7.309  -6.223  0.00  0.00    +0.046 A 
ATOM     38 CL   UNL     1     -14.510  -7.998  -4.813  0.00  0.00    -0.083 Cl
ENDBRANCH  31  32
ENDBRANCH  29  31
ENDBRANCH  26  27
ENDBRANCH  10  26
TORSDOF 12
