REMARK  Name = ZINC36597640
REMARK  13 active torsions:
REMARK  status: ('A' for Active; 'I' for Inactive)
REMARK    1  A    between atoms: C_1  and  C_2
REMARK    2  A    between atoms: C_5  and  C_7
REMARK    3  A    between atoms: C_7  and  N_8
REMARK    4  A    between atoms: N_8  and  C_9
REMARK    5  A    between atoms: C_9  and  C_11
REMARK    6  A    between atoms: C_9  and  C_20
REMARK    7  A    between atoms: C_14  and  O_19
REMARK    8  A    between atoms: C_15  and  O_17
REMARK    9  A    between atoms: O_17  and  C_18
REMARK   10  A    between atoms: N_22  and  C_23
REMARK   11  A    between atoms: C_29  and  C_31
REMARK   12  A    between atoms: C_32  and  O_38
REMARK   13  A    between atoms: C_36  and  O_37
REMARK                            x       y       z     vdW  Elec       q    Type
REMARK                         _______ _______ _______ _____ _____    ______ ____
ROOT
ATOM      1  C   UNL     1       3.125  -2.914  -2.179  0.00  0.00    +0.193 C 
ENDROOT
BRANCH   1   2
ATOM      2  C   UNL     1       2.240  -1.986  -1.387  0.00  0.00    -0.015 A 
ATOM      3  C   UNL     1       1.525  -2.469  -0.307  0.00  0.00    +0.010 A 
ATOM      4  C   UNL     1       0.713  -1.622   0.423  0.00  0.00    +0.049 A 
ATOM      5  C   UNL     1       0.614  -0.285   0.072  0.00  0.00    +0.158 A 
ATOM      6  C   UNL     1       1.334   0.202  -1.014  0.00  0.00    +0.162 A 
ATOM      7  C   UNL     1       2.151  -0.652  -1.738  0.00  0.00    +0.055 A 
BRANCH   6   8
ATOM      8  O   UNL     1       1.241   1.513  -1.362  0.00  0.00    -0.491 OA
ATOM      9  C   UNL     1       2.009   1.942  -2.488  0.00  0.00    +0.277 C 
ENDBRANCH   6   8
BRANCH   5  10
ATOM     10  O   UNL     1      -0.185   0.550   0.789  0.00  0.00    -0.503 OA
ATOM     11  H   UNL     1       0.261   0.981   1.531  0.00  0.00    +0.292 HD
ENDBRANCH   5  10
ENDBRANCH   1   2
BRANCH   1  12
ATOM     12  C   UNL     1       4.515  -2.902  -1.597  0.00  0.00    +0.238 C 
ATOM     13  O   UNL     1       4.725  -3.409  -0.516  0.00  0.00    -0.273 OA
ATOM     14  N   UNL     1       5.526  -2.327  -2.279  0.00  0.00    -0.311 N 
ATOM     15  H   UNL     1       5.358  -1.921  -3.144  0.00  0.00    +0.149 HD
BRANCH  14  16
ATOM     16  C   UNL     1       6.877  -2.314  -1.714  0.00  0.00    +0.073 C 
ATOM     17  C   UNL     1       7.025  -1.117  -0.773  0.00  0.00    +0.022 C 
ATOM     18  C   UNL     1       8.437  -1.104  -0.183  0.00  0.00    +0.002 C 
ATOM     19  C   UNL     1       9.462  -0.994  -1.313  0.00  0.00    +0.000 C 
ATOM     20  C   UNL     1       9.313  -2.192  -2.254  0.00  0.00    +0.002 C 
ATOM     21  C   UNL     1       7.902  -2.205  -2.845  0.00  0.00    +0.022 C 
ENDBRANCH  14  16
ENDBRANCH   1  12
BRANCH   1  22
ATOM     22  N   UNL     1       2.583  -4.274  -2.119  0.00  0.00    -0.274 N 
ATOM     23  C   UNL     1       1.355  -4.533  -2.611  0.00  0.00    +0.255 C 
ATOM     24  O   UNL     1       0.697  -3.637  -3.104  0.00  0.00    -0.270 OA
BRANCH  23  25
ATOM     25  C   UNL     1       0.811  -5.899  -2.551  0.00  0.00    +0.119 A 
ATOM     26  C   UNL     1       0.060  -6.312  -1.441  0.00  0.00    +0.133 A 
ATOM     27  C   UNL     1      -0.448  -7.600  -1.395  0.00  0.00    +0.046 A 
ATOM     28  C   UNL     1      -0.217  -8.477  -2.439  0.00  0.00    +0.007 A 
ATOM     29  C   UNL     1       0.522  -8.081  -3.538  0.00  0.00    +0.046 A 
ATOM     30  C   UNL     1       1.034  -6.795  -3.607  0.00  0.00    +0.133 A 
BRANCH  30  31
ATOM     31  O   UNL     1       1.754  -6.407  -4.689  0.00  0.00    -0.506 OA
ATOM     32  H   UNL     1       2.704  -6.572  -4.610  0.00  0.00    +0.292 HD
ENDBRANCH  30  31
BRANCH  26  33
ATOM     33  O   UNL     1      -0.168  -5.454  -0.416  0.00  0.00    -0.506 OA
ATOM     34  H   UNL     1      -0.973  -4.927  -0.515  0.00  0.00    +0.292 HD
ENDBRANCH  26  33
ENDBRANCH  23  25
BRANCH  22  35
ATOM     35  C   UNL     1       3.376  -5.353  -1.525  0.00  0.00    +0.183 C 
BRANCH  35  40
ATOM     36  C   UNL     1       2.758  -4.139   3.331  0.00  0.00    +0.086 C 
ATOM     37  C   UNL     1       2.783  -4.938   2.054  0.00  0.00    +0.102 A 
ATOM     38  C   UNL     1       2.437  -6.232   1.929  0.00  0.00    +0.045 A 
ATOM     39  C   UNL     1       2.610  -6.572   0.567  0.00  0.00    +0.046 A 
ATOM     40  C   UNL     1       3.051  -5.466  -0.058  0.00  0.00    +0.122 A 
ATOM     41  O   UNL     1       3.149  -4.478   0.846  0.00  0.00    -0.463 OA
ENDBRANCH  35  40
ENDBRANCH  22  35
ENDBRANCH   1  22
TORSDOF 11
