REMARK  Name = ZINC48356430
REMARK  9 active torsions:
REMARK  status: ('A' for Active; 'I' for Inactive)
REMARK    1  A    between atoms: C_1  and  C_2
REMARK    2  A    between atoms: C_2  and  C_4
REMARK    3  A    between atoms: C_2  and  N_13
REMARK    4  A    between atoms: N_16  and  C_17
REMARK    5  A    between atoms: C_20  and  N_23
REMARK    6  A    between atoms: C_24  and  C_26
REMARK    7  A    between atoms: C_26  and  C_27
REMARK    8  A    between atoms: C_27  and  C_28
REMARK    9  A    between atoms: C_27  and  C_29
REMARK                            x       y       z     vdW  Elec       q    Type
REMARK                         _______ _______ _______ _____ _____    ______ ____
ROOT
ATOM      1  N   UNL     1       2.396  -1.694   1.986  0.00  0.00    -0.290 N 
ATOM      2  C   UNL     1       1.734  -1.851   3.150  0.00  0.00    +0.304 C 
ATOM      3  O   UNL     1       2.078  -2.716   3.932  0.00  0.00    -0.252 OA
ATOM      4  N   UNL     1       0.692  -1.050   3.446  0.00  0.00    -0.269 N 
ATOM      5  H   UNL     1       2.121  -1.005   1.361  0.00  0.00    +0.151 HD
ATOM      6  H   UNL     1       0.460  -0.318   2.854  0.00  0.00    +0.156 HD
ENDROOT
BRANCH   4   7
ATOM      7  C   UNL     1      -0.056  -1.274   4.609  0.00  0.00    +0.035 A 
ATOM      8  C   UNL     1      -1.425  -1.043   4.610  0.00  0.00    +0.025 A 
ATOM      9  C   UNL     1      -2.162  -1.264   5.756  0.00  0.00    +0.025 A 
ATOM     10  C   UNL     1      -1.534  -1.717   6.909  0.00  0.00    +0.033 A 
ATOM     11  C   UNL     1      -0.165  -1.949   6.908  0.00  0.00    +0.025 A 
ATOM     12  C   UNL     1       0.571  -1.733   5.760  0.00  0.00    +0.025 A 
BRANCH  10  13
ATOM     13  N   UNL     1      -2.281  -1.941   8.072  0.00  0.00    -0.285 N 
ATOM     14  C   UNL     1      -3.542  -2.410   7.984  0.00  0.00    +0.217 C 
ATOM     15  O   UNL     1      -4.058  -2.560   6.896  0.00  0.00    -0.275 OA
ATOM     16  H   UNL     1      -1.892  -1.758   8.942  0.00  0.00    +0.155 HD
BRANCH  14  17
ATOM     17  C   UNL     1      -4.309  -2.749   9.236  0.00  0.00    +0.099 C 
BRANCH  17  18
ATOM     18  C   UNL     1      -5.702  -3.257   8.858  0.00  0.00    -0.008 C 
ATOM     19  C   UNL     1      -6.436  -3.718  10.119  0.00  0.00    +0.008 C 
ATOM     20  C   UNL     1      -6.493  -2.130   8.191  0.00  0.00    +0.008 C 
ENDBRANCH  17  18
ENDBRANCH  14  17
ENDBRANCH  10  13
ENDBRANCH   4   7
BRANCH   1  22
ATOM     21  C   UNL     1       3.013  -3.858   1.028  0.00  0.00    +0.036 C 
ATOM     22  C   UNL     1       3.529  -2.566   1.664  0.00  0.00    +0.137 C 
BRANCH  22  23
ATOM     23  C   UNL     1       4.445  -1.861   0.698  0.00  0.00    +0.126 A 
ATOM     24  C   UNL     1       5.784  -1.905   0.739  0.00  0.00    +0.055 A 
ATOM     25  C   UNL     1       6.256  -1.083  -0.381  0.00  0.00    +0.020 A 
ATOM     26  C   UNL     1       7.513  -0.733  -0.872  0.00  0.00    +0.011 A 
ATOM     27  C   UNL     1       7.610   0.077  -1.970  0.00  0.00    +0.001 A 
ATOM     28  C   UNL     1       6.467   0.552  -2.596  0.00  0.00    +0.004 A 
ATOM     29  C   UNL     1       5.215   0.217  -2.125  0.00  0.00    +0.047 A 
ATOM     30  C   UNL     1       5.094  -0.606  -1.011  0.00  0.00    +0.135 A 
ATOM     31  O   UNL     1       4.039  -1.101  -0.335  0.00  0.00    -0.458 OA
ENDBRANCH  22  23
ENDBRANCH   1  22
TORSDOF 6
