REMARK  Name = ZINC15016970
REMARK  4 active torsions:
REMARK  status: ('A' for Active; 'I' for Inactive)
REMARK    1  A    between atoms: N_6  and  C_7
REMARK    2  A    between atoms: C_7  and  C_9
REMARK    3  A    between atoms: C_7  and  C_18
REMARK    4  A    between atoms: C_27  and  O_28
REMARK                            x       y       z     vdW  Elec       q    Type
REMARK                         _______ _______ _______ _____ _____    ______ ____
ROOT
ATOM      1  C   UNL     1      -1.174   5.956   0.045  0.00  0.00    +0.136 C 
ENDROOT
BRANCH   1   2
ATOM      2  C   UNL     1      -0.949   7.263   0.760  0.00  0.00    +0.022 A 
ATOM      3  C   UNL     1       0.311   7.856   0.724  0.00  0.00    +0.030 A 
ATOM      4  C   UNL     1       0.545   9.041   1.355  0.00  0.00    +0.051 A 
ATOM      5  C   UNL     1      -0.493   9.670   2.063  0.00  0.00    +0.022 A 
ATOM      6  C   UNL     1      -0.288  10.892   2.732  0.00  0.00    +0.013 A 
ATOM      7  C   UNL     1      -1.343  11.445   3.400  0.00  0.00    +0.020 A 
ATOM      8  C   UNL     1      -2.578  10.801   3.404  0.00  0.00    +0.111 A 
ATOM      9  N   UNL     1      -2.765   9.664   2.779  0.00  0.00    -0.251 NA
ATOM     10  C   UNL     1      -1.775   9.069   2.108  0.00  0.00    +0.114 A 
ATOM     11  C   UNL     1      -1.981   7.846   1.438  0.00  0.00    +0.148 A 
ATOM     12 CL   UNL     1       2.121   9.766   1.291  0.00  0.00    -0.083 Cl
BRANCH  11  13
ATOM     13  O   UNL     1      -3.202   7.249   1.466  0.00  0.00    -0.504 OA
ATOM     14  H   UNL     1      -3.324   6.637   2.204  0.00  0.00    +0.292 HD
ENDBRANCH  11  13
ENDBRANCH   1   2
BRANCH   1  20
ATOM     15  C   UNL     1      -1.142   1.779  -0.347  0.00  0.00    +0.005 A 
ATOM     16  C   UNL     1       0.079   1.119  -0.403  0.00  0.00    +0.018 A 
ATOM     17  C   UNL     1       1.247   1.851  -0.336  0.00  0.00    +0.084 A 
ATOM     18  C   UNL     1       0.073   3.830  -0.152  0.00  0.00    +0.097 A 
ATOM     19  C   UNL     1      -1.143   3.156  -0.214  0.00  0.00    +0.041 A 
ATOM     20  N   UNL     1       0.087   5.214  -0.024  0.00  0.00    -0.320 N 
ATOM     21  H   UNL     1       0.932   5.688   0.019  0.00  0.00    +0.148 HD
ATOM     22  N   UNL     1       1.284   3.205  -0.210  0.00  0.00    -0.350 N 
ATOM     23  H   UNL     1       2.169   3.724  -0.163  0.00  0.00    +0.166 HD
ENDBRANCH   1  20
BRANCH   1  24
ATOM     24  C   UNL     1      -1.675   6.226  -1.350  0.00  0.00    -0.019 A 
ATOM     25  C   UNL     1      -0.784   6.579  -2.347  0.00  0.00    +0.009 A 
ATOM     26  C   UNL     1      -1.239   6.827  -3.628  0.00  0.00    +0.050 A 
ATOM     27  C   UNL     1      -2.590   6.723  -3.917  0.00  0.00    +0.166 A 
ATOM     28  C   UNL     1      -3.487   6.368  -2.913  0.00  0.00    +0.167 A 
ATOM     29  C   UNL     1      -3.024   6.116  -1.632  0.00  0.00    +0.055 A 
ATOM     30  O   UNL     1      -4.745   6.333  -3.444  0.00  0.00    -0.453 OA
ATOM     31  C   UNL     1      -4.660   7.067  -4.680  0.00  0.00    +0.466 C 
ATOM     32  O   UNL     1      -3.285   6.911  -5.077  0.00  0.00    -0.453 OA
ENDBRANCH   1  24
TORSDOF 4
