REMARK  Name = ZINC04005091
REMARK  8 active torsions:
REMARK  status: ('A' for Active; 'I' for Inactive)
REMARK    1  A    between atoms: C_1  and  C_2
REMARK    2  A    between atoms: C_2  and  O_3
REMARK    3  A    between atoms: O_3  and  C_4
REMARK    4  A    between atoms: C_6  and  C_11
REMARK    5  A    between atoms: C_9  and  O_10
REMARK    6  A    between atoms: C_14  and  C_25
REMARK    7  A    between atoms: C_20  and  N_24
REMARK    8  A    between atoms: C_21  and  C_22
REMARK                            x       y       z     vdW  Elec       q    Type
REMARK                         _______ _______ _______ _____ _____    ______ ____
ROOT
ATOM      1  C   UNL     1      -0.298  -4.998   0.583  0.00  0.00    +0.102 C 
ATOM      2  C   UNL     1       0.804  -5.936   1.003  0.00  0.00    +0.054 A 
ATOM      3  C   UNL     1       1.935  -5.678   1.783  0.00  0.00    +0.100 A 
ATOM      4  N   UNL     1       2.620  -6.801   1.888  0.00  0.00    -0.171 NA
ATOM      5  N   UNL     1       1.941  -7.801   1.176  0.00  0.00    -0.246 N 
ATOM      6  H   UNL     1       2.220  -8.726   1.084  0.00  0.00    +0.192 HD
ATOM      7  C   UNL     1       0.830  -7.252   0.642  0.00  0.00    +0.223 A 
ATOM      8  O   UNL     1      -0.136  -7.821  -0.121  0.00  0.00    -0.423 OA
ATOM      9  C   UNL     1      -1.280  -7.130  -0.299  0.00  0.00    +0.200 C 
ATOM     10  C   UNL     1      -1.425  -5.821   0.009  0.00  0.00    +0.098 C 
ENDROOT
BRANCH   1  13
ATOM     11  C   UNL     1       0.582  -1.798  -1.222  0.00  0.00    +0.162 A 
ATOM     12  C   UNL     1       0.108  -2.679  -0.263  0.00  0.00    +0.054 A 
ATOM     13  C   UNL     1       0.217  -4.042  -0.462  0.00  0.00    -0.031 A 
ATOM     14  C   UNL     1       0.798  -4.531  -1.617  0.00  0.00    +0.008 A 
ATOM     15  C   UNL     1       1.273  -3.659  -2.578  0.00  0.00    +0.049 A 
ATOM     16  C   UNL     1       1.161  -2.291  -2.388  0.00  0.00    +0.158 A 
BRANCH  16  17
ATOM     17  O   UNL     1       1.623  -1.431  -3.335  0.00  0.00    -0.503 OA
ATOM     18  H   UNL     1       2.548  -1.176  -3.218  0.00  0.00    +0.292 HD
ENDBRANCH  16  17
BRANCH  11  19
ATOM     19  O   UNL     1       0.475  -0.457  -1.028  0.00  0.00    -0.489 OA
BRANCH  19  21
ATOM     20  C   UNL     1      -0.162   1.506   0.230  0.00  0.00    +0.048 C 
ATOM     21  C   UNL     1      -0.131  -0.024   0.191  0.00  0.00    +0.226 C 
ENDBRANCH  19  21
ENDBRANCH  11  19
ENDBRANCH   1  13
BRANCH   3  22
ATOM     22  C   UNL     1       2.301  -4.372   2.386  0.00  0.00    +0.003 A 
ATOM     23  C   UNL     1       3.623  -3.932   2.351  0.00  0.00    +0.010 A 
ATOM     24  C   UNL     1       3.958  -2.717   2.913  0.00  0.00    +0.001 A 
ATOM     25  C   UNL     1       2.984  -1.937   3.511  0.00  0.00    +0.000 A 
ATOM     26  C   UNL     1       1.671  -2.369   3.549  0.00  0.00    +0.001 A 
ATOM     27  C   UNL     1       1.324  -3.580   2.984  0.00  0.00    +0.010 A 
ENDBRANCH   3  22
BRANCH   9  28
ATOM     28  N   UNL     1      -2.362  -7.794  -0.822  0.00  0.00    -0.328 N 
ATOM     29  H   UNL     1      -2.289  -8.733  -1.053  0.00  0.00    +0.145 HD
ATOM     30  H   UNL     1      -3.198  -7.323  -0.962  0.00  0.00    +0.145 HD
ENDBRANCH   9  28
BRANCH  10  31
ATOM     31  C   UNL     1      -2.691  -5.193  -0.219  0.00  0.00    +0.101 C 
ATOM     32  N   UNL     1      -3.696  -4.695  -0.400  0.00  0.00    -0.191 NA
ENDBRANCH  10  31
TORSDOF 7
