REMARK  Name = ZINC13411962
REMARK  7 active torsions:
REMARK  status: ('A' for Active; 'I' for Inactive)
REMARK    1  A    between atoms: C_1  and  C_2
REMARK    2  A    between atoms: C_4  and  C_16
REMARK    3  A    between atoms: C_12  and  C_13
REMARK    4  A    between atoms: C_16  and  S_17
REMARK    5  A    between atoms: S_17  and  C_18
REMARK    6  A    between atoms: C_21  and  C_30
REMARK    7  A    between atoms: N_22  and  C_23
REMARK                            x       y       z     vdW  Elec       q    Type
REMARK                         _______ _______ _______ _____ _____    ______ ____
ROOT
ATOM      1  C   UNL     1      -1.732   3.666  -2.460  0.00  0.00    +0.197 A 
ATOM      2  N   UNL     1      -0.733   4.287  -3.045  0.00  0.00    -0.122 NA
ATOM      3  N   UNL     1      -0.985   5.544  -3.133  0.00  0.00    -0.128 NA
ATOM      4  C   UNL     1      -2.161   5.805  -2.611  0.00  0.00    +0.169 A 
ATOM      5  N   UNL     1      -2.680   4.608  -2.168  0.00  0.00    -0.270 N 
ENDROOT
BRANCH   5   6
ATOM      6  C   UNL     1      -3.919   4.399  -1.546  0.00  0.00    +0.051 A 
ATOM      7  C   UNL     1      -5.096   4.624  -2.247  0.00  0.00    +0.029 A 
ATOM      8  C   UNL     1      -6.316   4.418  -1.632  0.00  0.00    +0.040 A 
ATOM      9  C   UNL     1      -6.365   3.989  -0.317  0.00  0.00    +0.124 A 
ATOM     10  C   UNL     1      -5.192   3.764   0.385  0.00  0.00    +0.040 A 
ATOM     11  C   UNL     1      -3.971   3.963  -0.229  0.00  0.00    +0.029 A 
ATOM     12  F   UNL     1      -7.559   3.789   0.283  0.00  0.00    -0.205 F 
ENDBRANCH   5   6
BRANCH   4  13
ATOM     13  C   UNL     1      -2.808   7.130  -2.520  0.00  0.00    +0.020 A 
ATOM     14  C   UNL     1      -3.899   7.321  -1.670  0.00  0.00    +0.011 A 
ATOM     15  C   UNL     1      -4.498   8.561  -1.590  0.00  0.00    +0.001 A 
ATOM     16  C   UNL     1      -4.021   9.614  -2.350  0.00  0.00    +0.000 A 
ATOM     17  C   UNL     1      -2.940   9.432  -3.195  0.00  0.00    +0.001 A 
ATOM     18  C   UNL     1      -2.328   8.198  -3.280  0.00  0.00    +0.011 A 
ENDBRANCH   4  13
BRANCH   1  19
ATOM     19  S   UNL     1      -1.835   1.939  -2.123  0.00  0.00    -0.081 S 
BRANCH  19  20
ATOM     20  C   UNL     1      -0.270   1.274  -2.754  0.00  0.00    +0.113 C 
BRANCH  20  24
ATOM     21  C   UNL     1       0.677   1.499  -0.145  0.00  0.00    +0.046 C 
ATOM     22  C   UNL     1       0.638  -0.008  -0.140  0.00  0.00    -0.020 A 
ATOM     23  C   UNL     1       0.212  -0.733  -1.264  0.00  0.00    +0.014 A 
ATOM     24  C   UNL     1      -0.228  -0.215  -2.524  0.00  0.00    -0.022 A 
ATOM     25  C   UNL     1      -0.607  -1.061  -3.509  0.00  0.00    +0.075 A 
ATOM     26  C   UNL     1      -0.574  -2.454  -3.312  0.00  0.00    +0.250 A 
ATOM     27  O   UNL     1      -0.919  -3.206  -4.209  0.00  0.00    -0.268 OA
ATOM     28  N   UNL     1      -0.162  -2.957  -2.132  0.00  0.00    -0.317 N 
ATOM     29  H   UNL     1      -0.141  -3.917  -1.999  0.00  0.00    +0.169 HD
ATOM     30  C   UNL     1       0.224  -2.130  -1.126  0.00  0.00    +0.089 A 
ATOM     31  S   UNL     1       0.777  -2.410   0.428  0.00  0.00    -0.064 S 
ATOM     32  C   UNL     1       1.020  -0.727   0.957  0.00  0.00    +0.106 A 
BRANCH  32  33
ATOM     33  C   UNL     1       1.492  -0.251   2.207  0.00  0.00    +0.393 C 
ATOM     34  O   UNL     1       1.597   0.954   2.403  0.00  0.00    -0.240 OA
ATOM     35  O   UNL     1       1.794  -1.044   3.090  0.00  0.00    -0.240 OA
ENDBRANCH  32  33
ENDBRANCH  20  24
ENDBRANCH  19  20
ENDBRANCH   1  19
TORSDOF 6
