REMARK  Name = ZINC64704373
REMARK  12 active torsions:
REMARK  status: ('A' for Active; 'I' for Inactive)
REMARK    1  A    between atoms: C_1  and  C_2
REMARK    2  A    between atoms: C_2  and  C_4
REMARK    3  A    between atoms: C_2  and  N_10
REMARK    4  A    between atoms: C_11  and  C_13
REMARK    5  A    between atoms: C_13  and  N_14
REMARK    6  A    between atoms: N_14  and  C_15
REMARK    7  A    between atoms: C_19  and  N_30
REMARK    8  A    between atoms: C_20  and  C_24
REMARK    9  A    between atoms: N_30  and  C_31
REMARK   10  A    between atoms: C_31  and  C_32
REMARK   11  A    between atoms: C_31  and  C_33
REMARK   12  A    between atoms: C_31  and  C_34
REMARK                            x       y       z     vdW  Elec       q    Type
REMARK                         _______ _______ _______ _____ _____    ______ ____
ROOT
ATOM      1  N   UNL     1       4.732  -1.055   3.271  0.00  0.00    -0.302 N 
ATOM      2  C   UNL     1       5.689   0.028   3.509  0.00  0.00    +0.132 C 
ATOM      3  C   UNL     1       5.101  -2.149   2.505  0.00  0.00    +0.184 A 
ATOM      4  N   UNL     1       6.242  -2.395   1.923  0.00  0.00    -0.140 NA
ATOM      5  N   UNL     1       6.442  -3.557   1.184  0.00  0.00    -0.190 N 
ATOM      6  C   UNL     1       7.455  -4.157   0.451  0.00  0.00    +0.150 A 
ATOM      7  C   UNL     1       6.971  -5.336  -0.032  0.00  0.00    +0.114 A 
ATOM      8  N   UNL     1       5.686  -5.462   0.393  0.00  0.00    -0.218 NA
ATOM      9  C   UNL     1       5.378  -4.420   1.105  0.00  0.00    +0.199 A 
ATOM     10  S   UNL     1       4.137  -3.587   2.068  0.00  0.00    -0.013 S 
ENDROOT
BRANCH   7  11
ATOM     11  C   UNL     1       7.712  -6.306  -0.871  0.00  0.00    +0.004 A 
ATOM     12  C   UNL     1       8.641  -5.854  -1.808  0.00  0.00    +0.010 A 
ATOM     13  C   UNL     1       9.329  -6.763  -2.586  0.00  0.00    +0.001 A 
ATOM     14  C   UNL     1       9.098  -8.119  -2.438  0.00  0.00    +0.000 A 
ATOM     15  C   UNL     1       8.177  -8.573  -1.511  0.00  0.00    +0.001 A 
ATOM     16  C   UNL     1       7.487  -7.675  -0.723  0.00  0.00    +0.010 A 
ENDBRANCH   7  11
BRANCH   6  17
ATOM     17  N   UNL     1       8.739  -3.646   0.245  0.00  0.00    -0.323 N 
ATOM     18  H   UNL     1       9.406  -4.181  -0.213  0.00  0.00    +0.148 HD
BRANCH  17  19
ATOM     19  C   UNL     1       9.078  -2.302   0.720  0.00  0.00    +0.025 C 
ATOM     20  C   UNL     1       9.002  -2.267   2.248  0.00  0.00    +0.031 C 
ATOM     21  C   UNL     1      10.496  -1.944   0.271  0.00  0.00    +0.031 C 
ATOM     22  C   UNL     1       8.088  -1.291   0.138  0.00  0.00    +0.031 C 
ENDBRANCH  17  19
ENDBRANCH   6  17
BRANCH   1  23
ATOM     23  C   UNL     1       3.385  -0.981   3.842  0.00  0.00    +0.202 C 
BRANCH  23  25
ATOM     24  N   UNL     1       1.166  -0.110   3.183  0.00  0.00    -0.307 N 
ATOM     25  C   UNL     1       2.464  -0.291   2.869  0.00  0.00    +0.231 C 
ATOM     26  O   UNL     1       2.890   0.099   1.803  0.00  0.00    -0.274 OA
ATOM     27  H   UNL     1       0.825  -0.422   4.036  0.00  0.00    +0.149 HD
BRANCH  24  29
ATOM     28  C   UNL     1       0.375   2.076   2.421  0.00  0.00    +0.033 C 
ATOM     29  C   UNL     1       0.270   0.560   2.237  0.00  0.00    +0.100 C 
BRANCH  29  30
ATOM     30  C   UNL     1      -1.149   0.121   2.491  0.00  0.00    -0.027 A 
ATOM     31  C   UNL     1      -1.603  -0.034   3.788  0.00  0.00    +0.005 A 
ATOM     32  C   UNL     1      -2.904  -0.437   4.021  0.00  0.00    +0.000 A 
ATOM     33  C   UNL     1      -3.752  -0.685   2.958  0.00  0.00    +0.000 A 
ATOM     34  C   UNL     1      -3.298  -0.529   1.661  0.00  0.00    +0.000 A 
ATOM     35  C   UNL     1      -1.998  -0.122   1.428  0.00  0.00    +0.005 A 
ENDBRANCH  29  30
ENDBRANCH  24  29
ENDBRANCH  23  25
ENDBRANCH   1  23
TORSDOF 7
