REMARK  Name = ZINC13282824
REMARK  10 active torsions:
REMARK  status: ('A' for Active; 'I' for Inactive)
REMARK    1  A    between atoms: C_1  and  C_2
REMARK    2  A    between atoms: C_2  and  C_3
REMARK    3  A    between atoms: C_3  and  C_4
REMARK    4  A    between atoms: C_7  and  C_10
REMARK    5  A    between atoms: C_13  and  O_16
REMARK    6  A    between atoms: O_16  and  C_17
REMARK    7  A    between atoms: C_17  and  C_19
REMARK    8  A    between atoms: C_20  and  C_37
REMARK    9  A    between atoms: N_26  and  C_29
REMARK   10  A    between atoms: C_29  and  C_30
REMARK                            x       y       z     vdW  Elec       q    Type
REMARK                         _______ _______ _______ _____ _____    ______ ____
ROOT
ATOM      1  C   UNL     1       1.764  -0.238  -0.056  0.00  0.00    +0.102 A 
ATOM      2  C   UNL     1       2.233   1.044  -0.090  0.00  0.00    -0.015 A 
ATOM      3  C   UNL     1       1.335   2.113  -0.068  0.00  0.00    +0.076 A 
ATOM      4  C   UNL     1      -0.034   1.766  -0.010  0.00  0.00    +0.116 A 
ATOM      5  S   UNL     1      -0.005  -0.009   0.011  0.00  0.00    -0.062 S 
ATOM      6  N   UNL     1      -0.989   2.687   0.021  0.00  0.00    -0.230 NA
ATOM      7  C   UNL     1      -0.711   3.962  -0.010  0.00  0.00    +0.203 A 
ATOM      8  N   UNL     1       0.566   4.416  -0.066  0.00  0.00    -0.294 N 
ATOM      9  C   UNL     1       1.611   3.567  -0.097  0.00  0.00    +0.263 A 
ATOM     10  O   UNL     1       2.754   3.986  -0.147  0.00  0.00    -0.267 OA
ATOM     11  C   UNL     1       3.716   1.304  -0.152  0.00  0.00    +0.046 C 
ENDROOT
BRANCH   1  12
ATOM     12  C   UNL     1       2.524  -1.490  -0.071  0.00  0.00    +0.351 C 
ATOM     13  O   UNL     1       3.739  -1.463  -0.119  0.00  0.00    -0.244 OA
BRANCH  12  14
ATOM     14  O   UNL     1       1.876  -2.672  -0.030  0.00  0.00    -0.422 OA
BRANCH  14  18
ATOM     15  C   UNL     1       4.115  -6.123  -0.389  0.00  0.00    +0.001 A 
ATOM     16  C   UNL     1       4.097  -5.424   0.817  0.00  0.00    +0.013 A 
ATOM     17  C   UNL     1       3.349  -4.272   0.934  0.00  0.00    +0.047 A 
ATOM     18  C   UNL     1       2.613  -3.808  -0.149  0.00  0.00    +0.132 A 
ATOM     19  C   UNL     1       2.623  -4.505  -1.349  0.00  0.00    +0.047 A 
ATOM     20  C   UNL     1       3.375  -5.654  -1.474  0.00  0.00    +0.013 A 
BRANCH  15  24
ATOM     21  C   UNL     1       6.406  -9.634  -0.723  0.00  0.00    -0.029 A 
ATOM     22  C   UNL     1       5.687  -9.210  -1.832  0.00  0.00    +0.007 A 
ATOM     23  C   UNL     1       4.927  -8.058  -1.725  0.00  0.00    +0.028 A 
ATOM     24  C   UNL     1       4.919  -7.362  -0.518  0.00  0.00    +0.071 A 
ATOM     25  N   UNL     1       5.621  -7.801   0.518  0.00  0.00    -0.255 NA
ATOM     26  C   UNL     1       6.348  -8.898   0.445  0.00  0.00    +0.115 A 
BRANCH  21  27
ATOM     27  C   UNL     1       7.242 -10.886  -0.793  0.00  0.00    +0.036 C 
BRANCH  27  29
ATOM     28  C   UNL     1       7.242 -13.361  -0.451  0.00  0.00    +0.004 C 
ATOM     29  C   UNL     1       6.393 -12.090  -0.380  0.00  0.00    +0.001 C 
ENDBRANCH  27  29
ENDBRANCH  21  27
ENDBRANCH  15  24
ENDBRANCH  14  18
ENDBRANCH  12  14
ENDBRANCH   1  12
BRANCH   8  30
ATOM     30  C   UNL     1       0.812   5.860  -0.094  0.00  0.00    +0.164 C 
BRANCH  30  31
ATOM     31  C   UNL     1       0.841   6.338  -1.523  0.00  0.00    +0.008 A 
ATOM     32  C   UNL     1      -0.231   7.041  -2.038  0.00  0.00    +0.008 A 
ATOM     33  C   UNL     1      -0.204   7.480  -3.349  0.00  0.00    +0.000 A 
ATOM     34  C   UNL     1       0.895   7.215  -4.146  0.00  0.00    +0.003 A 
ATOM     35  C   UNL     1       1.968   6.513  -3.632  0.00  0.00    +0.039 A 
ATOM     36  C   UNL     1       1.944   6.077  -2.318  0.00  0.00    +0.128 A 
ATOM     37  F   UNL     1       2.995   5.394  -1.813  0.00  0.00    -0.205 F 
ENDBRANCH  30  31
ENDBRANCH   8  30
TORSDOF 8
