REMARK  Name = ZINC08382513
REMARK  16 active torsions:
REMARK  status: ('A' for Active; 'I' for Inactive)
REMARK    1  A    between atoms: C_1  and  C_2
REMARK    2  A    between atoms: C_2  and  C_4
REMARK    3  A    between atoms: C_2  and  C_10
REMARK    4  A    between atoms: C_4  and  C_5
REMARK    5  A    between atoms: C_5  and  C_6
REMARK    6  A    between atoms: C_6  and  C_7
REMARK    7  A    between atoms: C_7  and  C_8
REMARK    8  A    between atoms: C_7  and  C_9
REMARK    9  A    between atoms: C_16  and  C_43
REMARK   10  A    between atoms: C_24  and  O_39
REMARK   11  A    between atoms: C_26  and  N_35
REMARK   12  A    between atoms: C_27  and  C_34
REMARK   13  A    between atoms: C_31  and  O_33
REMARK   14  A    between atoms: C_36  and  C_38
REMARK   15  A    between atoms: O_39  and  C_40
REMARK   16  A    between atoms: C_40  and  C_42
REMARK                            x       y       z     vdW  Elec       q    Type
REMARK                         _______ _______ _______ _____ _____    ______ ____
ROOT
ATOM      1  C   UNL     1       1.143  -1.251   1.136  0.00  0.00    -0.002 C 
ATOM      2  C   UNL     1       1.154  -2.776   1.389  0.00  0.00    +0.004 C 
ATOM      3  C   UNL     1       2.514  -3.106   2.033  0.00  0.00    +0.004 C 
ATOM      4  C   UNL     1       3.260  -1.754   2.189  0.00  0.00    -0.001 C 
ATOM      5  C   UNL     1       2.637  -0.882   1.082  0.00  0.00    -0.026 C 
ATOM      6  C   UNL     1       2.879   0.596   1.270  0.00  0.00    +0.007 C 
ATOM      7  C   UNL     1       2.456   1.058   2.663  0.00  0.00    +0.005 C 
ATOM      8  C   UNL     1       3.262   0.266   3.700  0.00  0.00    +0.001 C 
ATOM      9  C   UNL     1       2.906  -1.218   3.579  0.00  0.00    -0.000 C 
ATOM     10  C   UNL     1       3.659  -2.031   4.635  0.00  0.00    +0.051 C 
ATOM     11  C   UNL     1       3.283  -1.534   6.032  0.00  0.00    +0.203 C 
ATOM     12  C   UNL     1       2.290  -0.376   5.912  0.00  0.00    +0.103 C 
ATOM     13  C   UNL     1       2.915   0.786   5.098  0.00  0.00    -0.002 C 
ATOM     14  C   UNL     1       1.940   1.958   4.974  0.00  0.00    +0.009 C 
ATOM     15  C   UNL     1       1.585   2.478   6.368  0.00  0.00    +0.003 C 
ATOM     16  C   UNL     1       0.932   1.357   7.178  0.00  0.00    +0.033 C 
ATOM     17  C   UNL     1       1.928   0.128   7.311  0.00  0.00    +0.142 C 
ATOM     18  C   UNL     1       4.191   1.254   5.800  0.00  0.00    +0.014 C 
ATOM     19  C   UNL     1       3.211  -1.306  -0.272  0.00  0.00    +0.012 C 
ENDROOT
BRANCH  12  20
ATOM     20  N   UNL     1       1.079  -0.839   5.230  0.00  0.00    -0.304 N 
ATOM     21  C   UNL     1       0.397  -1.897   5.712  0.00  0.00    +0.211 C 
ATOM     22  O   UNL     1       0.786  -2.466   6.710  0.00  0.00    -0.276 OA
ATOM     23  C   UNL     1      -0.849  -2.374   5.011  0.00  0.00    +0.109 C 
ATOM     24  H   UNL     1       0.767  -0.384   4.432  0.00  0.00    +0.149 HD
ENDBRANCH  12  20
BRANCH   1  26
ATOM     25  C   UNL     1       0.512   0.579  -0.444  0.00  0.00    +0.008 C 
ATOM     26  C   UNL     1       0.460  -0.930  -0.195  0.00  0.00    -0.010 C 
BRANCH  26  27
ATOM     27  C   UNL     1      -0.999  -1.389  -0.143  0.00  0.00    +0.003 C 
BRANCH  27  28
ATOM     28  C   UNL     1      -1.647  -1.182  -1.513  0.00  0.00    +0.001 C 
BRANCH  28  29
ATOM     29  C   UNL     1      -3.106  -1.641  -1.461  0.00  0.00    +0.003 C 
BRANCH  29  30
ATOM     30  C   UNL     1      -3.754  -1.434  -2.832  0.00  0.00    -0.017 C 
ATOM     31  C   UNL     1      -5.173  -2.007  -2.816  0.00  0.00    +0.007 C 
ATOM     32  C   UNL     1      -3.811   0.061  -3.149  0.00  0.00    +0.007 C 
ENDBRANCH  29  30
ENDBRANCH  28  29
ENDBRANCH  27  28
ENDBRANCH  26  27
ENDBRANCH   1  26
BRANCH  17  33
ATOM     33  O   UNL     1       3.111   0.570   7.978  0.00  0.00    -0.390 OA
ATOM     34  H   UNL     1       2.957   0.904   8.873  0.00  0.00    +0.210 HD
ENDBRANCH  17  33
BRANCH  11  35
ATOM     35  O   UNL     1       4.458  -1.085   6.709  0.00  0.00    -0.459 OA
BRANCH  35  36
ATOM     36  C   UNL     1       5.128  -1.994   7.435  0.00  0.00    +0.304 C 
ATOM     37  O   UNL     1       4.729  -3.134   7.493  0.00  0.00    -0.251 OA
ATOM     38  C   UNL     1       6.377  -1.594   8.178  0.00  0.00    +0.136 C 
ENDBRANCH  35  36
ENDBRANCH  11  35
TORSDOF 9
