REMARK  Name = ZINC34756259
REMARK  6 active torsions:
REMARK  status: ('A' for Active; 'I' for Inactive)
REMARK    1  A    between atoms: C_4  and  C_7
REMARK    2  A    between atoms: C_7  and  S_8
REMARK    3  A    between atoms: S_8  and  C_9
REMARK    4  A    between atoms: N_25  and  C_28
REMARK    5  A    between atoms: C_28  and  C_29
REMARK    6  A    between atoms: N_31  and  C_32
REMARK                            x       y       z     vdW  Elec       q    Type
REMARK                         _______ _______ _______ _____ _____    ______ ____
ROOT
ATOM      1  C   UNL     1       7.211  -1.308   0.832  0.00  0.00    +0.191 A 
ATOM      2  N   UNL     1       7.833  -1.708   1.935  0.00  0.00    -0.206 NA
ATOM      3  C   UNL     1       7.609  -2.892   2.480  0.00  0.00    +0.134 A 
ATOM      4  C   UNL     1       6.671  -3.771   1.869  0.00  0.00    +0.051 A 
ATOM      5  C   UNL     1       6.268  -5.115   2.290  0.00  0.00    -0.025 A 
ATOM      6  C   UNL     1       5.351  -5.745   1.530  0.00  0.00    -0.004 A 
ATOM      7  S   UNL     1       4.970  -4.606   0.226  0.00  0.00    -0.073 S 
ATOM      8  C   UNL     1       6.048  -3.281   0.704  0.00  0.00    +0.115 A 
ATOM      9  N   UNL     1       6.323  -2.084   0.224  0.00  0.00    -0.215 NA
ATOM     10  C   UNL     1       4.779  -7.113   1.744  0.00  0.00    +0.043 C 
ATOM     11  C   UNL     1       5.664  -7.856   2.755  0.00  0.00    +0.005 C 
ATOM     12  C   UNL     1       5.925  -6.933   3.949  0.00  0.00    +0.005 C 
ATOM     13  C   UNL     1       6.849  -5.790   3.530  0.00  0.00    +0.037 C 
ATOM     14  N   UNL     1       8.277  -3.271   3.629  0.00  0.00    -0.318 N 
ATOM     15  C   UNL     1       9.506  -4.077   3.558  0.00  0.00    +0.088 C 
ATOM     16  C   UNL     1      10.582  -3.399   4.412  0.00  0.00    -0.059 C 
ATOM     17  N   UNL     1      10.069  -3.193   5.772  0.00  0.00    +0.387 N 
ATOM     18  C   UNL     1       8.939  -2.257   5.745  0.00  0.00    -0.059 C 
ATOM     19  C   UNL     1       7.784  -2.874   4.957  0.00  0.00    +0.088 C 
ATOM     20  H   UNL     1       9.764  -4.077   6.152  0.00  0.00    -0.081 HD
ENDROOT
BRANCH   1  21
ATOM     21  S   UNL     1       7.566   0.285   0.168  0.00  0.00    -0.081 S 
BRANCH  21  22
ATOM     22  C   UNL     1       6.502   0.396  -1.297  0.00  0.00    +0.112 C 
BRANCH  22  26
ATOM     23  C   UNL     1       7.091   4.174  -3.202  0.00  0.00    +0.000 A 
ATOM     24  C   UNL     1       7.868   3.090  -3.563  0.00  0.00    +0.000 A 
ATOM     25  C   UNL     1       7.678   1.867  -2.946  0.00  0.00    +0.004 A 
ATOM     26  C   UNL     1       6.710   1.729  -1.969  0.00  0.00    -0.037 A 
ATOM     27  C   UNL     1       5.933   2.814  -1.607  0.00  0.00    +0.004 A 
ATOM     28  C   UNL     1       6.123   4.036  -2.225  0.00  0.00    +0.000 A 
ENDBRANCH  22  26
ENDBRANCH  21  22
ENDBRANCH   1  21
BRANCH  17  29
ATOM     29  C   UNL     1      11.137  -2.644   6.618  0.00  0.00    +0.019 C 
BRANCH  29  30
ATOM     30  C   UNL     1      10.651  -2.547   8.041  0.00  0.00    +0.197 C 
ATOM     31  O   UNL     1       9.526  -2.901   8.323  0.00  0.00    -0.278 OA
ATOM     32  N   UNL     1      11.467  -2.068   9.001  0.00  0.00    -0.314 N 
ATOM     33  H   UNL     1      12.367  -1.784   8.776  0.00  0.00    +0.149 HD
BRANCH  32  34
ATOM     34  C   UNL     1      10.994  -1.974  10.385  0.00  0.00    +0.073 C 
ATOM     35  C   UNL     1      10.236  -0.659  10.577  0.00  0.00    +0.022 C 
ATOM     36  C   UNL     1       9.743  -0.561  12.022  0.00  0.00    +0.002 C 
ATOM     37  C   UNL     1      10.940  -0.603  12.973  0.00  0.00    +0.000 C 
ATOM     38  C   UNL     1      11.698  -1.918  12.781  0.00  0.00    +0.002 C 
ATOM     39  C   UNL     1      12.192  -2.016  11.336  0.00  0.00    +0.022 C 
ENDBRANCH  32  34
ENDBRANCH  29  30
ENDBRANCH  17  29
TORSDOF 6
