REMARK  Name = ZINC63676487
REMARK  5 active torsions:
REMARK  status: ('A' for Active; 'I' for Inactive)
REMARK    1  A    between atoms: C_7  and  C_10
REMARK    2  A    between atoms: C_10  and  C_11
REMARK    3  A    between atoms: C_11  and  N_12
REMARK    4  A    between atoms: N_15  and  S_16
REMARK    5  A    between atoms: S_16  and  C_19
REMARK                            x       y       z     vdW  Elec       q    Type
REMARK                         _______ _______ _______ _____ _____    ______ ____
ROOT
ATOM      1  N   UNL     1      -0.458  -4.798  -1.460  0.00  0.00    -0.355 N 
ATOM      2  C   UNL     1      -0.818  -5.392  -2.647  0.00  0.00    +0.215 C 
ATOM      3  N   UNL     1      -0.319  -4.912  -3.835  0.00  0.00    -0.369 N 
ATOM      4  N   UNL     1      -1.632  -6.410  -2.645  0.00  0.00    -0.093 NA
ATOM      5  H   UNL     1      -0.810  -5.136  -0.622  0.00  0.00    +0.163 HD
ATOM      6  H   UNL     1       0.287  -4.155  -3.836  0.00  0.00    +0.159 HD
ATOM      7  H   UNL     1      -0.573  -5.332  -4.672  0.00  0.00    +0.159 HD
ENDROOT
BRANCH   4   8
ATOM      8  S   UNL     1      -2.065  -7.126  -4.074  0.00  0.00    +0.102 S 
ATOM      9  O   UNL     1      -2.827  -6.167  -4.794  0.00  0.00    -0.146 OA
ATOM     10  O   UNL     1      -0.887  -7.717  -4.606  0.00  0.00    -0.146 OA
BRANCH   8  11
ATOM     11  C   UNL     1      -3.160  -8.449  -3.683  0.00  0.00    +0.113 A 
ATOM     12  C   UNL     1      -2.657  -9.712  -3.433  0.00  0.00    +0.032 A 
ATOM     13  C   UNL     1      -3.515 -10.751  -3.126  0.00  0.00    +0.040 A 
ATOM     14  C   UNL     1      -4.880 -10.526  -3.068  0.00  0.00    +0.124 A 
ATOM     15  C   UNL     1      -5.383  -9.261  -3.319  0.00  0.00    +0.040 A 
ATOM     16  C   UNL     1      -4.523  -8.222  -3.621  0.00  0.00    +0.032 A 
ATOM     17  F   UNL     1      -5.720 -11.540  -2.768  0.00  0.00    -0.205 F 
ENDBRANCH   8  11
ENDBRANCH   4   8
BRANCH   1  18
ATOM     18  C   UNL     1       0.457  -3.653  -1.462  0.00  0.00    +0.120 C 
BRANCH  18  19
ATOM     19  C   UNL     1       0.691  -3.186  -0.024  0.00  0.00    +0.054 C 
BRANCH  19  26
ATOM     20  C   UNL     1      -0.016   1.348   0.009  0.00  0.00    +0.001 A 
ATOM     21  C   UNL     1       1.166   2.101   0.002  0.00  0.00    +0.002 A 
ATOM     22  C   UNL     1       2.391   1.535  -0.013  0.00  0.00    +0.026 A 
ATOM     23  C   UNL     1       2.529   0.120  -0.022  0.00  0.00    +0.043 A 
ATOM     24  N   UNL     1       3.587  -0.654  -0.037  0.00  0.00    -0.380 N 
ATOM     25  C   UNL     1       3.143  -2.053  -0.041  0.00  0.00    +0.144 C 
ATOM     26  C   UNL     1       1.631  -2.008  -0.025  0.00  0.00    -0.040 C 
ATOM     27  C   UNL     1       1.295  -0.698  -0.014  0.00  0.00    -0.001 A 
ATOM     28  C   UNL     1       0.002  -0.004   0.002  0.00  0.00    +0.010 A 
ATOM     29  H   UNL     1       4.509  -0.353  -0.045  0.00  0.00    +0.160 HD
ENDBRANCH  19  26
ENDBRANCH  18  19
ENDBRANCH   1  18
TORSDOF 5
