REMARK  Name = ZINC36637681
REMARK  12 active torsions:
REMARK  status: ('A' for Active; 'I' for Inactive)
REMARK    1  A    between atoms: C_1  and  N_2
REMARK    2  A    between atoms: N_2  and  C_3
REMARK    3  A    between atoms: N_2  and  C_4
REMARK    4  A    between atoms: C_4  and  C_5
REMARK    5  A    between atoms: C_5  and  N_6
REMARK    6  A    between atoms: C_10  and  O_18
REMARK    7  A    between atoms: C_13  and  O_16
REMARK    8  A    between atoms: O_16  and  C_17
REMARK    9  A    between atoms: O_18  and  C_19
REMARK   10  A    between atoms: C_20  and  C_22
REMARK   11  A    between atoms: C_25  and  S_28
REMARK   12  A    between atoms: S_28  and  N_31
REMARK                            x       y       z     vdW  Elec       q    Type
REMARK                         _______ _______ _______ _____ _____    ______ ____
ROOT
ATOM      1  N   UNL     1       3.044  -0.570  -2.222  0.00  0.00    -0.248 N 
ATOM      2  C   UNL     1       3.224   0.195  -3.364  0.00  0.00    +0.169 A 
ATOM      3  N   UNL     1       2.979   1.471  -3.547  0.00  0.00    -0.221 NA
ATOM      4  C   UNL     1       3.206   2.091  -4.726  0.00  0.00    +0.125 A 
ATOM      5  C   UNL     1       2.985   3.454  -5.054  0.00  0.00    +0.147 A 
ATOM      6  C   UNL     1       3.272   3.929  -6.311  0.00  0.00    +0.051 A 
ATOM      7  C   UNL     1       3.783   3.099  -7.300  0.00  0.00    +0.050 A 
ATOM      8  C   UNL     1       4.011   1.763  -7.013  0.00  0.00    +0.136 A 
ATOM      9  C   UNL     1       3.727   1.279  -5.755  0.00  0.00    +0.086 A 
ATOM     10  S   UNL     1       3.858  -0.304  -4.958  0.00  0.00    -0.048 S 
ATOM     11  C   UNL     1       3.365  -1.879  -2.230  0.00  0.00    +0.252 C 
ATOM     12  O   UNL     1       3.879  -2.372  -3.215  0.00  0.00    -0.270 OA
ENDROOT
BRANCH  11  13
ATOM     13  C   UNL     1       3.092  -2.713  -1.041  0.00  0.00    +0.037 A 
ATOM     14  C   UNL     1       1.959  -2.475  -0.262  0.00  0.00    +0.015 A 
ATOM     15  C   UNL     1       1.710  -3.259   0.846  0.00  0.00    +0.029 A 
ATOM     16  C   UNL     1       2.582  -4.278   1.185  0.00  0.00    +0.106 A 
ATOM     17  C   UNL     1       3.707  -4.519   0.418  0.00  0.00    +0.029 A 
ATOM     18  C   UNL     1       3.965  -3.747  -0.696  0.00  0.00    +0.015 A 
BRANCH  16  19
ATOM     19  S   UNL     1       2.256  -5.274   2.602  0.00  0.00    +0.061 S 
ATOM     20  O   UNL     1       3.506  -5.807   3.019  0.00  0.00    -0.153 OA
ATOM     21  O   UNL     1       1.434  -4.499   3.463  0.00  0.00    -0.153 OA
BRANCH  19  22
ATOM     22  N   UNL     1       1.339  -6.557   2.099  0.00  0.00    -0.177 NA
ATOM     23  C   UNL     1      -0.130  -6.591   2.046  0.00  0.00    +0.109 C 
ATOM     24  C   UNL     1      -0.538  -7.991   1.541  0.00  0.00    +0.018 C 
ATOM     25  C   UNL     1       0.705  -8.857   1.877  0.00  0.00    +0.018 C 
ATOM     26  C   UNL     1       1.859  -7.852   1.624  0.00  0.00    +0.109 C 
ENDBRANCH  19  22
ENDBRANCH  16  19
ENDBRANCH  11  13
BRANCH   8  27
ATOM     27  O   UNL     1       4.512   0.933  -7.968  0.00  0.00    -0.494 OA
ATOM     28  C   UNL     1       4.781   1.507  -9.249  0.00  0.00    +0.277 C 
ENDBRANCH   8  27
BRANCH   5  29
ATOM     29  O   UNL     1       2.485   4.300  -4.114  0.00  0.00    -0.493 OA
ATOM     30  C   UNL     1       2.285   5.660  -4.505  0.00  0.00    +0.277 C 
ENDBRANCH   5  29
BRANCH   1  31
ATOM     31  C   UNL     1       2.504   0.045  -1.007  0.00  0.00    +0.097 C 
BRANCH  31  32
ATOM     32  C   UNL     1       1.005   0.294  -1.184  0.00  0.00    -0.060 C 
BRANCH  32  34
ATOM     33  C   UNL     1       1.010   2.082   0.415  0.00  0.00    -0.097 C 
ATOM     34  N   UNL     1       0.434   0.772   0.082  0.00  0.00    +0.377 N 
ATOM     35  C   UNL     1      -1.023   0.897  -0.053  0.00  0.00    -0.097 C 
ATOM     36  H   UNL     1       0.649   0.114   0.817  0.00  0.00    -0.083 HD
ENDBRANCH  32  34
ENDBRANCH  31  32
ENDBRANCH   1  31
TORSDOF 8
