REMARK  Name = ZINC09359702
REMARK  4 active torsions:
REMARK  status: ('A' for Active; 'I' for Inactive)
REMARK    1  A    between atoms: C_5  and  C_7
REMARK    2  A    between atoms: C_7  and  C_9
REMARK    3  A    between atoms: C_11  and  C_29
REMARK    4  A    between atoms: C_32  and  N_35
REMARK                            x       y       z     vdW  Elec       q    Type
REMARK                         _______ _______ _______ _____ _____    ______ ____
ROOT
ATOM      1  C   UNL     1       3.421   2.593   1.341  0.00  0.00    +0.070 C 
ATOM      2  C   UNL     1       1.903   2.911   1.278  0.00  0.00    +0.016 C 
ATOM      3  C   UNL     1       1.466   2.184  -0.000  0.00  0.00    -0.047 C 
ATOM      4  C   UNL     1      -0.023   1.833   0.012  0.00  0.00    +0.052 C 
ATOM      5  S   UNL     1       0.002  -0.004   0.002  0.00  0.00    -0.181 S 
ATOM      6  C   UNL     1       1.807  -0.279  -0.203  0.00  0.00    -0.005 C 
ATOM      7  C   UNL     1       3.509   1.197   0.706  0.00  0.00    +0.052 C 
ATOM      8  C   UNL     1       3.489   0.155   1.794  0.00  0.00    -0.024 A 
ATOM      9  C   UNL     1       2.555  -0.207   2.739  0.00  0.00    +0.043 A 
ATOM     10  C   UNL     1       2.833  -1.227   3.635  0.00  0.00    +0.124 A 
ATOM     11  C   UNL     1       4.053  -1.881   3.575  0.00  0.00    +0.040 A 
ATOM     12  C   UNL     1       4.989  -1.522   2.627  0.00  0.00    +0.026 A 
ATOM     13  C   UNL     1       4.714  -0.497   1.725  0.00  0.00    +0.036 A 
ATOM     14  N   UNL     1       5.488   0.037   0.693  0.00  0.00    -0.286 N 
ATOM     15  C   UNL     1       4.815   0.974  -0.008  0.00  0.00    +0.212 C 
ATOM     16  O   UNL     1       5.198   1.484  -1.040  0.00  0.00    -0.277 OA
ATOM     17  F   UNL     1       1.917  -1.583   4.562  0.00  0.00    -0.205 F 
ATOM     18  H   UNL     1       6.396  -0.237   0.494  0.00  0.00    +0.155 HD
ATOM     19  N   UNL     1       2.431   1.091  -0.266  0.00  0.00    +0.401 N 
ATOM     20  H   UNL     1       2.817   1.220  -1.209  0.00  0.00    -0.078 HD
ENDROOT
BRANCH   2  21
ATOM     21  C   UNL     1       1.674   4.395   1.156  0.00  0.00    -0.045 A 
ATOM     22  C   UNL     1       2.192   5.088   0.078  0.00  0.00    +0.006 A 
ATOM     23  C   UNL     1       1.978   6.449  -0.036  0.00  0.00    +0.033 A 
ATOM     24  C   UNL     1       1.254   7.119   0.933  0.00  0.00    +0.126 A 
ATOM     25  C   UNL     1       0.741   6.427   2.014  0.00  0.00    +0.033 A 
ATOM     26  C   UNL     1       0.951   5.065   2.126  0.00  0.00    +0.006 A 
BRANCH  24  27
ATOM     27  N   UNL     1       1.029   8.577   0.813  0.00  0.00    +0.056 N 
ATOM     28  O   UNL     1       0.391   9.167   1.666  0.00  0.00    -0.126 OA
ATOM     29  O   UNL     1       1.481   9.186  -0.140  0.00  0.00    -0.126 OA
ENDBRANCH  24  27
ENDBRANCH   2  21
BRANCH   1  30
ATOM     30  C   UNL     1       4.200   3.617   0.567  0.00  0.00    +0.184 C 
ATOM     31  O   UNL     1       4.337   3.495  -0.631  0.00  0.00    -0.290 OA
BRANCH  30  36
ATOM     32  C   UNL     1       6.076   6.798   1.210  0.00  0.00    +0.004 A 
ATOM     33  C   UNL     1       5.891   6.892   2.580  0.00  0.00    +0.020 A 
ATOM     34  C   UNL     1       5.161   5.913   3.237  0.00  0.00    +0.111 A 
ATOM     35  N   UNL     1       4.640   4.902   2.578  0.00  0.00    -0.252 NA
ATOM     36  C   UNL     1       4.798   4.771   1.265  0.00  0.00    +0.106 A 
ATOM     37  C   UNL     1       5.521   5.720   0.540  0.00  0.00    +0.031 A 
ENDBRANCH  30  36
ENDBRANCH   1  30
TORSDOF 4
