REMARK  Name = ZINC28288640
REMARK  5 active torsions:
REMARK  status: ('A' for Active; 'I' for Inactive)
REMARK    1  A    between atoms: C_6  and  C_7
REMARK    2  A    between atoms: C_7  and  C_9
REMARK    3  A    between atoms: C_7  and  N_25
REMARK    4  A    between atoms: C_9  and  N_10
REMARK    5  A    between atoms: C_11  and  C_13
REMARK                            x       y       z     vdW  Elec       q    Type
REMARK                         _______ _______ _______ _____ _____    ______ ____
ROOT
ATOM      1  C   UNL     1      -1.171   1.701   3.225  0.00  0.00    +0.094 C 
ENDROOT
BRANCH   1   2
ATOM      2  N   UNL     1      -1.054   3.145   3.008  0.00  0.00    -0.310 N 
ATOM      3  C   UNL     1      -1.960   3.984   3.550  0.00  0.00    +0.279 C 
ATOM      4  O   UNL     1      -2.873   3.542   4.218  0.00  0.00    -0.267 OA
ATOM      5  H   UNL     1      -0.228   3.546   2.403  0.00  0.00    +0.149 HD
BRANCH   3   6
ATOM      6  C   UNL     1      -1.842   5.445   3.330  0.00  0.00    +0.193 A 
ATOM      7  C   UNL     1      -2.770   6.263   3.881  0.00  0.00    +0.103 A 
ATOM      8  C   UNL     1      -2.651   7.713   3.669  0.00  0.00    +0.193 A 
ATOM      9  O   UNL     1      -3.454   8.496   4.146  0.00  0.00    -0.287 OA
ATOM     10  C   UNL     1      -1.517   8.175   2.847  0.00  0.00    +0.064 A 
ATOM     11  C   UNL     1      -1.317   9.529   2.581  0.00  0.00    +0.016 A 
ATOM     12  C   UNL     1      -0.255   9.919   1.814  0.00  0.00    +0.016 A 
ATOM     13  C   UNL     1       0.625   8.975   1.300  0.00  0.00    +0.021 A 
ATOM     14  C   UNL     1       0.443   7.631   1.553  0.00  0.00    +0.062 A 
ATOM     15  C   UNL     1      -0.631   7.213   2.331  0.00  0.00    +0.141 A 
ATOM     16  O   UNL     1      -0.825   5.904   2.588  0.00  0.00    -0.450 OA
ATOM     17 BR   UNL     1       2.087   9.538   0.242  0.00  0.00    -0.050 Br
ENDBRANCH   3   6
ENDBRANCH   1   2
BRANCH   1  18
ATOM     18  C   UNL     1      -0.090   0.976   2.421  0.00  0.00    -0.020 C 
BRANCH  18  24
ATOM     19  C   UNL     1      -1.479  -1.084   2.118  0.00  0.00    +0.003 A 
ATOM     20  C   UNL     1      -1.663  -2.450   2.220  0.00  0.00    +0.020 A 
ATOM     21  C   UNL     1      -0.663  -3.245   2.752  0.00  0.00    +0.041 A 
ATOM     22  C   UNL     1       0.522  -2.672   3.177  0.00  0.00    +0.020 A 
ATOM     23  C   UNL     1       0.707  -1.306   3.069  0.00  0.00    +0.003 A 
ATOM     24  C   UNL     1      -0.292  -0.513   2.537  0.00  0.00    -0.059 A 
ATOM     25 CL   UNL     1      -0.896  -4.960   2.888  0.00  0.00    -0.084 Cl
ENDBRANCH  18  24
BRANCH  18  26
ATOM     26  N   UNL     1      -0.180   1.373   1.010  0.00  0.00    +0.385 N 
ATOM     27  C   UNL     1      -1.563   1.709   0.644  0.00  0.00    -0.078 C 
ATOM     28  C   UNL     1      -1.596   2.255  -0.784  0.00  0.00    -0.019 C 
ATOM     29  C   UNL     1      -1.036   1.200  -1.743  0.00  0.00    -0.004 C 
ATOM     30  C   UNL     1       0.386   0.833  -1.311  0.00  0.00    -0.019 C 
ATOM     31  C   UNL     1       0.362   0.327   0.133  0.00  0.00    -0.078 C 
ATOM     32  H   UNL     1       0.431   2.277   0.872  0.00  0.00    -0.081 HD
ENDBRANCH  18  26
ENDBRANCH   1  18
TORSDOF 5
