REMARK  Name = ZINC16958980
REMARK  11 active torsions:
REMARK  status: ('A' for Active; 'I' for Inactive)
REMARK    1  A    between atoms: N_12  and  N_13
REMARK    2  A    between atoms: C_14  and  C_15
REMARK    3  A    between atoms: C_15  and  C_30
REMARK    4  A    between atoms: N_16  and  N_17
REMARK    5  A    between atoms: C_30  and  C_32
REMARK    6  A    between atoms: C_30  and  O_40
REMARK    7  A    between atoms: C_32  and  C_34
REMARK    8  A    between atoms: C_32  and  O_39
REMARK    9  A    between atoms: C_34  and  C_36
REMARK   10  A    between atoms: C_34  and  O_38
REMARK   11  A    between atoms: C_36  and  O_37
REMARK                            x       y       z     vdW  Elec       q    Type
REMARK                         _______ _______ _______ _____ _____    ______ ____
ROOT
ATOM      1  C   UNL     1       8.434  -1.509  -0.091  0.00  0.00    +0.110 C 
ATOM      2  N   UNL     1       8.352  -0.212  -0.176  0.00  0.00    -0.180 NA
ENDROOT
BRANCH   2   3
ATOM      3  N   UNL     1       7.098   0.413  -0.161  0.00  0.00    -0.206 N 
ATOM      4  C   UNL     1       7.005   1.763  -0.360  0.00  0.00    +0.216 A 
ATOM      5  N   UNL     1       5.774   2.339  -0.335  0.00  0.00    -0.326 N 
ATOM      6  H   UNL     1       4.988   1.792  -0.178  0.00  0.00    +0.169 HD
ATOM      7  C   UNL     1       5.636   3.702  -0.530  0.00  0.00    +0.054 A 
ATOM      8  C   UNL     1       4.396   4.323  -0.510  0.00  0.00    +0.026 A 
ATOM      9  C   UNL     1       4.310   5.685  -0.709  0.00  0.00    +0.002 A 
ATOM     10  C   UNL     1       5.452   6.441  -0.931  0.00  0.00    +0.001 A 
ATOM     11  C   UNL     1       6.693   5.841  -0.955  0.00  0.00    +0.015 A 
ATOM     12  C   UNL     1       6.794   4.467  -0.754  0.00  0.00    +0.065 A 
ATOM     13  C   UNL     1       8.095   3.771  -0.768  0.00  0.00    +0.282 A 
ATOM     14  O   UNL     1       9.130   4.387  -0.957  0.00  0.00    -0.265 OA
ATOM     15  N   UNL     1       8.112   2.446  -0.562  0.00  0.00    -0.175 NA
ATOM     16  H   UNL     1       6.296  -0.112  -0.011  0.00  0.00    +0.177 HD
ENDBRANCH   2   3
BRANCH   1  18
ATOM     17  N   UNL     1       7.303  -3.620  -0.110  0.00  0.00    -0.186 NA
ATOM     18  C   UNL     1       7.218  -2.321  -0.105  0.00  0.00    +0.158 C 
BRANCH  17  30
ATOM     19  C   UNL     1       7.840 -10.415  -0.134  0.00  0.00    +0.001 A 
ATOM     20  C   UNL     1       8.965  -9.601  -0.121  0.00  0.00    +0.002 A 
ATOM     21  C   UNL     1       8.848  -8.239  -0.115  0.00  0.00    +0.028 A 
ATOM     22  C   UNL     1       7.578  -7.654  -0.123  0.00  0.00    +0.080 A 
ATOM     23  C   UNL     1       6.435  -8.487  -0.137  0.00  0.00    +0.065 A 
ATOM     24  C   UNL     1       6.585  -9.873  -0.142  0.00  0.00    +0.015 A 
ATOM     25  C   UNL     1       5.112  -7.848  -0.146  0.00  0.00    +0.260 A 
ATOM     26  O   UNL     1       4.091  -8.511  -0.158  0.00  0.00    -0.267 OA
ATOM     27  N   UNL     1       5.071  -6.496  -0.141  0.00  0.00    -0.293 N 
ATOM     28  C   UNL     1       6.227  -5.768  -0.128  0.00  0.00    +0.216 A 
ATOM     29  N   UNL     1       7.416  -6.316  -0.119  0.00  0.00    -0.215 NA
ATOM     30  N   UNL     1       6.138  -4.398  -0.123  0.00  0.00    -0.206 N 
ATOM     31  H   UNL     1       5.268  -3.968  -0.129  0.00  0.00    +0.177 HD
ATOM     32  H   UNL     1       4.215  -6.040  -0.146  0.00  0.00    +0.172 HD
ENDBRANCH  17  30
ENDBRANCH   1  18
BRANCH   1  33
ATOM     33  C   UNL     1       9.782  -2.173   0.021  0.00  0.00    +0.197 C 
BRANCH  33  34
ATOM     34  O   UNL     1       9.759  -3.419  -0.679  0.00  0.00    -0.383 OA
ATOM     35  H   UNL     1       9.558  -3.337  -1.622  0.00  0.00    +0.210 HD
ENDBRANCH  33  34
BRANCH  33  36
ATOM     36  C   UNL     1      10.107  -2.422   1.495  0.00  0.00    +0.180 C 
BRANCH  36  37
ATOM     37  O   UNL     1      10.130  -1.177   2.194  0.00  0.00    -0.386 OA
ATOM     38  H   UNL     1      10.786  -0.550   1.860  0.00  0.00    +0.210 HD
ENDBRANCH  36  37
BRANCH  36  39
ATOM     39  C   UNL     1      11.476  -3.097   1.608  0.00  0.00    +0.171 C 
BRANCH  39  40
ATOM     40  O   UNL     1      11.453  -4.343   0.908  0.00  0.00    -0.387 OA
ATOM     41  H   UNL     1      10.797  -4.970   1.243  0.00  0.00    +0.210 HD
ENDBRANCH  39  40
BRANCH  39  42
ATOM     42  C   UNL     1      11.801  -3.346   3.082  0.00  0.00    +0.189 C 
BRANCH  42  43
ATOM     43  O   UNL     1      13.126  -3.868   3.196  0.00  0.00    -0.392 OA
ATOM     44  H   UNL     1      13.400  -4.050   4.106  0.00  0.00    +0.210 HD
ENDBRANCH  42  43
ENDBRANCH  39  42
ENDBRANCH  36  39
ENDBRANCH  33  36
ENDBRANCH   1  33
TORSDOF 11
