REMARK  Name = ZINC07706670
REMARK  6 active torsions:
REMARK  status: ('A' for Active; 'I' for Inactive)
REMARK    1  A    between atoms: C_1  and  C_2
REMARK    2  A    between atoms: C_2  and  C_4
REMARK    3  A    between atoms: C_2  and  N_14
REMARK    4  A    between atoms: C_15  and  C_17
REMARK    5  A    between atoms: C_17  and  N_18
REMARK    6  A    between atoms: C_24  and  N_29
REMARK                            x       y       z     vdW  Elec       q    Type
REMARK                         _______ _______ _______ _____ _____    ______ ____
ROOT
ATOM      1  N   UNL     1      -6.717   2.425  -1.587  0.00  0.00    -0.311 N 
ATOM      2  C   UNL     1      -5.390   2.435  -1.354  0.00  0.00    +0.231 C 
ATOM      3  O   UNL     1      -4.611   2.446  -2.284  0.00  0.00    -0.274 OA
ATOM      4  H   UNL     1      -7.340   2.416  -0.843  0.00  0.00    +0.149 HD
ENDROOT
BRANCH   1   6
ATOM      5  C   UNL     1      -7.265   0.995  -3.494  0.00  0.00    +0.028 C 
ATOM      6  C   UNL     1      -7.220   2.429  -2.963  0.00  0.00    +0.076 C 
BRANCH   6   7
ATOM      7  C   UNL     1      -8.627   3.028  -2.991  0.00  0.00    -0.010 C 
ATOM      8  C   UNL     1      -8.582   4.462  -2.460  0.00  0.00    +0.012 C 
ATOM      9  C   UNL     1      -9.990   5.061  -2.488  0.00  0.00    -0.010 C 
ATOM     10  C   UNL     1     -10.514   5.065  -3.925  0.00  0.00    +0.007 C 
ATOM     11  C   UNL     1     -10.560   3.631  -4.455  0.00  0.00    -0.010 C 
ATOM     12  C   UNL     1      -9.152   3.032  -4.428  0.00  0.00    +0.012 C 
ATOM     13  C   UNL     1     -11.488   2.791  -3.576  0.00  0.00    +0.007 C 
ATOM     14  C   UNL     1     -10.964   2.787  -2.139  0.00  0.00    -0.010 C 
ATOM     15  C   UNL     1     -10.918   4.221  -1.608  0.00  0.00    +0.007 C 
ATOM     16  C   UNL     1      -9.556   2.188  -2.111  0.00  0.00    +0.012 C 
ENDBRANCH   6   7
ENDBRANCH   1   6
BRANCH   2  17
ATOM     17  C   UNL     1      -4.873   2.431   0.062  0.00  0.00    +0.212 C 
BRANCH  17  18
ATOM     18  N   UNL     1      -3.409   2.442   0.047  0.00  0.00    -0.225 N 
ATOM     19  C   UNL     1      -2.639   1.339   0.034  0.00  0.00    +0.254 C 
ATOM     20  O   UNL     1      -3.041   0.194   0.032  0.00  0.00    -0.270 OA
ATOM     21  C   UNL     1      -1.220   1.755   0.017  0.00  0.00    +0.050 A 
ATOM     22  C   UNL     1      -0.013   1.076   0.008  0.00  0.00    +0.016 A 
ATOM     23  C   UNL     1       1.177   1.788   0.000  0.00  0.00    +0.033 A 
ATOM     24  C   UNL     1       1.165   3.170   0.007  0.00  0.00    +0.127 A 
ATOM     25  C   UNL     1      -0.035   3.863   0.023  0.00  0.00    +0.046 A 
ATOM     26  C   UNL     1      -1.231   3.165   0.030  0.00  0.00    +0.052 A 
ATOM     27  C   UNL     1      -2.656   3.558   0.046  0.00  0.00    +0.254 C 
ATOM     28  O   UNL     1      -3.077   4.697   0.056  0.00  0.00    -0.270 OA
BRANCH  24  29
ATOM     29  N   UNL     1       2.444   3.916  -0.001  0.00  0.00    +0.056 N 
ATOM     30  O   UNL     1       3.502   3.311  -0.014  0.00  0.00    -0.126 OA
ATOM     31  O   UNL     1       2.439   5.133   0.005  0.00  0.00    -0.126 OA
ENDBRANCH  24  29
ENDBRANCH  17  18
ENDBRANCH   2  17
TORSDOF 5
