REMARK  Name = ZINC32624690
REMARK  15 active torsions:
REMARK  status: ('A' for Active; 'I' for Inactive)
REMARK    1  A    between atoms: C_1  and  C_2
REMARK    2  A    between atoms: C_2  and  N_3
REMARK    3  A    between atoms: N_3  and  C_4
REMARK    4  A    between atoms: N_3  and  C_6
REMARK    5  A    between atoms: C_4  and  C_5
REMARK    6  A    between atoms: C_6  and  C_8
REMARK    7  A    between atoms: C_6  and  C_30
REMARK    8  A    between atoms: C_8  and  N_9
REMARK    9  A    between atoms: C_10  and  C_12
REMARK   10  A    between atoms: C_12  and  S_13
REMARK   11  A    between atoms: S_13  and  C_14
REMARK   12  A    between atoms: N_24  and  C_25
REMARK   13  A    between atoms: C_25  and  C_26
REMARK   14  A    between atoms: C_26  and  C_27
REMARK   15  A    between atoms: C_26  and  C_28
REMARK                            x       y       z     vdW  Elec       q    Type
REMARK                         _______ _______ _______ _____ _____    ______ ____
ROOT
ATOM      1  C   UNL     1       1.122   4.908   3.240  0.00  0.00    +0.173 C 
ENDROOT
BRANCH   1   3
ATOM      2  N   UNL     1       2.181   7.125   2.956  0.00  0.00    -0.316 N 
ATOM      3  C   UNL     1       1.853   5.936   2.414  0.00  0.00    +0.223 C 
ATOM      4  O   UNL     1       2.145   5.692   1.263  0.00  0.00    -0.275 OA
ATOM      5  H   UNL     1       1.916   7.346   4.001  0.00  0.00    +0.149 HD
BRANCH   2   6
ATOM      6  C   UNL     1       2.891   8.124   2.154  0.00  0.00    +0.096 C 
BRANCH   6   7
ATOM      7  C   UNL     1       3.027   9.420   2.956  0.00  0.00    +0.016 C 
BRANCH   7   8
ATOM      8  C   UNL     1       1.661  10.011   3.191  0.00  0.00    +0.093 A 
ATOM      9  C   UNL     1       1.113  11.025   2.498  0.00  0.00    +0.043 A 
ATOM     10  C   UNL     1      -0.170  11.251   3.048  0.00  0.00    +0.041 A 
ATOM     11  C   UNL     1      -0.325  10.367   4.050  0.00  0.00    +0.195 A 
ATOM     12  O   UNL     1       0.787   9.619   4.132  0.00  0.00    -0.469 OA
ENDBRANCH   7   8
BRANCH   7  13
ATOM     13  N   UNL     1       3.664   9.131   4.248  0.00  0.00    +0.387 N 
ATOM     14  H   UNL     1       2.993   8.470   4.816  0.00  0.00    -0.081 HD
BRANCH  13  16
ATOM     15  C   UNL     1       5.886   9.294   3.230  0.00  0.00    -0.017 C 
ATOM     16  C   UNL     1       4.939   8.425   4.060  0.00  0.00    -0.081 C 
ENDBRANCH  13  16
BRANCH  13  17
ATOM     17  C   UNL     1       3.854  10.361   5.028  0.00  0.00    -0.081 C 
ATOM     18  C   UNL     1       4.168  10.000   6.481  0.00  0.00    -0.017 C 
ENDBRANCH  13  17
ENDBRANCH   7  13
ENDBRANCH   6   7
ENDBRANCH   2   6
ENDBRANCH   1   3
BRANCH   1  19
ATOM     19  S   UNL     1       0.827   3.429   2.238  0.00  0.00    -0.078 S 
BRANCH  19  20
ATOM     20  C   UNL     1      -0.015   2.425   3.416  0.00  0.00    +0.173 A 
ATOM     21  N   UNL     1      -0.224   2.911   4.615  0.00  0.00    -0.223 NA
ATOM     22  C   UNL     1      -0.860   2.192   5.569  0.00  0.00    +0.079 A 
ATOM     23  C   UNL     1      -1.079   2.707   6.850  0.00  0.00    +0.030 A 
ATOM     24  C   UNL     1      -1.724   1.950   7.786  0.00  0.00    +0.022 A 
ATOM     25  C   UNL     1      -2.170   0.668   7.486  0.00  0.00    +0.042 A 
ATOM     26  C   UNL     1      -1.969   0.132   6.232  0.00  0.00    +0.035 A 
ATOM     27  C   UNL     1      -1.312   0.888   5.261  0.00  0.00    +0.066 A 
ATOM     28  C   UNL     1      -1.069   0.371   3.908  0.00  0.00    +0.262 A 
ATOM     29  O   UNL     1      -1.435  -0.744   3.584  0.00  0.00    -0.267 OA
ATOM     30  N   UNL     1      -0.423   1.179   3.035  0.00  0.00    -0.287 N 
ATOM     31 CL   UNL     1      -2.986  -0.266   8.700  0.00  0.00    -0.084 Cl
BRANCH  30  32
ATOM     32  C   UNL     1      -0.155   0.711   1.673  0.00  0.00    +0.130 C 
BRANCH  32  33
ATOM     33  C   UNL     1      -1.327   1.088   0.764  0.00  0.00    +0.003 C 
ATOM     34  C   UNL     1      -1.496   2.609   0.757  0.00  0.00    +0.009 C 
ATOM     35  C   UNL     1      -1.047   0.600  -0.658  0.00  0.00    +0.009 C 
ENDBRANCH  32  33
ENDBRANCH  30  32
ENDBRANCH  19  20
ENDBRANCH   1  19
TORSDOF 11
