REMARK  Name = ZINC33265465
REMARK  9 active torsions:
REMARK  status: ('A' for Active; 'I' for Inactive)
REMARK    1  A    between atoms: C_1  and  C_2
REMARK    2  A    between atoms: C_2  and  O_3
REMARK    3  A    between atoms: O_3  and  C_4
REMARK    4  A    between atoms: C_7  and  C_10
REMARK    5  A    between atoms: N_30  and  C_31
REMARK    6  A    between atoms: C_31  and  C_32
REMARK    7  A    between atoms: C_32  and  C_33
REMARK    8  A    between atoms: C_33  and  O_35
REMARK    9  A    between atoms: O_35  and  C_36
REMARK                            x       y       z     vdW  Elec       q    Type
REMARK                         _______ _______ _______ _____ _____    ______ ____
ROOT
ATOM      1  C   UNL     1       1.296   2.156   0.001  0.00  0.00    +0.155 C 
ATOM      2  C   UNL     1       2.013   1.105  -0.794  0.00  0.00    +0.049 A 
ATOM      3  C   UNL     1       2.619   1.204  -1.986  0.00  0.00    +0.025 A 
ATOM      4  C   UNL     1       3.212  -0.046  -2.263  0.00  0.00    +0.020 A 
ATOM      5  C   UNL     1       2.930  -0.870  -1.228  0.00  0.00    +0.092 A 
ATOM      6  N   UNL     1       2.175  -0.183  -0.340  0.00  0.00    -0.312 N 
ATOM      7  C   UNL     1       1.572  -0.571   0.850  0.00  0.00    +0.090 A 
ATOM      8  C   UNL     1       0.292  -0.265   1.191  0.00  0.00    +0.005 A 
ATOM      9  C   UNL     1      -0.150  -0.697   2.459  0.00  0.00    -0.030 A 
ATOM     10  C   UNL     1       0.725  -1.397   3.227  0.00  0.00    -0.005 A 
ATOM     11  S   UNL     1       2.193  -1.479   2.232  0.00  0.00    -0.075 S 
ATOM     12  C   UNL     1       0.494  -1.961   4.591  0.00  0.00    +0.043 C 
ATOM     13  C   UNL     1      -0.772  -1.312   5.172  0.00  0.00    +0.005 C 
ATOM     14  C   UNL     1      -1.878  -1.362   4.114  0.00  0.00    +0.005 C 
ATOM     15  C   UNL     1      -1.556  -0.398   2.972  0.00  0.00    +0.036 C 
ATOM     16  C   UNL     1      -0.588   0.502   0.229  0.00  0.00    +0.148 C 
ATOM     17  N   UNL     1      -0.163   1.903   0.062  0.00  0.00    -0.269 N 
ATOM     18  C   UNL     1      -1.059   2.905  -0.036  0.00  0.00    +0.303 C 
ATOM     19  O   UNL     1      -0.676   4.051  -0.173  0.00  0.00    -0.253 OA
ATOM     20  N   UNL     1      -2.378   2.638   0.018  0.00  0.00    -0.299 N 
ATOM     21  H   UNL     1      -2.725   1.601   0.142  0.00  0.00    +0.150 HD
ENDROOT
BRANCH   1  25
ATOM     22  C   UNL     1       2.867   2.206   3.975  0.00  0.00    +0.121 A 
ATOM     23  C   UNL     1       3.709   1.970   2.898  0.00  0.00    +0.046 A 
ATOM     24  C   UNL     1       3.199   1.954   1.615  0.00  0.00    +0.009 A 
ATOM     25  C   UNL     1       1.850   2.174   1.403  0.00  0.00    -0.021 A 
ATOM     26  C   UNL     1       1.010   2.415   2.474  0.00  0.00    +0.009 A 
ATOM     27  C   UNL     1       1.514   2.426   3.760  0.00  0.00    +0.046 A 
BRANCH  22  28
ATOM     28  O   UNL     1       3.366   2.222   5.239  0.00  0.00    -0.492 OA
BRANCH  28  30
ATOM     29  C   UNL     1       3.182   2.450   7.638  0.00  0.00    +0.048 C 
ATOM     30  C   UNL     1       2.441   2.471   6.299  0.00  0.00    +0.225 C 
ENDBRANCH  28  30
ENDBRANCH  22  28
ENDBRANCH   1  25
BRANCH  20  31
ATOM     31  C   UNL     1      -3.352   3.728  -0.089  0.00  0.00    +0.117 C 
BRANCH  31  32
ATOM     32  C   UNL     1      -4.769   3.157   0.001  0.00  0.00    +0.139 C 
BRANCH  32  33
ATOM     33  C   UNL     1      -5.770   4.278  -0.109  0.00  0.00    +0.308 C 
ATOM     34  O   UNL     1      -5.389   5.417  -0.245  0.00  0.00    -0.251 OA
BRANCH  33  35
ATOM     35  O   UNL     1      -7.084   4.012  -0.055  0.00  0.00    -0.468 OA
ATOM     36  C   UNL     1      -7.990   5.140  -0.168  0.00  0.00    +0.280 C 
ENDBRANCH  33  35
ENDBRANCH  32  33
ENDBRANCH  31  32
ENDBRANCH  20  31
TORSDOF 7
