REMARK  Name = ZINC39979302
REMARK  5 active torsions:
REMARK  status: ('A' for Active; 'I' for Inactive)
REMARK    1  A    between atoms: C_1  and  C_2
REMARK    2  A    between atoms: C_5  and  S_8
REMARK    3  A    between atoms: S_8  and  N_11
REMARK    4  A    between atoms: C_13  and  N_23
REMARK    5  A    between atoms: N_23  and  C_24
REMARK                            x       y       z     vdW  Elec       q    Type
REMARK                         _______ _______ _______ _____ _____    ______ ____
ROOT
ATOM      1  N   UNL     1       1.679  -4.669   0.332  0.00  0.00    -0.110 NA
ATOM      2  C   UNL     1       1.891  -5.929   0.090  0.00  0.00    +0.192 C 
ATOM      3  C   UNL     1       3.300  -6.450  -0.082  0.00  0.00    +0.237 C 
ATOM      4  N   UNL     1       3.473  -7.886  -0.353  0.00  0.00    -0.359 N 
ATOM      5  C   UNL     1       2.410  -8.636  -0.432  0.00  0.00    +0.063 A 
ATOM      6  C   UNL     1       2.529 -10.077  -0.702  0.00  0.00    +0.027 A 
ATOM      7  C   UNL     1       1.405 -10.823  -0.776  0.00  0.00    +0.002 A 
ATOM      8  C   UNL     1       0.131 -10.257  -0.603  0.00  0.00    +0.002 A 
ATOM      9  C   UNL     1      -0.058  -8.943  -0.352  0.00  0.00    +0.030 A 
ATOM     10  C   UNL     1       1.052  -8.066  -0.254  0.00  0.00    +0.089 A 
ATOM     11  N   UNL     1       0.863  -6.787  -0.005  0.00  0.00    -0.226 NA
ATOM     12  H   UNL     1       4.358  -8.265  -0.471  0.00  0.00    +0.162 HD
ENDROOT
BRANCH   1  13
ATOM     13  S   UNL     1       0.131  -4.112   0.525  0.00  0.00    +0.100 S 
ATOM     14  O   UNL     1      -0.369  -4.708   1.715  0.00  0.00    -0.146 OA
ATOM     15  O   UNL     1      -0.514  -4.263  -0.732  0.00  0.00    -0.146 OA
BRANCH  13  20
ATOM     16  C   UNL     1       0.483   1.817   1.584  0.00  0.00    +0.044 C 
ATOM     17  C   UNL     1       0.396   0.336   1.319  0.00  0.00    -0.050 A 
ATOM     18  C   UNL     1       0.286  -0.129   0.022  0.00  0.00    +0.005 A 
ATOM     19  C   UNL     1       0.206  -1.488  -0.220  0.00  0.00    +0.029 A 
ATOM     20  C   UNL     1       0.235  -2.381   0.834  0.00  0.00    +0.113 A 
ATOM     21  C   UNL     1       0.345  -1.916   2.131  0.00  0.00    +0.029 A 
ATOM     22  C   UNL     1       0.430  -0.557   2.373  0.00  0.00    +0.005 A 
ENDBRANCH  13  20
ENDBRANCH   1  13
BRANCH   3  23
ATOM     23  N   UNL     1       4.046  -6.133   1.138  0.00  0.00    -0.318 N 
ATOM     24  H   UNL     1       3.638  -6.275   2.007  0.00  0.00    +0.148 HD
BRANCH  23  25
ATOM     25  C   UNL     1       5.347  -5.627   1.051  0.00  0.00    +0.029 A 
ATOM     26  C   UNL     1       5.988  -5.564  -0.179  0.00  0.00    +0.026 A 
ATOM     27  C   UNL     1       7.272  -5.064  -0.263  0.00  0.00    +0.040 A 
ATOM     28  C   UNL     1       7.921  -4.624   0.878  0.00  0.00    +0.124 A 
ATOM     29  C   UNL     1       7.284  -4.686   2.106  0.00  0.00    +0.040 A 
ATOM     30  C   UNL     1       5.998  -5.181   2.194  0.00  0.00    +0.026 A 
ATOM     31  F   UNL     1       9.178  -4.135   0.794  0.00  0.00    -0.205 F 
ENDBRANCH  23  25
ENDBRANCH   3  23
TORSDOF 4
