REMARK  Name = ZINC02507160
REMARK  5 active torsions:
REMARK  status: ('A' for Active; 'I' for Inactive)
REMARK    1  A    between atoms: C_1  and  C_2
REMARK    2  A    between atoms: C_5  and  S_8
REMARK    3  A    between atoms: S_8  and  O_11
REMARK    4  A    between atoms: O_11  and  N_12
REMARK    5  A    between atoms: N_12  and  C_13
REMARK                            x       y       z     vdW  Elec       q    Type
REMARK                         _______ _______ _______ _____ _____    ______ ____
ROOT
ATOM      1  C   UNL     1       2.561   4.524   3.444  0.00  0.00    +0.071 A 
ATOM      2  C   UNL     1       1.493   5.029   4.158  0.00  0.00    +0.030 A 
ATOM      3  C   UNL     1       1.606   5.400   5.492  0.00  0.00    +0.027 A 
ATOM      4  C   UNL     1       2.819   5.287   6.167  0.00  0.00    +0.058 A 
ATOM      5  C   UNL     1       3.899   4.783   5.446  0.00  0.00    +0.033 A 
ATOM      6  C   UNL     1       3.806   4.395   4.093  0.00  0.00    +0.011 A 
ATOM      7  C   UNL     1       4.954   3.899   3.456  0.00  0.00    +0.011 A 
ATOM      8  C   UNL     1       6.125   3.802   4.150  0.00  0.00    +0.003 A 
ATOM      9  C   UNL     1       6.209   4.189   5.493  0.00  0.00    +0.029 A 
ATOM     10  C   UNL     1       5.120   4.668   6.122  0.00  0.00    +0.118 A 
ATOM     11  S   UNL     1       4.715   5.268   7.738  0.00  0.00    +0.073 S 
ATOM     12  O   UNL     1       5.406   6.494   7.931  0.00  0.00    -0.150 OA
ATOM     13  O   UNL     1       4.794   4.173   8.640  0.00  0.00    -0.150 OA
ATOM     14  N   UNL     1       3.093   5.625   7.508  0.00  0.00    -0.216 N 
ATOM     15  H   UNL     1       2.473   5.987   8.161  0.00  0.00    +0.174 HD
ENDROOT
BRANCH   1  16
ATOM     16  N   UNL     1       2.412   4.154   2.104  0.00  0.00    -0.239 N 
ATOM     17  H   UNL     1       3.170   3.804   1.611  0.00  0.00    +0.196 HD
BRANCH  16  18
ATOM     18  O   UNL     1       1.155   4.290   1.468  0.00  0.00    -0.113 OA
BRANCH  18  19
ATOM     19  S   UNL     1       1.147   3.847   0.011  0.00  0.00    +0.132 S 
ATOM     20  O   UNL     1       2.382   4.273  -0.549  0.00  0.00    -0.140 OA
ATOM     21  O   UNL     1      -0.109   4.239  -0.526  0.00  0.00    -0.140 OA
BRANCH  19  26
ATOM     22  C   UNL     1       1.229  -2.186  -0.022  0.00  0.00    +0.044 C 
ATOM     23  C   UNL     1       1.208  -0.679  -0.014  0.00  0.00    -0.050 A 
ATOM     24  C   UNL     1       0.002  -0.004   0.002  0.00  0.00    +0.005 A 
ATOM     25  C   UNL     1      -0.017   1.378   0.010  0.00  0.00    +0.030 A 
ATOM     26  C   UNL     1       1.171   2.086   0.002  0.00  0.00    +0.119 A 
ATOM     27  C   UNL     1       2.377   1.411  -0.014  0.00  0.00    +0.030 A 
ATOM     28  C   UNL     1       2.396   0.029  -0.021  0.00  0.00    +0.005 A 
ENDBRANCH  19  26
ENDBRANCH  18  19
ENDBRANCH  16  18
ENDBRANCH   1  16
TORSDOF 4
