REMARK  Name = ZINC09314172
REMARK  15 active torsions:
REMARK  status: ('A' for Active; 'I' for Inactive)
REMARK    1  A    between atoms: C_1  and  C_2
REMARK    2  A    between atoms: C_2  and  O_3
REMARK    3  A    between atoms: O_3  and  C_4
REMARK    4  A    between atoms: C_4  and  C_6
REMARK    5  A    between atoms: C_7  and  C_30
REMARK    6  A    between atoms: C_8  and  C_27
REMARK    7  A    between atoms: C_10  and  N_11
REMARK    8  A    between atoms: C_12  and  C_14
REMARK    9  A    between atoms: C_14  and  N_56
REMARK   10  A    between atoms: C_15  and  C_17
REMARK   11  A    between atoms: C_15  and  C_24
REMARK   12  A    between atoms: C_15  and  N_56
REMARK   13  A    between atoms: C_24  and  C_25
REMARK   14  A    between atoms: C_24  and  C_26
REMARK   15  A    between atoms: C_27  and  C_29
REMARK                            x       y       z     vdW  Elec       q    Type
REMARK                         _______ _______ _______ _____ _____    ______ ____
ROOT
ATOM      1  N   UNL     1      -0.531   5.033   5.249  0.00  0.00    -0.281 N 
ATOM      2  C   UNL     1      -0.774   3.748   4.921  0.00  0.00    +0.201 C 
ATOM      3  O   UNL     1      -1.568   3.097   5.566  0.00  0.00    -0.278 OA
ATOM      4  H   UNL     1       0.104   5.553   4.733  0.00  0.00    +0.155 HD
ENDROOT
BRANCH   1   9
ATOM      5  C   UNL     1      -1.071   6.913   6.812  0.00  0.00    +0.091 A 
ATOM      6  C   UNL     1      -1.838   7.260   7.909  0.00  0.00    -0.017 A 
ATOM      7  C   UNL     1      -2.666   6.287   8.440  0.00  0.00    +0.060 A 
ATOM      8  S   UNL     1      -2.357   4.890   7.377  0.00  0.00    -0.070 S 
ATOM      9  C   UNL     1      -1.186   5.607   6.319  0.00  0.00    +0.087 A 
ATOM     10  C   UNL     1      -1.775   8.644   8.503  0.00  0.00    +0.046 C 
BRANCH   7  11
ATOM     11  C   UNL     1      -3.541   6.379   9.543  0.00  0.00    +0.167 C 
ATOM     12  O   UNL     1      -3.633   7.421  10.159  0.00  0.00    -0.292 OA
ATOM     13  C   UNL     1      -4.360   5.184   9.956  0.00  0.00    +0.092 C 
ENDBRANCH   7  11
BRANCH   5  14
ATOM     14  C   UNL     1      -0.164   7.881   6.184  0.00  0.00    +0.342 C 
ATOM     15  O   UNL     1      -0.564   8.593   5.283  0.00  0.00    -0.245 OA
BRANCH  14  16
ATOM     16  O   UNL     1       1.113   7.982   6.606  0.00  0.00    -0.461 OA
BRANCH  16  18
ATOM     17  C   UNL     1       3.355   8.930   6.551  0.00  0.00    +0.048 C 
ATOM     18  C   UNL     1       1.952   8.961   5.940  0.00  0.00    +0.229 C 
ENDBRANCH  16  18
ENDBRANCH  14  16
ENDBRANCH   5  14
ENDBRANCH   1   9
BRANCH   2  19
ATOM     19  C   UNL     1      -0.059   3.121   3.752  0.00  0.00    +0.016 C 
BRANCH  19  20
ATOM     20  N   UNL     1      -0.501   1.721   3.610  0.00  0.00    +0.389 N 
ATOM     21  H   UNL     1      -1.521   1.697   3.500  0.00  0.00    -0.084 HD
ATOM     22  H   UNL     1      -0.235   1.195   4.450  0.00  0.00    -0.084 HD
BRANCH  20  23
ATOM     23  C   UNL     1       0.130   1.102   2.428  0.00  0.00    -0.038 C 
BRANCH  23  24
ATOM     24  C   UNL     1       1.486   0.564   2.806  0.00  0.00    -0.061 A 
ATOM     25  C   UNL     1       1.668  -0.054   4.029  0.00  0.00    +0.005 A 
ATOM     26  C   UNL     1       2.909  -0.553   4.374  0.00  0.00    +0.038 A 
ATOM     27  C   UNL     1       3.975  -0.423   3.500  0.00  0.00    +0.123 A 
ATOM     28  C   UNL     1       3.793   0.202   2.278  0.00  0.00    +0.038 A 
ATOM     29  C   UNL     1       2.549   0.695   1.932  0.00  0.00    +0.005 A 
ATOM     30  F   UNL     1       5.191  -0.904   3.839  0.00  0.00    -0.205 F 
ENDBRANCH  23  24
BRANCH  23  31
ATOM     31  C   UNL     1      -0.752  -0.044   1.930  0.00  0.00    -0.027 C 
ATOM     32  C   UNL     1      -0.047  -0.768   0.782  0.00  0.00    +0.006 C 
ATOM     33  C   UNL     1      -2.087   0.518   1.435  0.00  0.00    +0.006 C 
ENDBRANCH  23  31
ENDBRANCH  20  23
ENDBRANCH  19  20
ENDBRANCH   2  19
TORSDOF 10
