REMARK  Name = ZINC62358278
REMARK  16 active torsions:
REMARK  status: ('A' for Active; 'I' for Inactive)
REMARK    1  A    between atoms: C_1  and  C_2
REMARK    2  A    between atoms: C_2  and  C_3
REMARK    3  A    between atoms: C_2  and  C_4
REMARK    4  A    between atoms: C_4  and  C_6
REMARK    5  A    between atoms: C_4  and  N_22
REMARK    6  A    between atoms: N_8  and  C_9
REMARK    7  A    between atoms: C_9  and  C_10
REMARK    8  A    between atoms: C_10  and  C_12
REMARK    9  A    between atoms: C_10  and  N_19
REMARK   10  A    between atoms: N_19  and  C_20
REMARK   11  A    between atoms: N_19  and  C_21
REMARK   12  A    between atoms: C_23  and  O_25
REMARK   13  A    between atoms: O_25  and  C_26
REMARK   14  A    between atoms: C_26  and  C_27
REMARK   15  A    between atoms: C_26  and  C_28
REMARK   16  A    between atoms: C_26  and  C_29
REMARK                            x       y       z     vdW  Elec       q    Type
REMARK                         _______ _______ _______ _____ _____    ______ ____
ROOT
ATOM      1  C   UNL     1      -1.217  -1.907   0.401  0.00  0.00    +0.234 C 
ATOM      2  O   UNL     1      -1.514  -2.520  -0.604  0.00  0.00    -0.274 OA
ATOM      3  N   UNL     1      -0.798  -2.572   1.496  0.00  0.00    -0.315 N 
ATOM      4  H   UNL     1      -0.488  -2.080   2.272  0.00  0.00    +0.149 HD
ENDROOT
BRANCH   1   5
ATOM      5  C   UNL     1      -1.318  -0.404   0.424  0.00  0.00    +0.165 C 
BRANCH   5   6
ATOM      6  N   UNL     1      -2.189   0.044  -0.665  0.00  0.00    -0.270 N 
ATOM      7  C   UNL     1      -2.832   1.225  -0.572  0.00  0.00    +0.401 C 
ATOM      8  O   UNL     1      -2.690   1.917   0.417  0.00  0.00    -0.226 OA
ATOM      9  H   UNL     1      -2.303  -0.509  -1.454  0.00  0.00    +0.153 HD
BRANCH   7  10
ATOM     10  O   UNL     1      -3.633   1.637  -1.573  0.00  0.00    -0.445 OA
BRANCH  10  11
ATOM     11  C   UNL     1      -4.284   2.898  -1.406  0.00  0.00    +0.107 C 
ATOM     12  C   UNL     1      -3.232   3.997  -1.242  0.00  0.00    +0.055 C 
ATOM     13  C   UNL     1      -5.144   3.195  -2.636  0.00  0.00    +0.055 C 
ATOM     14  C   UNL     1      -5.172   2.853  -0.161  0.00  0.00    +0.055 C 
ENDBRANCH  10  11
ENDBRANCH   7  10
ENDBRANCH   5   6
BRANCH   5  16
ATOM     15  C   UNL     1       0.603  -0.134  -1.151  0.00  0.00    +0.009 C 
ATOM     16  C   UNL     1       0.075   0.203   0.245  0.00  0.00    +0.012 C 
ATOM     17  C   UNL     1      -0.005   1.722   0.407  0.00  0.00    +0.009 C 
ENDBRANCH   5  16
ENDBRANCH   1   5
BRANCH   3  18
ATOM     18  C   UNL     1      -0.810  -4.037   1.513  0.00  0.00    +0.093 C 
BRANCH  18  19
ATOM     19  C   UNL     1      -0.387  -4.534   2.897  0.00  0.00    -0.021 C 
BRANCH  19  20
ATOM     20  C   UNL     1       1.040  -4.127   3.162  0.00  0.00    -0.059 A 
ATOM     21  C   UNL     1       2.079  -4.856   2.614  0.00  0.00    +0.003 A 
ATOM     22  C   UNL     1       3.388  -4.484   2.857  0.00  0.00    +0.020 A 
ATOM     23  C   UNL     1       3.658  -3.381   3.648  0.00  0.00    +0.041 A 
ATOM     24  C   UNL     1       2.617  -2.652   4.196  0.00  0.00    +0.020 A 
ATOM     25  C   UNL     1       1.309  -3.022   3.948  0.00  0.00    +0.003 A 
ATOM     26 CL   UNL     1       5.301  -2.913   3.954  0.00  0.00    -0.084 Cl
ENDBRANCH  19  20
BRANCH  19  27
ATOM     27  N   UNL     1      -0.496  -5.998   2.946  0.00  0.00    +0.382 N 
ATOM     28  C   UNL     1      -0.073  -6.477   4.269  0.00  0.00    -0.096 C 
ATOM     29  C   UNL     1      -1.890  -6.394   2.704  0.00  0.00    -0.096 C 
ATOM     30  H   UNL     1       0.097  -6.403   2.236  0.00  0.00    -0.082 HD
ENDBRANCH  19  27
ENDBRANCH  18  19
ENDBRANCH   3  18
TORSDOF 9
