REMARK  Name = ZINC39022387
REMARK  9 active torsions:
REMARK  status: ('A' for Active; 'I' for Inactive)
REMARK    1  A    between atoms: C_1  and  O_2
REMARK    2  A    between atoms: O_2  and  C_3
REMARK    3  A    between atoms: C_7  and  C_12
REMARK    4  A    between atoms: C_12  and  C_13
REMARK    5  A    between atoms: C_13  and  N_14
REMARK    6  A    between atoms: C_15  and  C_17
REMARK    7  A    between atoms: C_17  and  S_18
REMARK    8  A    between atoms: S_18  and  C_19
REMARK    9  A    between atoms: N_24  and  C_25
REMARK                            x       y       z     vdW  Elec       q    Type
REMARK                         _______ _______ _______ _____ _____    ______ ____
ROOT
ATOM      1  N   UNL     1       2.931  -1.898   7.758  0.00  0.00    -0.314 N 
ATOM      2  C   UNL     1       2.246  -1.665   8.895  0.00  0.00    +0.223 C 
ATOM      3  O   UNL     1       1.035  -1.734   8.897  0.00  0.00    -0.275 OA
ATOM      4  H   UNL     1       3.900  -1.842   7.756  0.00  0.00    +0.149 HD
ENDROOT
BRANCH   1   5
ATOM      5  C   UNL     1       2.214  -2.234   6.525  0.00  0.00    +0.109 C 
BRANCH   5   6
ATOM      6  C   UNL     1       3.220  -2.447   5.392  0.00  0.00    +0.056 C 
BRANCH   6  11
ATOM      7  C   UNL     1       0.626  -0.619   1.042  0.00  0.00    +0.122 A 
ATOM      8  C   UNL     1       1.202   0.148   2.052  0.00  0.00    +0.046 A 
ATOM      9  C   UNL     1       1.833  -0.454   3.104  0.00  0.00    +0.014 A 
ATOM     10  C   UNL     1       1.900  -1.847   3.168  0.00  0.00    +0.003 A 
ATOM     11  C   UNL     1       2.482  -2.793   4.125  0.00  0.00    -0.021 A 
ATOM     12  C   UNL     1       2.234  -4.026   3.656  0.00  0.00    +0.087 A 
ATOM     13  N   UNL     1       1.541  -3.947   2.478  0.00  0.00    -0.360 N 
ATOM     14  C   UNL     1       1.321  -2.628   2.152  0.00  0.00    +0.050 A 
ATOM     15  C   UNL     1       0.678  -1.999   1.091  0.00  0.00    +0.071 A 
ATOM     16  H   UNL     1       1.248  -4.707   1.951  0.00  0.00    +0.165 HD
BRANCH   7  18
ATOM     17  C   UNL     1      -0.017   1.425   0.010  0.00  0.00    +0.277 C 
ATOM     18  O   UNL     1       0.002  -0.004   0.002  0.00  0.00    -0.495 OA
ENDBRANCH   7  18
ENDBRANCH   6  11
ENDBRANCH   5   6
ENDBRANCH   1   5
BRANCH   2  19
ATOM     19  C   UNL     1       2.983  -1.319  10.162  0.00  0.00    +0.167 C 
BRANCH  19  20
ATOM     20  S   UNL     1       1.791  -1.066  11.506  0.00  0.00    -0.114 S 
BRANCH  20  21
ATOM     21  C   UNL     1       2.825  -0.663  12.940  0.00  0.00    +0.203 C 
ATOM     22  N   UNL     1       3.665   0.525  12.649  0.00  0.00    -0.320 NA
ATOM     23  N   UNL     1       4.949   0.176  13.281  0.00  0.00    +0.411 N 
ATOM     24  N   UNL     1       5.043  -1.272  13.051  0.00  0.00    -0.265 NA
ATOM     25  N   UNL     1       3.767  -1.763  13.213  0.00  0.00    -0.253 N 
ATOM     26  H   UNL     1       3.775   0.655  11.654  0.00  0.00    +0.106 HD
ATOM     27  H   UNL     1       5.712   0.659  12.830  0.00  0.00    -0.031 HD
ATOM     28  H   UNL     1       5.392  -1.470  12.126  0.00  0.00    +0.125 HD
ATOM     29  H   UNL     1       4.929   0.380  14.269  0.00  0.00    -0.031 HD
BRANCH  25  30
ATOM     30  C   UNL     1       3.424  -3.069  13.572  0.00  0.00    +0.064 A 
ATOM     31  C   UNL     1       2.568  -3.810  12.767  0.00  0.00    +0.026 A 
ATOM     32  C   UNL     1       2.232  -5.101  13.124  0.00  0.00    +0.002 A 
ATOM     33  C   UNL     1       2.747  -5.657  14.281  0.00  0.00    +0.002 A 
ATOM     34  C   UNL     1       3.599  -4.923  15.085  0.00  0.00    +0.022 A 
ATOM     35  C   UNL     1       3.945  -3.632  14.731  0.00  0.00    +0.063 A 
ATOM     36 CL   UNL     1       5.020  -2.714  15.737  0.00  0.00    -0.082 Cl
ENDBRANCH  25  30
ENDBRANCH  20  21
ENDBRANCH  19  20
ENDBRANCH   2  19
TORSDOF 8
