REMARK  Name = ZINC66976350
REMARK  8 active torsions:
REMARK  status: ('A' for Active; 'I' for Inactive)
REMARK    1  A    between atoms: C_1  and  C_2
REMARK    2  A    between atoms: N_8  and  C_9
REMARK    3  A    between atoms: C_9  and  C_10
REMARK    4  A    between atoms: C_10  and  C_11
REMARK    5  A    between atoms: C_11  and  N_12
REMARK    6  A    between atoms: N_15  and  C_16
REMARK    7  A    between atoms: C_16  and  C_17
REMARK    8  A    between atoms: C_17  and  O_27
REMARK                            x       y       z     vdW  Elec       q    Type
REMARK                         _______ _______ _______ _____ _____    ______ ____
ROOT
ATOM      1  N   UNL     1       4.995  -0.449   3.643  0.00  0.00    -0.299 N 
ATOM      2  C   UNL     1       6.180   0.112   3.955  0.00  0.00    +0.300 C 
ATOM      3  O   UNL     1       6.694   0.911   3.196  0.00  0.00    -0.253 OA
ATOM      4  N   UNL     1       6.797  -0.214   5.109  0.00  0.00    -0.296 N 
ATOM      5  H   UNL     1       4.586  -1.086   4.248  0.00  0.00    +0.150 HD
ATOM      6  H   UNL     1       6.387  -0.851   5.714  0.00  0.00    +0.150 HD
ENDROOT
BRANCH   1   7
ATOM      7  C   UNL     1       4.325  -0.095   2.389  0.00  0.00    +0.104 C 
BRANCH   7   8
ATOM      8  C   UNL     1       3.008  -0.866   2.279  0.00  0.00    +0.000 C 
BRANCH   8   9
ATOM      9  C   UNL     1       2.308  -0.497   0.970  0.00  0.00    -0.077 C 
BRANCH   9  16
ATOM     10  C   UNL     1       0.098   0.719  -0.263  0.00  0.00    -0.013 C 
ATOM     11  C   UNL     1       0.317  -0.793  -0.331  0.00  0.00    -0.072 C 
ATOM     12  C   UNL     1      -1.037  -1.502  -0.401  0.00  0.00    -0.016 C 
ATOM     13  C   UNL     1      -0.812  -3.015  -0.470  0.00  0.00    -0.003 C 
ATOM     14  C   UNL     1       0.011  -3.455   0.745  0.00  0.00    -0.019 C 
ATOM     15  C   UNL     1       1.326  -2.674   0.772  0.00  0.00    -0.078 C 
ATOM     16  N   UNL     1       1.044  -1.236   0.865  0.00  0.00    +0.381 N 
ATOM     17  H   UNL     1       0.482  -1.057   1.684  0.00  0.00    -0.081 HD
ENDBRANCH   9  16
ENDBRANCH   8   9
ENDBRANCH   7   8
ENDBRANCH   1   7
BRANCH   4  18
ATOM     18  C   UNL     1       8.085   0.396   5.448  0.00  0.00    +0.145 C 
BRANCH  18  19
ATOM     19  C   UNL     1       8.499  -0.038   6.855  0.00  0.00    +0.107 C 
ATOM     20  C   UNL     1       7.402   0.349   7.845  0.00  0.00    +0.041 C 
ATOM     21  C   UNL     1       7.926   0.107   9.266  0.00  0.00    +0.008 C 
ATOM     22  C   UNL     1       9.006   1.144   9.564  0.00  0.00    +0.035 C 
ATOM     23  C   UNL     1      10.034   1.169   8.463  0.00  0.00    -0.041 A 
ATOM     24  C   UNL     1       9.800   0.630   7.218  0.00  0.00    -0.011 A 
ATOM     25  C   UNL     1      10.789   0.692   6.245  0.00  0.00    +0.007 A 
ATOM     26  C   UNL     1      12.004   1.286   6.516  0.00  0.00    +0.000 A 
ATOM     27  C   UNL     1      12.240   1.824   7.768  0.00  0.00    +0.000 A 
ATOM     28  C   UNL     1      11.259   1.765   8.735  0.00  0.00    +0.004 A 
BRANCH  19  29
ATOM     29  O   UNL     1       8.675  -1.456   6.879  0.00  0.00    -0.382 OA
ATOM     30  H   UNL     1       9.352  -1.779   6.268  0.00  0.00    +0.211 HD
ENDBRANCH  19  29
ENDBRANCH  18  19
ENDBRANCH   4  18
TORSDOF 7
