REMARK  Name = ZINC39951318
REMARK  9 active torsions:
REMARK  status: ('A' for Active; 'I' for Inactive)
REMARK    1  A    between atoms: C_1  and  C_2
REMARK    2  A    between atoms: C_2  and  C_3
REMARK    3  A    between atoms: C_3  and  C_4
REMARK    4  A    between atoms: C_9  and  C_29
REMARK    5  A    between atoms: C_10  and  O_12
REMARK    6  A    between atoms: C_16  and  C_18
REMARK    7  A    between atoms: C_19  and  C_28
REMARK    8  A    between atoms: C_29  and  C_30
REMARK    9  A    between atoms: C_30  and  C_31
REMARK                            x       y       z     vdW  Elec       q    Type
REMARK                         _______ _______ _______ _____ _____    ______ ____
ROOT
ATOM      1  C   UNL     1       1.314  -2.321   1.121  0.00  0.00    -0.016 C 
ATOM      2  C   UNL     1       2.051  -2.602  -0.153  0.00  0.00    +0.023 C 
ATOM      3  C   UNL     1       1.607  -3.842  -0.854  0.00  0.00    +0.083 C 
ATOM      4  N   UNL     1       1.222  -4.934   0.007  0.00  0.00    -0.309 NA
ATOM      5  C   UNL     1       1.970  -5.142   1.218  0.00  0.00    +0.090 C 
ATOM      6  C   UNL     1       1.501  -4.398   2.452  0.00  0.00    -0.005 C 
ATOM      7  C   UNL     1       1.912  -2.945   2.357  0.00  0.00    +0.125 C 
ATOM      8  C   UNL     1      -0.027  -4.439   2.561  0.00  0.00    -0.065 C 
ATOM      9  N   UNL     1      -0.570  -3.961   1.284  0.00  0.00    +0.395 N 
ATOM     10  C   UNL     1      -0.176  -2.587   0.992  0.00  0.00    -0.067 C 
ATOM     11  C   UNL     1      -0.234  -4.907   0.226  0.00  0.00    +0.050 C 
ATOM     12  H   UNL     1      -1.575  -3.970   1.370  0.00  0.00    -0.079 HD
ENDROOT
BRANCH  11  13
ATOM     13  C   UNL     1      -0.706  -6.283   0.619  0.00  0.00    +0.029 A 
ATOM     14  C   UNL     1      -0.189  -7.375   0.017  0.00  0.00    +0.033 A 
ATOM     15  C   UNL     1      -0.647  -8.657   0.404  0.00  0.00    +0.257 A 
ATOM     16  O   UNL     1      -0.196  -9.657  -0.125  0.00  0.00    -0.267 OA
ATOM     17  N   UNL     1      -1.589  -8.761   1.363  0.00  0.00    -0.275 N 
ATOM     18  H   UNL     1      -1.908  -9.636   1.634  0.00  0.00    +0.173 HD
ATOM     19  C   UNL     1      -2.088  -7.656   1.947  0.00  0.00    +0.327 A 
ATOM     20  O   UNL     1      -2.937  -7.765   2.811  0.00  0.00    -0.247 OA
ATOM     21  N   UNL     1      -1.656  -6.432   1.592  0.00  0.00    -0.312 N 
ATOM     22  H   UNL     1      -2.025  -5.647   2.027  0.00  0.00    +0.170 HD
ATOM     23  C   UNL     1       0.863  -7.231  -1.053  0.00  0.00    +0.051 C 
ENDBRANCH  11  13
BRANCH   7  24
ATOM     24  O   UNL     1       1.439  -2.258   3.517  0.00  0.00    -0.391 OA
ATOM     25  H   UNL     1       1.664  -1.318   3.536  0.00  0.00    +0.210 HD
ENDBRANCH   7  24
BRANCH   1  26
ATOM     26  C   UNL     1       1.435  -0.810   1.333  0.00  0.00    +0.007 C 
BRANCH  26  28
ATOM     27  C   UNL     1       3.038   1.088   1.591  0.00  0.00    +0.004 C 
ATOM     28  C   UNL     1       2.909  -0.433   1.492  0.00  0.00    -0.003 C 
ENDBRANCH  26  28
ENDBRANCH   1  26
BRANCH   6  29
ATOM     29  C   UNL     1       2.123  -5.032   3.698  0.00  0.00    +0.008 C 
BRANCH  29  30
ATOM     30  C   UNL     1       1.748  -6.515   3.756  0.00  0.00    -0.003 C 
ATOM     31  C   UNL     1       2.288  -7.126   5.051  0.00  0.00    +0.004 C 
ENDBRANCH  29  30
ENDBRANCH   6  29
TORSDOF 6
