REMARK  Name = ZINC39237507
REMARK  8 active torsions:
REMARK  status: ('A' for Active; 'I' for Inactive)
REMARK    1  A    between atoms: C_1  and  C_2
REMARK    2  A    between atoms: C_3  and  C_23
REMARK    3  A    between atoms: C_5  and  C_7
REMARK    4  A    between atoms: C_15  and  C_16
REMARK    5  A    between atoms: C_18  and  N_22
REMARK    6  A    between atoms: C_19  and  C_20
REMARK    7  A    between atoms: C_23  and  O_24
REMARK    8  A    between atoms: O_24  and  C_25
REMARK                            x       y       z     vdW  Elec       q    Type
REMARK                         _______ _______ _______ _____ _____    ______ ____
ROOT
ATOM      1  C   UNL     1      -0.018   1.503   0.010  0.00  0.00    +0.052 C 
ATOM      2  C   UNL     1       0.002  -0.004   0.002  0.00  0.00    -0.007 A 
ATOM      3  C   UNL     1      -1.039  -0.872   0.002  0.00  0.00    -0.000 A 
ATOM      4  C   UNL     1      -0.780  -2.230  -0.007  0.00  0.00    +0.019 A 
ATOM      5  C   UNL     1       0.507  -2.653  -0.016  0.00  0.00    -0.001 A 
ATOM      6  S   UNL     1       1.404  -1.109  -0.018  0.00  0.00    -0.097 S 
ENDROOT
BRANCH   5   7
ATOM      7  C   UNL     1       1.043  -4.062  -0.027  0.00  0.00    +0.085 C 
ATOM      8  C   UNL     1       1.921  -4.277  -1.247  0.00  0.00    +0.108 C 
ATOM      9  C   UNL     1       2.583  -5.680  -1.038  0.00  0.00    +0.286 C 
ATOM     10  N   UNL     1       2.982  -5.921  -2.426  0.00  0.00    -0.230 N 
ATOM     11  N   UNL     1       1.884  -5.433  -3.180  0.00  0.00    -0.193 NA
ATOM     12  C   UNL     1       1.232  -4.488  -2.563  0.00  0.00    +0.043 C 
ATOM     13  C   UNL     1       0.016  -3.752  -3.062  0.00  0.00    +0.063 C 
ATOM     14  O   UNL     1       3.581  -5.483  -0.056  0.00  0.00    -0.455 OA
ATOM     15  C   UNL     1       3.099  -4.947   1.100  0.00  0.00    +0.194 C 
ATOM     16  C   UNL     1       1.932  -4.291   1.182  0.00  0.00    +0.094 C 
ATOM     17  H   UNL     1       3.805  -6.319  -2.752  0.00  0.00    +0.172 HD
BRANCH  15  18
ATOM     18  N   UNL     1       3.855  -5.067   2.240  0.00  0.00    -0.329 N 
ATOM     19  H   UNL     1       4.709  -5.525   2.209  0.00  0.00    +0.145 HD
ATOM     20  H   UNL     1       3.534  -4.695   3.076  0.00  0.00    +0.145 HD
ENDBRANCH  15  18
BRANCH  16  21
ATOM     21  C   UNL     1       1.501  -3.806   2.459  0.00  0.00    +0.100 C 
ATOM     22  N   UNL     1       1.159  -3.421   3.471  0.00  0.00    -0.191 NA
ENDBRANCH  16  21
ENDBRANCH   5   7
BRANCH   3  23
ATOM     23  C   UNL     1      -2.458  -0.364   0.012  0.00  0.00    +0.265 C 
BRANCH  23  24
ATOM     24  O   UNL     1      -3.361  -1.472   0.009  0.00  0.00    -0.486 OA
BRANCH  24  25
ATOM     25  C   UNL     1      -4.690  -1.185   0.018  0.00  0.00    +0.139 A 
ATOM     26  C   UNL     1      -5.115   0.135   0.022  0.00  0.00    +0.050 A 
ATOM     27  C   UNL     1      -6.466   0.424   0.030  0.00  0.00    +0.042 A 
ATOM     28  C   UNL     1      -7.395  -0.602   0.034  0.00  0.00    +0.125 A 
ATOM     29  C   UNL     1      -6.973  -1.920   0.029  0.00  0.00    +0.062 A 
ATOM     30  C   UNL     1      -5.622  -2.213   0.016  0.00  0.00    +0.085 A 
ATOM     31 CL   UNL     1      -5.092  -3.867   0.004  0.00  0.00    -0.080 Cl
ATOM     32  F   UNL     1      -8.716  -0.316   0.042  0.00  0.00    -0.205 F 
ENDBRANCH  24  25
ENDBRANCH  23  24
ENDBRANCH   3  23
TORSDOF 6
