REMARK  Name = ZINC39921256
REMARK  8 active torsions:
REMARK  status: ('A' for Active; 'I' for Inactive)
REMARK    1  A    between atoms: C_1  and  C_2
REMARK    2  A    between atoms: C_2  and  C_3
REMARK    3  A    between atoms: C_6  and  C_9
REMARK    4  A    between atoms: C_24  and  N_31
REMARK    5  A    between atoms: C_25  and  C_26
REMARK    6  A    between atoms: C_26  and  O_28
REMARK    7  A    between atoms: O_28  and  C_29
REMARK    8  A    between atoms: C_29  and  C_30
REMARK                            x       y       z     vdW  Elec       q    Type
REMARK                         _______ _______ _______ _____ _____    ______ ____
ROOT
ATOM      1  C   UNL     1      -5.313  -2.011  -0.107  0.00  0.00    +0.080 C 
ATOM      2  C   UNL     1      -5.454  -3.353  -0.833  0.00  0.00    +0.154 C 
ATOM      3  C   UNL     1      -6.949  -3.603  -0.932  0.00  0.00    +0.129 C 
ATOM      4  C   UNL     1      -7.458  -4.752  -0.346  0.00  0.00    +0.035 A 
ATOM      5  C   UNL     1      -8.833  -5.061  -0.413  0.00  0.00    +0.013 A 
ATOM      6  C   UNL     1      -9.294  -6.201   0.169  0.00  0.00    +0.001 A 
ATOM      7  C   UNL     1      -8.437  -7.073   0.833  0.00  0.00    +0.002 A 
ATOM      8  C   UNL     1      -7.101  -6.827   0.934  0.00  0.00    +0.024 A 
ATOM      9  C   UNL     1      -6.553  -5.669   0.358  0.00  0.00    +0.044 A 
ATOM     10  N   UNL     1      -5.242  -5.424   0.465  0.00  0.00    -0.284 N 
ATOM     11  C   UNL     1      -4.630  -4.365  -0.068  0.00  0.00    +0.229 C 
ATOM     12  O   UNL     1      -3.430  -4.202   0.062  0.00  0.00    -0.275 OA
ATOM     13  O   UNL     1      -7.706  -2.703  -1.564  0.00  0.00    -0.445 OA
ATOM     14  C   UNL     1      -7.414  -1.401  -1.338  0.00  0.00    +0.194 C 
ATOM     15  C   UNL     1      -6.300  -1.025  -0.669  0.00  0.00    +0.102 C 
ATOM     16  H   UNL     1      -4.697  -6.060   0.954  0.00  0.00    +0.155 HD
ENDROOT
BRANCH   1  20
ATOM     17  C   UNL     1      -1.347  -0.517  -0.644  0.00  0.00    -0.048 A 
ATOM     18  C   UNL     1      -1.823  -0.774   0.628  0.00  0.00    +0.004 A 
ATOM     19  C   UNL     1      -3.106  -1.257   0.802  0.00  0.00    +0.004 A 
ATOM     20  C   UNL     1      -3.914  -1.483  -0.296  0.00  0.00    -0.038 A 
ATOM     21  C   UNL     1      -3.439  -1.225  -1.569  0.00  0.00    +0.004 A 
ATOM     22  C   UNL     1      -2.157  -0.738  -1.742  0.00  0.00    +0.004 A 
BRANCH  17  24
ATOM     23  C   UNL     1       0.029   1.540  -0.803  0.00  0.00    +0.009 C 
ATOM     24  C   UNL     1       0.052   0.010  -0.833  0.00  0.00    +0.032 C 
ENDBRANCH  17  24
ENDBRANCH   1  20
BRANCH  14  25
ATOM     25  N   UNL     1      -8.270  -0.437  -1.800  0.00  0.00    -0.329 N 
ATOM     26  H   UNL     1      -9.025  -0.685  -2.357  0.00  0.00    +0.145 HD
ATOM     27  H   UNL     1      -8.121   0.494  -1.572  0.00  0.00    +0.145 HD
ENDBRANCH  14  25
BRANCH  15  28
ATOM     28  C   UNL     1      -6.055   0.346  -0.490  0.00  0.00    +0.341 C 
ATOM     29  O   UNL     1      -6.272   0.868   0.589  0.00  0.00    -0.245 OA
BRANCH  28  30
ATOM     30  O   UNL     1      -5.580   1.087  -1.514  0.00  0.00    -0.462 OA
BRANCH  30  31
ATOM     31  C   UNL     1      -5.354   2.475  -1.261  0.00  0.00    +0.229 C 
ATOM     32  C   UNL     1      -4.819   3.144  -2.529  0.00  0.00    +0.048 C 
ENDBRANCH  30  31
ENDBRANCH  28  30
ENDBRANCH  15  28
TORSDOF 6
