REMARK  Name = ZINC09669908
REMARK  12 active torsions:
REMARK  status: ('A' for Active; 'I' for Inactive)
REMARK    1  A    between atoms: C_1  and  C_2
REMARK    2  A    between atoms: C_2  and  C_3
REMARK    3  A    between atoms: C_3  and  C_4
REMARK    4  A    between atoms: C_4  and  N_5
REMARK    5  A    between atoms: C_9  and  S_29
REMARK    6  A    between atoms: C_13  and  C_14
REMARK    7  A    between atoms: C_14  and  S_15
REMARK    8  A    between atoms: S_15  and  C_16
REMARK    9  A    between atoms: C_19  and  C_22
REMARK   10  A    between atoms: N_20  and  C_21
REMARK   11  A    between atoms: C_27  and  C_28
REMARK   12  A    between atoms: S_29  and  N_32
REMARK                            x       y       z     vdW  Elec       q    Type
REMARK                         _______ _______ _______ _____ _____    ______ ____
ROOT
ATOM      1  N   UNL     1       2.557  -9.143  -0.124  0.00  0.00    -0.327 N 
ATOM      2  C   UNL     1       3.005 -10.248  -0.820  0.00  0.00    +0.069 A 
ATOM      3  C   UNL     1       3.577 -11.457  -0.450  0.00  0.00    +0.030 A 
ATOM      4  C   UNL     1       3.922 -12.375  -1.419  0.00  0.00    +0.030 A 
ATOM      5  C   UNL     1       3.700 -12.097  -2.761  0.00  0.00    +0.107 A 
ATOM      6  C   UNL     1       3.138 -10.913  -3.144  0.00  0.00    +0.058 A 
ATOM      7  C   UNL     1       2.781  -9.967  -2.179  0.00  0.00    +0.091 A 
ATOM      8  N   UNL     1       2.215  -8.735  -2.240  0.00  0.00    -0.231 NA
ATOM      9  C   UNL     1       2.089  -8.251  -1.039  0.00  0.00    +0.121 A 
ENDROOT
BRANCH   5  10
ATOM     10  S   UNL     1       4.148 -13.285  -3.982  0.00  0.00    +0.056 S 
ATOM     11  O   UNL     1       4.343 -12.569  -5.194  0.00  0.00    -0.153 OA
ATOM     12  O   UNL     1       5.162 -14.098  -3.406  0.00  0.00    -0.153 OA
BRANCH  10  13
ATOM     13  N   UNL     1       2.834 -14.265  -4.219  0.00  0.00    -0.204 NA
ATOM     14  H   UNL     1       2.019 -14.112  -3.715  0.00  0.00    +0.144 HD
ATOM     15  H   UNL     1       2.879 -14.991  -4.860  0.00  0.00    +0.144 HD
ENDBRANCH  10  13
ENDBRANCH   5  10
BRANCH   1  16
ATOM     16  C   UNL     1       2.580  -8.964   1.330  0.00  0.00    +0.123 C 
BRANCH  16  17
ATOM     17  C   UNL     1       1.276  -9.494   1.929  0.00  0.00    +0.021 C 
BRANCH  17  19
ATOM     18  C   UNL     1      -0.004  -9.837   4.048  0.00  0.00    +0.004 C 
ATOM     19  C   UNL     1       1.300  -9.307   3.448  0.00  0.00    -0.002 C 
ENDBRANCH  17  19
ENDBRANCH  16  17
ENDBRANCH   1  16
BRANCH   9  20
ATOM     20  C   UNL     1       1.503  -6.902  -0.708  0.00  0.00    +0.151 C 
BRANCH  20  21
ATOM     21  S   UNL     1       2.821  -5.662  -0.686  0.00  0.00    -0.078 S 
BRANCH  21  22
ATOM     22  C   UNL     1       1.882  -4.225  -0.286  0.00  0.00    +0.192 A 
ATOM     23  N   UNL     1       0.585  -4.174  -0.079  0.00  0.00    -0.122 NA
ATOM     24  N   UNL     1       0.228  -2.970   0.192  0.00  0.00    -0.128 NA
ATOM     25  C   UNL     1       1.275  -2.178   0.174  0.00  0.00    +0.165 A 
ATOM     26  N   UNL     1       2.365  -2.957  -0.138  0.00  0.00    -0.305 N 
ATOM     27  C   UNL     1       3.756  -2.517  -0.279  0.00  0.00    +0.153 C 
BRANCH  25  28
ATOM     28  C   UNL     1       1.280  -0.723   0.434  0.00  0.00    +0.022 A 
ATOM     29  C   UNL     1       1.932   0.144  -0.445  0.00  0.00    +0.012 A 
ATOM     30  C   UNL     1       1.933   1.501  -0.196  0.00  0.00    +0.001 A 
ATOM     31  C   UNL     1       1.290   2.003   0.921  0.00  0.00    +0.000 A 
ATOM     32  C   UNL     1       0.642   1.150   1.796  0.00  0.00    +0.004 A 
ATOM     33  C   UNL     1       0.633  -0.209   1.559  0.00  0.00    -0.040 A 
ATOM     34  C   UNL     1      -0.073  -1.138   2.513  0.00  0.00    +0.044 C 
ENDBRANCH  25  28
ENDBRANCH  21  22
ENDBRANCH  20  21
ENDBRANCH   9  20
TORSDOF 9
