REMARK  Name = ZINC24023320
REMARK  6 active torsions:
REMARK  status: ('A' for Active; 'I' for Inactive)
REMARK    1  A    between atoms: C_1  and  C_2
REMARK    2  A    between atoms: C_7  and  C_9
REMARK    3  A    between atoms: C_7  and  C_10
REMARK    4  A    between atoms: N_13  and  C_17
REMARK    5  A    between atoms: C_17  and  C_18
REMARK    6  A    between atoms: N_20  and  C_21
REMARK                            x       y       z     vdW  Elec       q    Type
REMARK                         _______ _______ _______ _____ _____    ______ ____
ROOT
ATOM      1  C   UNL     1      -0.074   1.531   0.023  0.00  0.00    +0.007 C 
ATOM      2  C   UNL     1      -0.042  -0.001   0.011  0.00  0.00    -0.011 C 
ATOM      3  C   UNL     1      -1.475  -0.536   0.032  0.00  0.00    +0.038 C 
ATOM      4  C   UNL     1      -1.456  -2.058  -0.029  0.00  0.00    +0.113 C 
ATOM      5  C   UNL     1      -0.597  -2.679   1.055  0.00  0.00    +0.041 C 
ATOM      6  C   UNL     1       0.755  -2.024   1.276  0.00  0.00    -0.032 C 
ATOM      7  C   UNL     1       0.680  -0.501   1.261  0.00  0.00    +0.009 C 
ATOM      8  C   UNL     1       1.274  -2.455   2.665  0.00  0.00    +0.011 C 
ATOM      9  C   UNL     1       1.770  -2.510   0.237  0.00  0.00    +0.011 C 
ATOM     10  C   UNL     1      -1.071  -2.537  -1.407  0.00  0.00    +0.247 C 
ATOM     11  O   UNL     1      -0.088  -2.247  -2.055  0.00  0.00    -0.273 OA
ATOM     12  N   UNL     1      -2.071  -3.353  -1.804  0.00  0.00    -0.215 N 
ATOM     13  C   UNL     1      -3.083  -3.350  -0.929  0.00  0.00    +0.310 C 
ATOM     14  O   UNL     1      -4.103  -3.995  -1.074  0.00  0.00    -0.252 OA
ATOM     15  N   UNL     1      -2.841  -2.555   0.128  0.00  0.00    -0.285 N 
ATOM     16  H   UNL     1      -3.443  -2.342   0.855  0.00  0.00    +0.151 HD
ENDROOT
BRANCH  12  17
ATOM     17  C   UNL     1      -2.047  -4.141  -3.038  0.00  0.00    +0.214 C 
BRANCH  17  18
ATOM     18  C   UNL     1      -1.437  -5.490  -2.761  0.00  0.00    +0.235 C 
ATOM     19  O   UNL     1      -1.059  -5.767  -1.643  0.00  0.00    -0.274 OA
ATOM     20  N   UNL     1      -1.311  -6.390  -3.757  0.00  0.00    -0.283 N 
ATOM     21  H   UNL     1      -1.672  -6.195  -4.636  0.00  0.00    +0.155 HD
BRANCH  20  22
ATOM     22  C   UNL     1      -0.660  -7.607  -3.522  0.00  0.00    +0.052 A 
ATOM     23  C   UNL     1      -0.772  -8.229  -2.286  0.00  0.00    +0.026 A 
ATOM     24  C   UNL     1      -0.129  -9.430  -2.057  0.00  0.00    +0.017 A 
ATOM     25  C   UNL     1       0.629 -10.013  -3.058  0.00  0.00    +0.019 A 
ATOM     26  C   UNL     1       0.744  -9.396  -4.290  0.00  0.00    +0.037 A 
ATOM     27  C   UNL     1       0.096  -8.197  -4.527  0.00  0.00    +0.063 A 
ATOM     28 CL   UNL     1       0.234  -7.427  -6.077  0.00  0.00    -0.082 Cl
ATOM     29 BR   UNL     1       1.509 -11.656  -2.739  0.00  0.00    -0.050 Br
ENDBRANCH  20  22
ENDBRANCH  17  18
ENDBRANCH  12  17
TORSDOF 3
