REMARK  Name = ZINC20191446
REMARK  3 active torsions:
REMARK  status: ('A' for Active; 'I' for Inactive)
REMARK    1  A    between atoms: C_1  and  C_2
REMARK    2  A    between atoms: C_15  and  C_17
REMARK    3  A    between atoms: C_20  and  N_23
REMARK                            x       y       z     vdW  Elec       q    Type
REMARK                         _______ _______ _______ _____ _____    ______ ____
ROOT
ATOM      1  C   UNL     1       3.148   0.903   1.232  0.00  0.00    +0.029 C 
ATOM      2  C   UNL     1       2.264   0.834  -0.015  0.00  0.00    +0.085 C 
ATOM      3  C   UNL     1       1.442  -0.465  -0.014  0.00  0.00    +0.059 C 
ATOM      4  C   UNL     1       0.002  -0.004   0.002  0.00  0.00    -0.024 A 
ATOM      5  C   UNL     1      -1.179  -0.721   0.010  0.00  0.00    +0.005 A 
ATOM      6  C   UNL     1      -2.393  -0.059   0.025  0.00  0.00    +0.000 A 
ATOM      7  C   UNL     1      -2.423   1.323   0.033  0.00  0.00    +0.002 A 
ATOM      8  C   UNL     1      -1.247   2.043   0.030  0.00  0.00    +0.024 A 
ATOM      9  C   UNL     1      -0.017   1.382   0.010  0.00  0.00    +0.041 A 
ATOM     10  N   UNL     1       1.274   1.914   0.000  0.00  0.00    -0.250 N 
ATOM     11  C   UNL     1       1.575   3.264   0.004  0.00  0.00    +0.315 A 
ATOM     12  N   UNL     1       2.776   3.792   0.001  0.00  0.00    -0.092 NA
ATOM     13  N   UNL     1       2.680   5.075   0.003  0.00  0.00    -0.106 NA
ATOM     14  C   UNL     1       1.415   5.417   0.017  0.00  0.00    +0.250 A 
ATOM     15  O   UNL     1       0.688   4.278   0.017  0.00  0.00    -0.405 OA
ENDROOT
BRANCH  14  16
ATOM     16  C   UNL     1       0.881   6.794   0.028  0.00  0.00    +0.039 A 
ATOM     17  C   UNL     1      -0.499   7.010   0.036  0.00  0.00    +0.015 A 
ATOM     18  C   UNL     1      -0.993   8.296   0.053  0.00  0.00    +0.023 A 
ATOM     19  C   UNL     1      -0.120   9.379   0.050  0.00  0.00    +0.025 A 
ATOM     20  C   UNL     1       1.254   9.167   0.037  0.00  0.00    +0.023 A 
ATOM     21  C   UNL     1       1.755   7.883   0.026  0.00  0.00    +0.015 A 
BRANCH  19  22
ATOM     22  N   UNL     1      -0.624  10.680   0.061  0.00  0.00    -0.358 N 
ATOM     23  H   UNL     1       0.066  11.537   0.059  0.00  0.00    +0.142 HD
ATOM     24  H   UNL     1      -1.711  10.848   0.072  0.00  0.00    +0.142 HD
ENDBRANCH  19  22
ENDBRANCH  14  16
TORSDOF 2
