REMARK  Name = ZINC17130655
REMARK  6 active torsions:
REMARK  status: ('A' for Active; 'I' for Inactive)
REMARK    1  A    between atoms: C_1  and  C_2
REMARK    2  A    between atoms: C_3  and  N_16
REMARK    3  A    between atoms: C_4  and  C_10
REMARK    4  A    between atoms: N_6  and  C_7
REMARK    5  A    between atoms: C_7  and  N_9
REMARK    6  A    between atoms: N_17  and  C_18
REMARK                            x       y       z     vdW  Elec       q    Type
REMARK                         _______ _______ _______ _____ _____    ______ ____
ROOT
ATOM      1  C   UNL     1       0.100   1.506   0.154  0.00  0.00    +0.068 C 
ATOM      2  C   UNL     1       0.057   0.003   0.062  0.00  0.00    +0.072 A 
ATOM      3  C   UNL     1       0.010  -0.733  -1.090  0.00  0.00    +0.135 A 
ATOM      4  C   UNL     1      -0.019  -2.144  -0.686  0.00  0.00    +0.121 A 
ATOM      5  N   UNL     1       0.011  -2.173   0.626  0.00  0.00    -0.162 NA
ATOM      6  N   UNL     1       0.062  -0.862   1.108  0.00  0.00    -0.214 N 
ENDROOT
BRANCH   4   7
ATOM      7  C   UNL     1      -0.071  -3.317  -1.591  0.00  0.00    +0.004 A 
ATOM      8  C   UNL     1      -0.788  -3.248  -2.785  0.00  0.00    +0.010 A 
ATOM      9  C   UNL     1      -0.833  -4.343  -3.623  0.00  0.00    +0.001 A 
ATOM     10  C   UNL     1      -0.170  -5.508  -3.281  0.00  0.00    +0.000 A 
ATOM     11  C   UNL     1       0.542  -5.582  -2.097  0.00  0.00    +0.001 A 
ATOM     12  C   UNL     1       0.600  -4.492  -1.254  0.00  0.00    +0.010 A 
ENDBRANCH   4   7
BRANCH   6  13
ATOM     13  C   UNL     1       0.109  -0.510   2.409  0.00  0.00    +0.164 C 
ATOM     14  S   UNL     1       0.311   1.132   2.845  0.00  0.00    -0.014 S 
BRANCH  13  15
ATOM     15  N   UNL     1      -0.005  -1.453   3.365  0.00  0.00    -0.337 N 
ATOM     16  H   UNL     1      -0.120  -2.384   3.118  0.00  0.00    +0.144 HD
ATOM     17  H   UNL     1       0.028  -1.200   4.301  0.00  0.00    +0.144 HD
ENDBRANCH  13  15
ENDBRANCH   6  13
BRANCH   3  18
ATOM     18  N   UNL     1      -0.006  -0.250  -2.365  0.00  0.00    -0.145 NA
ATOM     19  N   UNL     1       0.126   1.016  -2.577  0.00  0.00    -0.148 NA
BRANCH  19  20
ATOM     20  C   UNL     1       0.007   1.512  -3.846  0.00  0.00    +0.106 A 
ATOM     21  C   UNL     1      -0.364   0.671  -4.898  0.00  0.00    +0.031 A 
ATOM     22  C   UNL     1      -0.483   1.178  -6.174  0.00  0.00    +0.004 A 
ATOM     23  C   UNL     1      -0.234   2.518  -6.417  0.00  0.00    +0.021 A 
ATOM     24  C   UNL     1       0.135   3.359  -5.381  0.00  0.00    +0.061 A 
ATOM     25  C   UNL     1       0.252   2.866  -4.096  0.00  0.00    +0.086 A 
ATOM     26 CL   UNL     1       0.707   3.923  -2.796  0.00  0.00    -0.080 Cl
ATOM     27 CL   UNL     1       0.445   5.037  -5.697  0.00  0.00    -0.082 Cl
ENDBRANCH  19  20
ENDBRANCH   3  18
TORSDOF 5
