REMARK  Name = ZINC12807366
REMARK  13 active torsions:
REMARK  status: ('A' for Active; 'I' for Inactive)
REMARK    1  A    between atoms: C_1  and  C_2
REMARK    2  A    between atoms: C_2  and  C_3
REMARK    3  A    between atoms: C_2  and  C_4
REMARK    4  A    between atoms: C_4  and  C_6
REMARK    5  A    between atoms: C_4  and  N_24
REMARK    6  A    between atoms: N_8  and  C_9
REMARK    7  A    between atoms: C_9  and  C_10
REMARK    8  A    between atoms: C_10  and  C_12
REMARK    9  A    between atoms: C_10  and  N_65
REMARK   10  A    between atoms: C_16  and  O_18
REMARK   11  A    between atoms: O_18  and  C_19
REMARK   12  A    between atoms: N_24  and  S_25
REMARK   13  A    between atoms: S_25  and  C_28
REMARK                            x       y       z     vdW  Elec       q    Type
REMARK                         _______ _______ _______ _____ _____    ______ ____
ROOT
ATOM      1  C   UNL     1       1.790  -2.237  -3.887  0.00  0.00    +0.232 C 
ATOM      2  O   UNL     1       0.603  -1.990  -3.911  0.00  0.00    -0.274 OA
ATOM      3  N   UNL     1       2.544  -2.029  -4.985  0.00  0.00    -0.315 N 
ATOM      4  H   UNL     1       3.480  -2.283  -4.985  0.00  0.00    +0.149 HD
ENDROOT
BRANCH   1   5
ATOM      5  C   UNL     1       2.422  -2.775  -2.629  0.00  0.00    +0.165 C 
BRANCH   5   7
ATOM      6  C   UNL     1       3.539  -4.759  -1.601  0.00  0.00    +0.009 C 
ATOM      7  C   UNL     1       2.792  -4.246  -2.833  0.00  0.00    +0.010 C 
ATOM      8  C   UNL     1       1.518  -5.068  -3.037  0.00  0.00    +0.009 C 
ENDBRANCH   5   7
BRANCH   5   9
ATOM      9  N   UNL     1       1.474  -2.659  -1.518  0.00  0.00    -0.178 NA
ATOM     10  H   UNL     1       0.659  -3.184  -1.520  0.00  0.00    +0.149 HD
BRANCH   9  11
ATOM     11  S   UNL     1       1.796  -1.632  -0.259  0.00  0.00    +0.059 S 
ATOM     12  O   UNL     1       3.134  -1.890   0.143  0.00  0.00    -0.153 OA
ATOM     13  O   UNL     1       0.697  -1.733   0.637  0.00  0.00    -0.153 OA
BRANCH  11  14
ATOM     14  C   UNL     1       1.770   0.007  -0.905  0.00  0.00    +0.105 A 
ATOM     15  C   UNL     1       0.589   0.725  -0.921  0.00  0.00    +0.030 A 
ATOM     16  C   UNL     1       0.569   2.011  -1.427  0.00  0.00    +0.022 A 
ATOM     17  C   UNL     1       1.731   2.579  -1.918  0.00  0.00    +0.041 A 
ATOM     18  C   UNL     1       2.913   1.860  -1.902  0.00  0.00    +0.022 A 
ATOM     19  C   UNL     1       2.932   0.574  -1.396  0.00  0.00    +0.030 A 
ATOM     20 CL   UNL     1       1.706   4.195  -2.554  0.00  0.00    -0.084 Cl
ENDBRANCH  11  14
ENDBRANCH   9  11
ENDBRANCH   5   9
ENDBRANCH   1   5
BRANCH   3  21
ATOM     21  C   UNL     1       1.950  -1.420  -6.177  0.00  0.00    +0.093 C 
BRANCH  21  22
ATOM     22  C   UNL     1       2.975  -1.418  -7.313  0.00  0.00    -0.020 C 
BRANCH  22  23
ATOM     23  C   UNL     1       3.343  -2.837  -7.660  0.00  0.00    -0.056 A 
ATOM     24  C   UNL     1       2.504  -3.594  -8.458  0.00  0.00    +0.002 A 
ATOM     25  C   UNL     1       2.843  -4.894  -8.782  0.00  0.00    +0.004 A 
ATOM     26  C   UNL     1       4.015  -5.445  -8.301  0.00  0.00    +0.045 A 
ATOM     27  C   UNL     1       4.855  -4.690  -7.497  0.00  0.00    +0.120 A 
ATOM     28  C   UNL     1       4.516  -3.383  -7.177  0.00  0.00    +0.047 A 
BRANCH  27  29
ATOM     29  O   UNL     1       6.009  -5.230  -7.022  0.00  0.00    -0.495 OA
ATOM     30  C   UNL     1       6.293  -6.580  -7.391  0.00  0.00    +0.277 C 
ENDBRANCH  27  29
ENDBRANCH  22  23
BRANCH  22  35
ATOM     31  C   UNL     1       1.975   0.629  -8.175  0.00  0.00    -0.078 C 
ATOM     32  C   UNL     1       1.907   1.306  -9.566  0.00  0.00    -0.020 C 
ATOM     33  C   UNL     1       3.105   0.679 -10.315  0.00  0.00    -0.020 C 
ATOM     34  C   UNL     1       3.397  -0.639  -9.576  0.00  0.00    -0.078 C 
ATOM     35  N   UNL     1       2.396  -0.740  -8.512  0.00  0.00    +0.385 N 
ATOM     36  H   UNL     1       1.588  -1.279  -8.846  0.00  0.00    -0.081 HD
ENDBRANCH  22  35
ENDBRANCH  21  22
ENDBRANCH   3  21
TORSDOF 10
