REMARK  Name = ZINC00705973
REMARK  4 active torsions:
REMARK  status: ('A' for Active; 'I' for Inactive)
REMARK    1  A    between atoms: C_5  and  C_7
REMARK    2  A    between atoms: C_15  and  N_28
REMARK    3  A    between atoms: C_16  and  C_26
REMARK    4  A    between atoms: C_17  and  C_19
REMARK                            x       y       z     vdW  Elec       q    Type
REMARK                         _______ _______ _______ _____ _____    ______ ____
ROOT
ATOM      1  C   UNL     1       6.196   1.724  -2.297  0.00  0.00    +0.016 C 
ATOM      2  C   UNL     1       5.152   2.568  -2.380  0.00  0.00    -0.004 C 
ATOM      3  C   UNL     1       4.785   3.223  -3.694  0.00  0.00    +0.039 C 
ATOM      4  C   UNL     1       4.428   4.683  -3.382  0.00  0.00    +0.009 C 
ATOM      5  C   UNL     1       3.215   4.705  -2.457  0.00  0.00    +0.036 C 
ATOM      6  C   UNL     1       3.444   3.872  -1.222  0.00  0.00    -0.014 C 
ATOM      7  C   UNL     1       4.332   2.880  -1.192  0.00  0.00    +0.133 C 
ATOM      8  O   UNL     1       4.517   2.123  -0.080  0.00  0.00    -0.441 OA
ATOM      9  C   UNL     1       4.158   2.598   1.125  0.00  0.00    +0.199 C 
ATOM     10  C   UNL     1       3.246   3.596   1.231  0.00  0.00    +0.098 C 
ATOM     11  C   UNL     1       2.618   4.191   0.003  0.00  0.00    +0.095 C 
ENDROOT
BRANCH   1  16
ATOM     12  C   UNL     1       6.851   0.710  -5.849  0.00  0.00    +0.001 A 
ATOM     13  C   UNL     1       8.219   0.497  -5.820  0.00  0.00    +0.001 A 
ATOM     14  C   UNL     1       8.930   0.682  -4.648  0.00  0.00    +0.020 A 
ATOM     15  C   UNL     1       8.279   1.082  -3.498  0.00  0.00    +0.048 A 
ATOM     16  C   UNL     1       6.898   1.299  -3.520  0.00  0.00    -0.006 A 
ATOM     17  C   UNL     1       6.186   1.104  -4.707  0.00  0.00    +0.009 A 
ATOM     18 CL   UNL     1       9.173   1.313  -2.028  0.00  0.00    -0.083 Cl
ENDBRANCH   1  16
BRANCH  11  19
ATOM     19  C   UNL     1       1.232   3.626  -0.171  0.00  0.00    -0.017 A 
ATOM     20  C   UNL     1       1.058   2.266  -0.349  0.00  0.00    +0.006 A 
ATOM     21  C   UNL     1      -0.214   1.747  -0.509  0.00  0.00    +0.000 A 
ATOM     22  C   UNL     1      -1.311   2.588  -0.496  0.00  0.00    +0.001 A 
ATOM     23  C   UNL     1      -1.138   3.947  -0.311  0.00  0.00    +0.020 A 
ATOM     24  C   UNL     1       0.134   4.467  -0.151  0.00  0.00    +0.045 A 
ATOM     25 CL   UNL     1       0.352   6.175   0.074  0.00  0.00    -0.083 Cl
ENDBRANCH  11  19
BRANCH   9  26
ATOM     26  N   UNL     1       4.719   2.067   2.259  0.00  0.00    -0.328 N 
ATOM     27  H   UNL     1       5.371   1.352   2.189  0.00  0.00    +0.145 HD
ATOM     28  H   UNL     1       4.463   2.406   3.131  0.00  0.00    +0.145 HD
ENDBRANCH   9  26
BRANCH  10  29
ATOM     29  C   UNL     1       2.878   4.088   2.525  0.00  0.00    +0.101 C 
ATOM     30  N   UNL     1       2.587   4.477   3.551  0.00  0.00    -0.191 NA
ENDBRANCH  10  29
TORSDOF 4
