REMARK  Name = ZINC63350055
REMARK  8 active torsions:
REMARK  status: ('A' for Active; 'I' for Inactive)
REMARK    1  A    between atoms: C_1  and  O_2
REMARK    2  A    between atoms: O_2  and  C_3
REMARK    3  A    between atoms: C_10  and  C_18
REMARK    4  A    between atoms: C_21  and  O_38
REMARK    5  A    between atoms: C_22  and  C_24
REMARK    6  A    between atoms: C_24  and  N_25
REMARK    7  A    between atoms: N_28  and  C_31
REMARK    8  A    between atoms: O_38  and  C_39
REMARK                            x       y       z     vdW  Elec       q    Type
REMARK                         _______ _______ _______ _____ _____    ______ ____
ROOT
ATOM      1  C   UNL     1       4.190  -4.887   4.874  0.00  0.00    -0.028 A 
ATOM      2  C   UNL     1       3.653  -5.918   5.625  0.00  0.00    +0.009 A 
ATOM      3  C   UNL     1       4.169  -6.205   6.873  0.00  0.00    +0.046 A 
ATOM      4  C   UNL     1       5.226  -5.459   7.375  0.00  0.00    +0.121 A 
ATOM      5  C   UNL     1       5.762  -4.426   6.620  0.00  0.00    -0.022 A 
ATOM      6  C   UNL     1       5.247  -4.146   5.369  0.00  0.00    +0.010 A 
ENDROOT
BRANCH   1  13
ATOM      7  C   UNL     1       0.854  -0.215   1.023  0.00  0.00    +0.121 A 
ATOM      8  C   UNL     1       1.393   0.509   2.101  0.00  0.00    +0.047 A 
ATOM      9  C   UNL     1       1.986  -0.093   3.154  0.00  0.00    +0.029 A 
ATOM     10  C   UNL     1       2.085  -1.554   3.199  0.00  0.00    +0.043 A 
ATOM     11  N   UNL     1       2.621  -2.369   4.078  0.00  0.00    -0.376 N 
ATOM     12  C   UNL     1       2.350  -3.741   3.661  0.00  0.00    +0.128 C 
ATOM     13  C   UNL     1       3.625  -4.576   3.512  0.00  0.00    +0.111 C 
ATOM     14  N   UNL     1       3.281  -5.827   2.819  0.00  0.00    -0.307 NA
ATOM     15  C   UNL     1       2.867  -5.623   1.428  0.00  0.00    +0.086 C 
ATOM     16  C   UNL     1       1.549  -4.829   1.380  0.00  0.00    +0.048 C 
ATOM     17  C   UNL     1       1.726  -3.625   2.279  0.00  0.00    -0.035 C 
ATOM     18  C   UNL     1       1.524  -2.321   2.057  0.00  0.00    +0.003 A 
ATOM     19  C   UNL     1       0.892  -1.567   0.968  0.00  0.00    +0.055 A 
ATOM     20  H   UNL     1       4.037  -6.492   2.877  0.00  0.00    +0.123 HD
ATOM     21  H   UNL     1       3.115  -2.105   4.870  0.00  0.00    +0.160 HD
BRANCH   7  23
ATOM     22  C   UNL     1       0.250   1.892   0.101  0.00  0.00    +0.277 C 
ATOM     23  O   UNL     1       0.269   0.466   0.003  0.00  0.00    -0.495 OA
ENDBRANCH   7  23
ENDBRANCH   1  13
BRANCH   4  24
ATOM     24  O   UNL     1       5.735  -5.739   8.603  0.00  0.00    -0.495 OA
ATOM     25  C   UNL     1       5.133  -6.816   9.324  0.00  0.00    +0.277 C 
ENDBRANCH   4  24
BRANCH   5  26
ATOM     26  C   UNL     1       6.910  -3.614   7.161  0.00  0.00    -0.039 C 
BRANCH  26  27
ATOM     27  N   UNL     1       8.146  -4.406   7.094  0.00  0.00    +0.384 N 
ATOM     28  C   UNL     1       8.487  -4.658   5.688  0.00  0.00    -0.059 C 
ATOM     29  C   UNL     1       9.710  -5.580   5.618  0.00  0.00    +0.086 C 
ATOM     30  N   UNL     1      10.794  -4.976   6.408  0.00  0.00    -0.331 N 
ATOM     31  C   UNL     1      10.493  -4.542   7.781  0.00  0.00    +0.086 C 
ATOM     32  C   UNL     1       9.234  -3.670   7.749  0.00  0.00    -0.059 C 
ATOM     33  H   UNL     1       8.005  -5.287   7.566  0.00  0.00    -0.081 HD
BRANCH  30  34
ATOM     34  C   UNL     1      12.075  -4.820   5.869  0.00  0.00    +0.065 A 
ATOM     35  C   UNL     1      12.409  -3.653   5.195  0.00  0.00    +0.026 A 
ATOM     36  C   UNL     1      13.675  -3.501   4.664  0.00  0.00    +0.002 A 
ATOM     37  C   UNL     1      14.611  -4.510   4.802  0.00  0.00    +0.003 A 
ATOM     38  C   UNL     1      14.283  -5.675   5.472  0.00  0.00    +0.040 A 
ATOM     39  C   UNL     1      13.020  -5.831   6.011  0.00  0.00    +0.144 A 
ATOM     40  F   UNL     1      12.701  -6.966   6.671  0.00  0.00    -0.204 F 
ENDBRANCH  30  34
ENDBRANCH  26  27
ENDBRANCH   5  26
TORSDOF 6
