REMARK  Name = ZINC58138738
REMARK  11 active torsions:
REMARK  status: ('A' for Active; 'I' for Inactive)
REMARK    1  A    between atoms: C_1  and  C_2
REMARK    2  A    between atoms: C_3  and  C_16
REMARK    3  A    between atoms: C_4  and  C_15
REMARK    4  A    between atoms: C_16  and  C_17
REMARK    5  A    between atoms: C_17  and  C_18
REMARK    6  A    between atoms: N_20  and  C_21
REMARK    7  A    between atoms: C_21  and  C_23
REMARK    8  A    between atoms: C_21  and  C_34
REMARK    9  A    between atoms: C_25  and  C_28
REMARK   10  A    between atoms: C_34  and  C_35
REMARK   11  A    between atoms: C_34  and  C_36
REMARK                            x       y       z     vdW  Elec       q    Type
REMARK                         _______ _______ _______ _____ _____    ______ ____
ROOT
ATOM      1  C   UNL     1      -4.218   1.086   1.466  0.00  0.00    +0.214 C 
ATOM      2  O   UNL     1      -4.798   1.304   0.424  0.00  0.00    -0.276 OA
ATOM      3  N   UNL     1      -4.753   1.494   2.634  0.00  0.00    -0.304 N 
ATOM      4  H   UNL     1      -4.288   1.319   3.468  0.00  0.00    +0.149 HD
ENDROOT
BRANCH   1   5
ATOM      5  C   UNL     1      -2.898   0.357   1.456  0.00  0.00    +0.100 C 
BRANCH   5   6
ATOM      6  C   UNL     1      -2.520   0.009   0.015  0.00  0.00    +0.048 C 
BRANCH   6   9
ATOM      7  C   UNL     1      -0.018   1.503   0.010  0.00  0.00    +0.066 C 
ATOM      8  C   UNL     1       0.002  -0.004   0.002  0.00  0.00    +0.045 A 
ATOM      9  C   UNL     1      -1.200  -0.719   0.004  0.00  0.00    -0.005 A 
ATOM     10  C   UNL     1      -1.166  -2.077  -0.004  0.00  0.00    +0.047 A 
ATOM     11  N   UNL     1       0.041  -2.711  -0.013  0.00  0.00    -0.217 N 
ATOM     12  C   UNL     1       1.192  -1.977  -0.014  0.00  0.00    +0.164 A 
ATOM     13  N   UNL     1       1.150  -0.645  -0.012  0.00  0.00    -0.232 NA
ATOM     14  C   UNL     1       2.266  -2.894  -0.024  0.00  0.00    +0.046 A 
ATOM     15  C   UNL     1       3.661  -2.747  -0.029  0.00  0.00    +0.014 A 
ATOM     16  C   UNL     1       4.458  -3.851  -0.038  0.00  0.00    +0.001 A 
ATOM     17  C   UNL     1       3.907  -5.131  -0.042  0.00  0.00    +0.002 A 
ATOM     18  C   UNL     1       2.559  -5.315  -0.037  0.00  0.00    +0.030 A 
ATOM     19  C   UNL     1       1.701  -4.196  -0.028  0.00  0.00    +0.095 A 
ATOM     20  N   UNL     1       0.378  -4.070  -0.021  0.00  0.00    -0.165 NA
ATOM     21  C   UNL     1      -2.446  -2.872  -0.001  0.00  0.00    +0.066 C 
ENDBRANCH   6   9
ENDBRANCH   5   6
ENDBRANCH   1   5
BRANCH   3  22
ATOM     22  C   UNL     1      -6.035   2.201   2.645  0.00  0.00    +0.164 C 
BRANCH  22  23
ATOM     23  C   UNL     1      -6.703   2.011   3.982  0.00  0.00    +0.248 A 
ATOM     24  N   UNL     1      -7.957   1.713   4.171  0.00  0.00    -0.190 NA
ATOM     25  C   UNL     1      -8.214   1.619   5.488  0.00  0.00    +0.202 A 
ATOM     26  N   UNL     1      -7.109   1.860   6.149  0.00  0.00    -0.056 NA
ATOM     27  O   UNL     1      -6.106   2.114   5.177  0.00  0.00    -0.336 OA
BRANCH  25  28
ATOM     28  C   UNL     1      -9.531   1.296   6.091  0.00  0.00    +0.022 A 
ATOM     29  C   UNL     1     -10.634   1.054   5.275  0.00  0.00    +0.012 A 
ATOM     30  C   UNL     1     -11.856   0.754   5.842  0.00  0.00    +0.001 A 
ATOM     31  C   UNL     1     -11.988   0.694   7.218  0.00  0.00    +0.000 A 
ATOM     32  C   UNL     1     -10.896   0.933   8.033  0.00  0.00    +0.001 A 
ATOM     33  C   UNL     1      -9.668   1.228   7.476  0.00  0.00    +0.012 A 
ENDBRANCH  25  28
ENDBRANCH  22  23
BRANCH  22  34
ATOM     34  C   UNL     1      -5.796   3.693   2.402  0.00  0.00    +0.012 C 
ATOM     35  C   UNL     1      -4.798   4.224   3.432  0.00  0.00    +0.009 C 
ATOM     36  C   UNL     1      -5.233   3.897   0.994  0.00  0.00    +0.009 C 
ENDBRANCH  22  34
ENDBRANCH   3  22
TORSDOF 7
