REMARK  Name = ZINC10215384
REMARK  4 active torsions:
REMARK  status: ('A' for Active; 'I' for Inactive)
REMARK    1  A    between atoms: C_3  and  C_9
REMARK    2  A    between atoms: C_4  and  O_8
REMARK    3  A    between atoms: C_6  and  O_7
REMARK    4  A    between atoms: C_22  and  C_24
REMARK                            x       y       z     vdW  Elec       q    Type
REMARK                         _______ _______ _______ _____ _____    ______ ____
ROOT
ATOM      1  C   UNL     1      -2.415   3.945  -0.001  0.00  0.00    +0.072 C 
ATOM      2  N   UNL     1      -2.594   5.225   0.043  0.00  0.00    -0.184 NA
ATOM      3  N   UNL     1      -3.926   5.595   0.075  0.00  0.00    -0.205 N 
ATOM      4  C   UNL     1      -4.764   4.399  -0.167  0.00  0.00    +0.136 C 
ATOM      5  C   UNL     1      -3.759   3.247  -0.027  0.00  0.00    +0.086 C 
ATOM      6  C   UNL     1      -5.800   4.378   0.926  0.00  0.00    +0.018 A 
ATOM      7  C   UNL     1      -6.514   3.216   1.156  0.00  0.00    +0.024 A 
ATOM      8  C   UNL     1      -7.483   3.175   2.142  0.00  0.00    +0.018 A 
ATOM      9  C   UNL     1      -7.736   4.305   2.900  0.00  0.00    +0.019 A 
ATOM     10  C   UNL     1      -7.021   5.462   2.678  0.00  0.00    +0.047 A 
ATOM     11  C   UNL     1      -6.037   5.510   1.691  0.00  0.00    +0.129 A 
ATOM     12  O   UNL     1      -5.359   6.677   1.544  0.00  0.00    -0.465 OA
ATOM     13  C   UNL     1      -4.539   6.892   0.390  0.00  0.00    +0.310 C 
ATOM     14 BR   UNL     1      -8.456   1.584   2.452  0.00  0.00    -0.050 Br
ENDROOT
BRANCH   1  17
ATOM     15  C   UNL     1       0.191   1.246  -0.072  0.00  0.00    +0.046 A 
ATOM     16  C   UNL     1      -1.036   1.875  -0.063  0.00  0.00    +0.017 A 
ATOM     17  C   UNL     1      -1.105   3.269  -0.016  0.00  0.00    +0.039 A 
ATOM     18  C   UNL     1       0.077   4.023   0.011  0.00  0.00    +0.129 A 
ATOM     19  C   UNL     1       1.302   3.381  -0.003  0.00  0.00    +0.091 A 
ATOM     20  C   UNL     1       1.361   1.995  -0.045  0.00  0.00    +0.120 A 
BRANCH  20  21
ATOM     21  O   UNL     1       2.566   1.369  -0.059  0.00  0.00    -0.507 OA
ATOM     22  H   UNL     1       2.919   1.214  -0.946  0.00  0.00    +0.292 HD
ENDBRANCH  20  21
BRANCH  18  23
ATOM     23  O   UNL     1       0.018   5.379   0.052  0.00  0.00    -0.506 OA
ATOM     24  H   UNL     1       0.005   5.799  -0.819  0.00  0.00    +0.292 HD
ENDBRANCH  18  23
ENDBRANCH   1  17
BRANCH  13  25
ATOM     25  C   UNL     1      -5.384   7.359  -0.767  0.00  0.00    +0.015 A 
ATOM     26  C   UNL     1      -4.980   7.141  -2.075  0.00  0.00    +0.028 A 
ATOM     27  C   UNL     1      -5.784   7.580  -3.111  0.00  0.00    +0.111 A 
ATOM     28  N   UNL     1      -6.918   8.207  -2.865  0.00  0.00    -0.263 NA
ATOM     29  C   UNL     1      -7.331   8.435  -1.634  0.00  0.00    +0.111 A 
ATOM     30  C   UNL     1      -6.582   8.021  -0.549  0.00  0.00    +0.028 A 
ENDBRANCH  13  25
TORSDOF 4
