REMARK  Name = ZINC11911587
REMARK  9 active torsions:
REMARK  status: ('A' for Active; 'I' for Inactive)
REMARK    1  A    between atoms: C_1  and  C_2
REMARK    2  A    between atoms: C_2  and  C_3
REMARK    3  A    between atoms: C_3  and  C_14
REMARK    4  A    between atoms: N_6  and  C_10
REMARK    5  A    between atoms: C_10  and  C_11
REMARK    6  A    between atoms: C_11  and  C_13
REMARK    7  A    between atoms: C_19  and  C_20
REMARK    8  A    between atoms: C_19  and  N_62
REMARK    9  A    between atoms: C_25  and  C_26
REMARK                            x       y       z     vdW  Elec       q    Type
REMARK                         _______ _______ _______ _____ _____    ______ ____
ROOT
ATOM      1  C   UNL     1      -0.248   6.007   1.143  0.00  0.00    +0.018 C 
ATOM      2  C   UNL     1       0.444   6.838   0.059  0.00  0.00    -0.013 C 
ATOM      3  C   UNL     1       1.073   5.900  -0.973  0.00  0.00    -0.078 C 
ATOM      4  C   UNL     1       1.396   4.179   0.703  0.00  0.00    -0.078 C 
ATOM      5  C   UNL     1       0.776   5.067   1.785  0.00  0.00    -0.013 C 
ATOM      6  N   UNL     1       2.066   5.039  -0.296  0.00  0.00    +0.382 N 
ATOM      7  H   UNL     1       2.752   5.634   0.184  0.00  0.00    -0.081 HD
ENDROOT
BRANCH   1   8
ATOM      8  C   UNL     1      -0.828   6.938   2.209  0.00  0.00    +0.115 C 
ATOM      9  C   UNL     1      -1.828   7.897   1.594  0.00  0.00    +0.247 C 
ATOM     10  O   UNL     1      -2.862   7.613   1.029  0.00  0.00    -0.273 OA
ATOM     11  N   UNL     1      -1.328   9.130   1.805  0.00  0.00    -0.220 N 
ATOM     12  C   UNL     1      -0.163   9.085   2.462  0.00  0.00    +0.310 C 
ATOM     13  O   UNL     1       0.479  10.070   2.767  0.00  0.00    -0.252 OA
ATOM     14  N   UNL     1       0.218   7.826   2.747  0.00  0.00    -0.285 N 
ATOM     15  H   UNL     1       1.023   7.556   3.215  0.00  0.00    +0.151 HD
BRANCH   8  17
ATOM     16  C   UNL     1      -2.051   7.082   4.383  0.00  0.00    +0.006 C 
ATOM     17  C   UNL     1      -1.479   6.128   3.332  0.00  0.00    +0.032 C 
ENDBRANCH   8  17
BRANCH  11  18
ATOM     18  C   UNL     1      -1.979  10.368   1.370  0.00  0.00    +0.148 C 
BRANCH  18  19
ATOM     19  C   UNL     1      -2.897  10.862   2.458  0.00  0.00    -0.062 C 
ATOM     20  C   UNL     1      -2.473  11.756   3.317  0.00  0.00    +0.009 C 
ATOM     21  C   UNL     1      -4.303  10.328   2.559  0.00  0.00    +0.040 C 
ENDBRANCH  18  19
ENDBRANCH  11  18
ENDBRANCH   1   8
BRANCH   6  22
ATOM     22  C   UNL     1       2.770   4.202  -1.290  0.00  0.00    -0.039 C 
BRANCH  22  23
ATOM     23  C   UNL     1       3.991   3.605  -0.641  0.00  0.00    -0.019 A 
ATOM     24  C   UNL     1       4.144   2.315  -0.268  0.00  0.00    +0.107 A 
ATOM     25  N   UNL     1       5.373   2.181   0.274  0.00  0.00    -0.284 N 
ATOM     26  H   UNL     1       5.763   1.337   0.642  0.00  0.00    +0.188 HD
ATOM     27  N   UNL     1       6.008   3.429   0.230  0.00  0.00    -0.174 NA
ATOM     28  C   UNL     1       5.177   4.291  -0.316  0.00  0.00    +0.094 A 
BRANCH  28  29
ATOM     29  C   UNL     1       5.445   5.732  -0.551  0.00  0.00    +0.002 A 
ATOM     30  C   UNL     1       5.077   6.323  -1.758  0.00  0.00    +0.010 A 
ATOM     31  C   UNL     1       5.328   7.663  -1.972  0.00  0.00    +0.001 A 
ATOM     32  C   UNL     1       5.943   8.420  -0.991  0.00  0.00    +0.000 A 
ATOM     33  C   UNL     1       6.310   7.838   0.209  0.00  0.00    +0.001 A 
ATOM     34  C   UNL     1       6.064   6.498   0.434  0.00  0.00    +0.010 A 
ENDBRANCH  28  29
ENDBRANCH  22  23
ENDBRANCH   6  22
TORSDOF 7
