REMARK  Name = ZINC05758593
REMARK  10 active torsions:
REMARK  status: ('A' for Active; 'I' for Inactive)
REMARK    1  A    between atoms: C_1  and  C_2
REMARK    2  A    between atoms: C_11  and  C_12
REMARK    3  A    between atoms: C_12  and  C_14
REMARK    4  A    between atoms: C_12  and  C_23
REMARK    5  A    between atoms: C_17  and  O_22
REMARK    6  A    between atoms: C_18  and  O_20
REMARK    7  A    between atoms: O_20  and  C_21
REMARK    8  A    between atoms: C_24  and  C_33
REMARK    9  A    between atoms: C_33  and  C_34
REMARK   10  A    between atoms: C_34  and  N_59
REMARK                            x       y       z     vdW  Elec       q    Type
REMARK                         _______ _______ _______ _____ _____    ______ ____
ROOT
ATOM      1  C   UNL     1      -2.551   1.204   0.019  0.00  0.00    +0.112 C 
ENDROOT
BRANCH   1  12
ATOM      2  C   UNL     1      -4.664   1.737   2.230  0.00  0.00    +0.046 C 
ATOM      3  C   UNL     1      -3.682   0.594   2.197  0.00  0.00    -0.021 A 
ATOM      4  C   UNL     1      -3.547  -0.468   3.197  0.00  0.00    +0.003 A 
ATOM      5  C   UNL     1      -4.203  -0.762   4.394  0.00  0.00    +0.010 A 
ATOM      6  C   UNL     1      -3.832  -1.859   5.119  0.00  0.00    +0.001 A 
ATOM      7  C   UNL     1      -2.807  -2.684   4.675  0.00  0.00    +0.002 A 
ATOM      8  C   UNL     1      -2.147  -2.412   3.497  0.00  0.00    +0.026 A 
ATOM      9  C   UNL     1      -2.508  -1.300   2.743  0.00  0.00    +0.047 A 
ATOM     10  N   UNL     1      -2.059  -0.775   1.552  0.00  0.00    -0.357 N 
ATOM     11  H   UNL     1      -1.345  -1.150   1.012  0.00  0.00    +0.166 HD
ATOM     12  C   UNL     1      -2.766   0.356   1.246  0.00  0.00    +0.033 A 
ENDBRANCH   1  12
BRANCH   1  13
ATOM     13  C   UNL     1      -1.142   1.737   0.016  0.00  0.00    +0.033 A 
ATOM     14  C   UNL     1      -0.809   3.037   0.026  0.00  0.00    -0.020 A 
ATOM     15  C   UNL     1       0.654   3.105   0.013  0.00  0.00    +0.003 A 
ATOM     16  C   UNL     1       1.578   4.152   0.009  0.00  0.00    +0.010 A 
ATOM     17  C   UNL     1       2.916   3.877  -0.005  0.00  0.00    +0.001 A 
ATOM     18  C   UNL     1       3.365   2.564  -0.016  0.00  0.00    +0.002 A 
ATOM     19  C   UNL     1       2.472   1.515  -0.013  0.00  0.00    +0.026 A 
ATOM     20  C   UNL     1       1.105   1.772   0.001  0.00  0.00    +0.047 A 
ATOM     21  N   UNL     1      -0.011   0.966   0.007  0.00  0.00    -0.357 N 
ATOM     22  H   UNL     1       0.002  -0.004   0.002  0.00  0.00    +0.166 HD
BRANCH  14  23
ATOM     23  C   UNL     1      -1.760   4.206   0.041  0.00  0.00    +0.018 C 
BRANCH  23  24
ATOM     24  C   UNL     1      -2.095   4.609  -1.396  0.00  0.00    -0.082 C 
BRANCH  24  27
ATOM     25  H   UNL     1      -3.259   6.034  -2.320  0.00  0.00    -0.090 HD
ATOM     26  H   UNL     1      -3.852   5.532  -0.849  0.00  0.00    -0.090 HD
ATOM     27  N   UNL     1      -3.008   5.765  -1.370  0.00  0.00    +0.378 N 
ATOM     28  H   UNL     1      -2.539   6.555  -0.912  0.00  0.00    -0.090 HD
ENDBRANCH  24  27
ENDBRANCH  23  24
ENDBRANCH  14  23
ENDBRANCH   1  13
BRANCH   1  29
ATOM     29  C   UNL     1      -2.775   0.369  -1.215  0.00  0.00    -0.029 A 
ATOM     30  C   UNL     1      -1.992  -0.747  -1.444  0.00  0.00    +0.008 A 
ATOM     31  C   UNL     1      -2.197  -1.520  -2.572  0.00  0.00    +0.049 A 
ATOM     32  C   UNL     1      -3.182  -1.170  -3.481  0.00  0.00    +0.158 A 
ATOM     33  C   UNL     1      -3.967  -0.044  -3.253  0.00  0.00    +0.162 A 
ATOM     34  C   UNL     1      -3.760   0.723  -2.118  0.00  0.00    +0.054 A 
BRANCH  33  35
ATOM     35  O   UNL     1      -4.936   0.303  -4.143  0.00  0.00    -0.491 OA
ATOM     36  C   UNL     1      -5.703   1.470  -3.844  0.00  0.00    +0.277 C 
ENDBRANCH  33  35
BRANCH  32  37
ATOM     37  O   UNL     1      -3.381  -1.926  -4.594  0.00  0.00    -0.503 OA
ATOM     38  H   UNL     1      -2.856  -1.649  -5.357  0.00  0.00    +0.292 HD
ENDBRANCH  32  37
ENDBRANCH   1  29
TORSDOF 8
