REMARK  Name = ZINC35992914
REMARK  11 active torsions:
REMARK  status: ('A' for Active; 'I' for Inactive)
REMARK    1  A    between atoms: C_1  and  C_2
REMARK    2  A    between atoms: C_2  and  N_3
REMARK    3  A    between atoms: N_9  and  C_14
REMARK    4  A    between atoms: C_11  and  C_13
REMARK    5  A    between atoms: C_14  and  C_15
REMARK    6  A    between atoms: C_16  and  C_30
REMARK    7  A    between atoms: C_17  and  C_24
REMARK    8  A    between atoms: N_22  and  C_23
REMARK    9  A    between atoms: C_30  and  O_32
REMARK   10  A    between atoms: O_32  and  C_33
REMARK   11  A    between atoms: C_33  and  C_34
REMARK                            x       y       z     vdW  Elec       q    Type
REMARK                         _______ _______ _______ _____ _____    ______ ____
ROOT
ATOM      1  C   UNL     1      -7.477  -2.878   1.909  0.00  0.00    +0.041 C 
ATOM      2  C   UNL     1      -8.515  -3.704   1.655  0.00  0.00    +0.080 C 
ATOM      3  C   UNL     1      -9.893  -3.086   1.526  0.00  0.00    +0.144 C 
ATOM      4  N   UNL     1      -9.986  -1.625   1.688  0.00  0.00    -0.288 N 
ATOM      5  C   UNL     1      -8.856  -0.934   1.938  0.00  0.00    +0.307 C 
ATOM      6  O   UNL     1      -8.923   0.272   2.074  0.00  0.00    -0.252 OA
ATOM      7  N   UNL     1      -7.664  -1.533   2.049  0.00  0.00    -0.260 N 
ATOM      8  C   UNL     1      -6.494  -0.698   2.329  0.00  0.00    +0.139 C 
ATOM      9  H   UNL     1     -10.840  -1.171   1.615  0.00  0.00    +0.151 HD
ENDROOT
BRANCH   3  10
ATOM     10  C   UNL     1     -10.433  -3.437   0.163  0.00  0.00    -0.022 A 
ATOM     11  C   UNL     1     -10.020  -2.726  -0.948  0.00  0.00    +0.006 A 
ATOM     12  C   UNL     1     -10.516  -3.048  -2.198  0.00  0.00    +0.000 A 
ATOM     13  C   UNL     1     -11.424  -4.081  -2.336  0.00  0.00    +0.000 A 
ATOM     14  C   UNL     1     -11.836  -4.792  -1.224  0.00  0.00    +0.000 A 
ATOM     15  C   UNL     1     -11.337  -4.473   0.025  0.00  0.00    +0.006 A 
ENDBRANCH   3  10
BRANCH   2  16
ATOM     16  C   UNL     1      -8.323  -5.098   1.515  0.00  0.00    +0.339 C 
ATOM     17  O   UNL     1      -7.215  -5.578   1.661  0.00  0.00    -0.245 OA
BRANCH  16  18
ATOM     18  O   UNL     1      -9.370  -5.897   1.220  0.00  0.00    -0.462 OA
BRANCH  18  19
ATOM     19  C   UNL     1      -9.104  -7.295   1.093  0.00  0.00    +0.229 C 
ATOM     20  C   UNL     1     -10.402  -8.033   0.759  0.00  0.00    +0.048 C 
ENDBRANCH  18  19
ENDBRANCH  16  18
ENDBRANCH   2  16
BRANCH   1  21
ATOM     21  C   UNL     1      -6.090  -3.452   2.045  0.00  0.00    +0.136 C 
BRANCH  21  28
ATOM     22  N   UNL     1      -2.501  -2.320  -2.800  0.00  0.00    -0.299 N 
ATOM     23  C   UNL     1      -2.638  -3.488  -2.141  0.00  0.00    +0.303 C 
ATOM     24  O   UNL     1      -1.752  -4.319  -2.186  0.00  0.00    -0.253 OA
ATOM     25  N   UNL     1      -3.758  -3.735  -1.433  0.00  0.00    -0.280 N 
ATOM     26  C   UNL     1      -4.892  -2.799  -1.463  0.00  0.00    +0.125 C 
ATOM     27  C   UNL     1      -5.293  -2.472  -0.021  0.00  0.00    +0.104 C 
ATOM     28  N   UNL     1      -5.538  -3.723   0.711  0.00  0.00    -0.294 NA
ATOM     29  C   UNL     1      -4.319  -4.536   0.800  0.00  0.00    +0.107 C 
ATOM     30  C   UNL     1      -3.881  -4.950  -0.613  0.00  0.00    +0.088 C 
ATOM     31  C   UNL     1      -2.529  -5.663  -0.546  0.00  0.00    +0.029 C 
ATOM     32  H   UNL     1      -3.237  -1.688  -2.825  0.00  0.00    +0.150 HD
BRANCH  22  34
ATOM     33  C   UNL     1      -1.349  -0.631  -4.142  0.00  0.00    +0.024 C 
ATOM     34  C   UNL     1      -1.241  -2.005  -3.478  0.00  0.00    +0.102 C 
ENDBRANCH  22  34
ENDBRANCH  21  28
ENDBRANCH   1  21
TORSDOF 7
