REMARK  Name = ZINC34970174
REMARK  9 active torsions:
REMARK  status: ('A' for Active; 'I' for Inactive)
REMARK    1  A    between atoms: C_1  and  C_2
REMARK    2  A    between atoms: C_2  and  C_3
REMARK    3  A    between atoms: C_3  and  C_5
REMARK    4  A    between atoms: C_3  and  C_6
REMARK    5  A    between atoms: C_6  and  C_8
REMARK    6  A    between atoms: C_6  and  N_20
REMARK    7  A    between atoms: N_10  and  C_11
REMARK    8  A    between atoms: N_23  and  C_24
REMARK    9  A    between atoms: C_27  and  N_30
REMARK                            x       y       z     vdW  Elec       q    Type
REMARK                         _______ _______ _______ _____ _____    ______ ____
ROOT
ATOM      1  C   UNL     1       1.698  -2.755  -0.372  0.00  0.00    +0.163 C 
ENDROOT
BRANCH   1   2
ATOM      2  N   UNL     1       2.559  -3.928  -0.200  0.00  0.00    -0.288 N 
ATOM      3  C   UNL     1       3.861  -3.863  -0.542  0.00  0.00    +0.304 C 
ATOM      4  O   UNL     1       4.321  -2.832  -0.993  0.00  0.00    -0.252 OA
ATOM      5  N   UNL     1       4.653  -4.942  -0.385  0.00  0.00    -0.269 N 
ATOM      6  H   UNL     1       2.192  -4.750   0.159  0.00  0.00    +0.151 HD
ATOM      7  H   UNL     1       4.268  -5.793  -0.123  0.00  0.00    +0.156 HD
BRANCH   5   8
ATOM      8  C   UNL     1       6.032  -4.835  -0.599  0.00  0.00    +0.035 A 
ATOM      9  C   UNL     1       6.923  -5.389   0.311  0.00  0.00    +0.025 A 
ATOM     10  C   UNL     1       8.283  -5.282   0.097  0.00  0.00    +0.034 A 
ATOM     11  C   UNL     1       8.758  -4.624  -1.023  0.00  0.00    +0.126 A 
ATOM     12  C   UNL     1       7.874  -4.071  -1.931  0.00  0.00    +0.034 A 
ATOM     13  C   UNL     1       6.513  -4.180  -1.725  0.00  0.00    +0.025 A 
BRANCH  11  14
ATOM     14  N   UNL     1      10.217  -4.511  -1.250  0.00  0.00    +0.056 N 
ATOM     15  O   UNL     1      10.991  -4.994  -0.457  0.00  0.00    -0.126 OA
ATOM     16  O   UNL     1      10.633  -3.937  -2.228  0.00  0.00    -0.126 OA
ENDBRANCH  11  14
ENDBRANCH   5   8
ENDBRANCH   1   2
BRANCH   1  17
ATOM     17  C   UNL     1       0.266  -3.201  -0.522  0.00  0.00    +0.238 C 
ATOM     18  O   UNL     1      -0.058  -4.321  -0.189  0.00  0.00    -0.273 OA
ATOM     19  N   UNL     1      -0.654  -2.355  -1.026  0.00  0.00    -0.284 N 
ATOM     20  H   UNL     1      -0.403  -1.446  -1.256  0.00  0.00    +0.155 HD
BRANCH  19  21
ATOM     21  C   UNL     1      -1.971  -2.787  -1.219  0.00  0.00    +0.034 A 
ATOM     22  C   UNL     1      -2.512  -3.761  -0.391  0.00  0.00    +0.023 A 
ATOM     23  C   UNL     1      -3.812  -4.183  -0.584  0.00  0.00    +0.006 A 
ATOM     24  C   UNL     1      -4.579  -3.639  -1.602  0.00  0.00    -0.044 A 
ATOM     25  C   UNL     1      -4.043  -2.669  -2.428  0.00  0.00    -0.042 A 
ATOM     26  C   UNL     1      -2.742  -2.239  -2.234  0.00  0.00    +0.027 A 
ATOM     27  C   UNL     1      -5.073  -2.241  -3.451  0.00  0.00    +0.036 C 
ATOM     28  C   UNL     1      -6.140  -3.356  -3.440  0.00  0.00    +0.009 C 
ATOM     29  C   UNL     1      -6.007  -3.929  -2.013  0.00  0.00    +0.036 C 
ENDBRANCH  19  21
ENDBRANCH   1  17
BRANCH   1  30
ATOM     30  C   UNL     1       1.823  -1.847   0.853  0.00  0.00    +0.015 C 
ATOM     31  C   UNL     1       1.306  -2.584   2.090  0.00  0.00    +0.010 C 
BRANCH  30  33
ATOM     32  C   UNL     1       3.403  -0.464   2.208  0.00  0.00    +0.004 C 
ATOM     33  C   UNL     1       3.292  -1.470   1.060  0.00  0.00    +0.002 C 
ENDBRANCH  30  33
ENDBRANCH   1  30
TORSDOF 7
