REMARK  Name = ZINC39450828
REMARK  4 active torsions:
REMARK  status: ('A' for Active; 'I' for Inactive)
REMARK    1  A    between atoms: C_4  and  S_7
REMARK    2  A    between atoms: S_7  and  N_10
REMARK    3  A    between atoms: C_18  and  C_21
REMARK    4  A    between atoms: C_26  and  O_27
REMARK                            x       y       z     vdW  Elec       q    Type
REMARK                         _______ _______ _______ _____ _____    ______ ____
ROOT
ATOM      1  N   UNL     1       4.378  -1.079   1.536  0.00  0.00    -0.170 N 
ATOM      2  C   UNL     1       5.232  -0.168   2.143  0.00  0.00    +0.134 A 
ATOM      3  C   UNL     1       5.634  -0.336   3.456  0.00  0.00    +0.085 A 
ATOM      4  C   UNL     1       5.146  -1.487   4.226  0.00  0.00    +0.099 A 
ATOM      5  C   UNL     1       4.276  -2.397   3.586  0.00  0.00    +0.069 A 
ATOM      6  C   UNL     1       3.894  -2.152   2.187  0.00  0.00    +0.281 A 
ATOM      7  O   UNL     1       3.143  -2.922   1.617  0.00  0.00    -0.265 OA
ATOM      8  C   UNL     1       3.797  -3.498   4.293  0.00  0.00    +0.025 A 
ATOM      9  C   UNL     1       4.206  -3.650   5.619  0.00  0.00    +0.004 A 
ATOM     10  C   UNL     1       5.070  -2.705   6.183  0.00  0.00    +0.120 A 
ATOM     11  N   UNL     1       5.505  -1.677   5.491  0.00  0.00    -0.252 NA
ATOM     12  N   UNL     1       6.497   0.575   4.035  0.00  0.00    -0.311 N 
ATOM     13  C   UNL     1       7.409   1.325   3.158  0.00  0.00    +0.259 C 
ATOM     14  C   UNL     1       6.578   1.982   2.050  0.00  0.00    +0.138 C 
ATOM     15  C   UNL     1       5.698   0.943   1.404  0.00  0.00    +0.187 C 
ATOM     16  O   UNL     1       5.386   1.062   0.236  0.00  0.00    -0.290 OA
ATOM     17  F   UNL     1       8.072   2.310   3.898  0.00  0.00    -0.224 F 
ATOM     18  H   UNL     1       6.501   0.716   4.994  0.00  0.00    +0.149 HD
ENDROOT
BRANCH   9  19
ATOM     19  C   UNL     1       3.729  -4.801   6.422  0.00  0.00    +0.025 A 
ATOM     20  C   UNL     1       2.370  -5.107   6.470  0.00  0.00    +0.012 A 
ATOM     21  C   UNL     1       1.932  -6.180   7.218  0.00  0.00    +0.001 A 
ATOM     22  C   UNL     1       2.837  -6.955   7.922  0.00  0.00    +0.004 A 
ATOM     23  C   UNL     1       4.186  -6.662   7.881  0.00  0.00    +0.046 A 
ATOM     24  C   UNL     1       4.642  -5.590   7.130  0.00  0.00    +0.125 A 
BRANCH  24  25
ATOM     25  O   UNL     1       5.969  -5.304   7.085  0.00  0.00    -0.506 OA
ATOM     26  H   UNL     1       6.263  -4.694   7.776  0.00  0.00    +0.292 HD
ENDBRANCH  24  25
ENDBRANCH   9  19
BRANCH   1  27
ATOM     27  S   UNL     1       3.934  -0.832  -0.041  0.00  0.00    +0.087 S 
ATOM     28  O   UNL     1       3.756   0.569  -0.198  0.00  0.00    -0.148 OA
ATOM     29  O   UNL     1       2.902  -1.767  -0.323  0.00  0.00    -0.148 OA
BRANCH  27  33
ATOM     30  C   UNL     1       7.467  -1.984  -2.625  0.00  0.00    +0.000 A 
ATOM     31  C   UNL     1       6.518  -2.931  -2.289  0.00  0.00    +0.002 A 
ATOM     32  C   UNL     1       5.439  -2.579  -1.500  0.00  0.00    +0.029 A 
ATOM     33  C   UNL     1       5.309  -1.280  -1.046  0.00  0.00    +0.111 A 
ATOM     34  C   UNL     1       6.259  -0.333  -1.380  0.00  0.00    +0.029 A 
ATOM     35  C   UNL     1       7.338  -0.685  -2.170  0.00  0.00    +0.002 A 
ENDBRANCH  27  33
ENDBRANCH   1  27
TORSDOF 4
