REMARK  Name = ZINC26600066
REMARK  3 active torsions:
REMARK  status: ('A' for Active; 'I' for Inactive)
REMARK    1  A    between atoms: C_10  and  C_13
REMARK    2  A    between atoms: C_17  and  O_19
REMARK    3  A    between atoms: N_26  and  C_29
REMARK                            x       y       z     vdW  Elec       q    Type
REMARK                         _______ _______ _______ _____ _____    ______ ____
ROOT
ATOM      1  C   UNL     1      -0.925   0.705   2.250  0.00  0.00    +0.002 A 
ATOM      2  C   UNL     1       0.166   1.469   2.624  0.00  0.00    +0.001 A 
ATOM      3  C   UNL     1       1.429   0.939   2.519  0.00  0.00    +0.016 A 
ATOM      4  C   UNL     1       1.645  -0.362   2.042  0.00  0.00    +0.030 A 
ATOM      5  C   UNL     1       0.554  -1.132   1.668  0.00  0.00    +0.045 A 
ATOM      6  C   UNL     1      -0.731  -0.572   1.781  0.00  0.00    +0.024 A 
ATOM      7  N   UNL     1       0.575  -2.413   1.190  0.00  0.00    -0.316 N 
ATOM      8  C   UNL     1       1.382  -3.299   0.722  0.00  0.00    +0.027 C 
ATOM      9  C   UNL     1       2.869  -3.340   0.756  0.00  0.00    +0.071 C 
ATOM     10  C   UNL     1       3.482  -1.983   0.557  0.00  0.00    +0.087 C 
ATOM     11  S   UNL     1       3.306  -0.897   1.964  0.00  0.00    -0.115 S 
ATOM     12  C   UNL     1       0.778  -4.374   0.094  0.00  0.00    +0.117 C 
ATOM     13  C   UNL     1       1.496  -5.642  -0.121  0.00  0.00    +0.258 C 
ATOM     14  N   UNL     1       0.844  -6.647  -0.741  0.00  0.00    -0.235 N 
ATOM     15  H   UNL     1       1.303  -7.489  -0.890  0.00  0.00    +0.159 HD
ATOM     16  C   UNL     1      -0.424  -6.511  -1.153  0.00  0.00    +0.320 C 
ATOM     17  O   UNL     1      -0.955  -7.455  -1.705  0.00  0.00    -0.251 OA
ATOM     18  N   UNL     1      -1.137  -5.388  -0.990  0.00  0.00    -0.190 N 
ATOM     19  C   UNL     1      -0.615  -4.303  -0.382  0.00  0.00    +0.265 C 
ATOM     20  O   UNL     1      -1.274  -3.291  -0.235  0.00  0.00    -0.269 OA
ATOM     21  O   UNL     1       2.647  -5.779   0.249  0.00  0.00    -0.270 OA
ATOM     22  H   UNL     1      -0.324  -2.778   1.212  0.00  0.00    +0.152 HD
ENDROOT
BRANCH  18  23
ATOM     23  C   UNL     1      -2.458  -5.341  -1.456  0.00  0.00    +0.047 A 
ATOM     24  C   UNL     1      -2.724  -4.917  -2.751  0.00  0.00    +0.024 A 
ATOM     25  C   UNL     1      -4.027  -4.872  -3.208  0.00  0.00    +0.003 A 
ATOM     26  C   UNL     1      -5.066  -5.250  -2.378  0.00  0.00    +0.020 A 
ATOM     27  C   UNL     1      -4.804  -5.674  -1.087  0.00  0.00    +0.043 A 
ATOM     28  C   UNL     1      -3.502  -5.726  -0.626  0.00  0.00    +0.044 A 
ATOM     29 CL   UNL     1      -6.112  -6.147  -0.048  0.00  0.00    -0.083 Cl
ENDBRANCH  18  23
BRANCH  10  30
ATOM     30  C   UNL     1       4.951  -2.157   0.268  0.00  0.00    -0.030 A 
ATOM     31  C   UNL     1       5.768  -2.780   1.193  0.00  0.00    +0.005 A 
ATOM     32  C   UNL     1       7.116  -2.941   0.930  0.00  0.00    +0.004 A 
ATOM     33  C   UNL     1       7.649  -2.479  -0.257  0.00  0.00    +0.045 A 
ATOM     34  C   UNL     1       6.832  -1.854  -1.187  0.00  0.00    +0.117 A 
ATOM     35  C   UNL     1       5.478  -1.699  -0.924  0.00  0.00    +0.050 A 
BRANCH  34  36
ATOM     36  O   UNL     1       7.354  -1.399  -2.356  0.00  0.00    -0.507 OA
ATOM     37  H   UNL     1       7.339  -2.047  -3.073  0.00  0.00    +0.292 HD
ENDBRANCH  34  36
ENDBRANCH  10  30
TORSDOF 3
