REMARK  Name = ZINC24105803
REMARK  9 active torsions:
REMARK  status: ('A' for Active; 'I' for Inactive)
REMARK    1  A    between atoms: C_1  and  C_2
REMARK    2  A    between atoms: C_2  and  O_3
REMARK    3  A    between atoms: O_3  and  C_4
REMARK    4  A    between atoms: C_7  and  C_10
REMARK    5  A    between atoms: C_13  and  S_16
REMARK    6  A    between atoms: N_14  and  N_15
REMARK    7  A    between atoms: S_16  and  C_17
REMARK    8  A    between atoms: C_17  and  C_18
REMARK    9  A    between atoms: C_24  and  C_29
REMARK                            x       y       z     vdW  Elec       q    Type
REMARK                         _______ _______ _______ _____ _____    ______ ____
ROOT
ATOM      1  S   UNL     1       2.531  -9.370   3.250  0.00  0.00    -0.077 S 
ENDROOT
BRANCH   1   5
ATOM      2  C   UNL     1       1.142  -6.035   1.762  0.00  0.00    +0.182 A 
ATOM      3  N   UNL     1       0.464  -6.948   1.106  0.00  0.00    -0.127 NA
ATOM      4  N   UNL     1       0.818  -8.120   1.494  0.00  0.00    -0.121 NA
ATOM      5  C   UNL     1       1.744  -8.028   2.422  0.00  0.00    +0.209 A 
ATOM      6  N   UNL     1       1.987  -6.699   2.621  0.00  0.00    -0.224 N 
BRANCH   2  10
ATOM      7  C   UNL     1       0.802  -1.824   1.306  0.00  0.00    +0.121 A 
ATOM      8  C   UNL     1       0.258  -2.670   0.348  0.00  0.00    +0.046 A 
ATOM      9  C   UNL     1       0.366  -4.037   0.493  0.00  0.00    +0.015 A 
ATOM     10  C   UNL     1       1.024  -4.570   1.603  0.00  0.00    +0.021 A 
ATOM     11  C   UNL     1       1.570  -3.716   2.563  0.00  0.00    +0.015 A 
ATOM     12  C   UNL     1       1.462  -2.350   2.409  0.00  0.00    +0.046 A 
BRANCH   7  13
ATOM     13  O   UNL     1       0.693  -0.477   1.160  0.00  0.00    -0.492 OA
BRANCH  13  15
ATOM     14  C   UNL     1      -0.019   1.526   0.010  0.00  0.00    +0.048 C 
ATOM     15  C   UNL     1       0.002  -0.004   0.002  0.00  0.00    +0.225 C 
ENDBRANCH  13  15
ENDBRANCH   7  13
ENDBRANCH   2  10
BRANCH   6  16
ATOM     16  N   UNL     1       2.880  -6.144   3.493  0.00  0.00    -0.295 N 
ATOM     17  H   UNL     1       2.453  -5.978   4.392  0.00  0.00    +0.163 HD
ATOM     18  H   UNL     1       3.702  -6.722   3.585  0.00  0.00    +0.163 HD
ENDBRANCH   6  16
ENDBRANCH   1   5
BRANCH   1  19
ATOM     19  C   UNL     1       1.766 -10.845   2.522  0.00  0.00    +0.151 C 
BRANCH  19  20
ATOM     20  C   UNL     1       2.358 -12.080   3.150  0.00  0.00    +0.121 A 
ATOM     21  N   UNL     1       1.931 -13.304   2.746  0.00  0.00    -0.310 N 
ATOM     22  H   UNL     1       1.251 -13.367   2.058  0.00  0.00    +0.170 HD
ATOM     23  C   UNL     1       2.434 -14.431   3.282  0.00  0.00    +0.260 A 
ATOM     24  O   UNL     1       2.041 -15.523   2.908  0.00  0.00    -0.267 OA
ATOM     25  C   UNL     1       3.438 -14.330   4.297  0.00  0.00    +0.083 A 
ATOM     26  C   UNL     1       4.130 -15.391   5.021  0.00  0.00    +0.039 A 
ATOM     27  C   UNL     1       5.056 -15.048   5.951  0.00  0.00    +0.059 A 
ATOM     28  S   UNL     1       5.048 -13.266   5.903  0.00  0.00    -0.076 S 
ATOM     29  C   UNL     1       3.816 -13.024   4.650  0.00  0.00    +0.116 A 
ATOM     30  N   UNL     1       3.277 -11.955   4.070  0.00  0.00    -0.226 NA
BRANCH  26  31
ATOM     31  C   UNL     1       3.827 -16.811   4.747  0.00  0.00    +0.136 A 
ATOM     32  C   UNL     1       4.739 -17.788   4.498  0.00  0.00    +0.050 A 
ATOM     33  C   UNL     1       4.013 -18.979   4.294  0.00  0.00    +0.042 A 
ATOM     34  C   UNL     1       2.708 -18.674   4.427  0.00  0.00    +0.196 A 
ATOM     35  O   UNL     1       2.599 -17.363   4.707  0.00  0.00    -0.463 OA
ENDBRANCH  26  31
ENDBRANCH  19  20
ENDBRANCH   1  19
TORSDOF 8
