REMARK  Name = ZINC35743154
REMARK  12 active torsions:
REMARK  status: ('A' for Active; 'I' for Inactive)
REMARK    1  A    between atoms: C_1  and  C_2
REMARK    2  A    between atoms: C_7  and  O_8
REMARK    3  A    between atoms: O_8  and  C_9
REMARK    4  A    between atoms: C_9  and  C_10
REMARK    5  A    between atoms: C_10  and  C_12
REMARK    6  A    between atoms: C_10  and  O_36
REMARK    7  A    between atoms: C_12  and  N_13
REMARK    8  A    between atoms: N_13  and  C_14
REMARK    9  A    between atoms: N_13  and  C_22
REMARK   10  A    between atoms: C_14  and  C_15
REMARK   11  A    between atoms: C_22  and  C_23
REMARK   12  A    between atoms: C_26  and  C_29
REMARK                            x       y       z     vdW  Elec       q    Type
REMARK                         _______ _______ _______ _____ _____    ______ ____
ROOT
ATOM      1  N   UNL     1      -0.040   0.137   7.443  0.00  0.00    +0.387 N 
ATOM      2  H   UNL     1       0.655   0.843   7.637  0.00  0.00    -0.081 HD
ENDROOT
BRANCH   1   3
ATOM      3  C   UNL     1       0.371  -0.647   6.271  0.00  0.00    -0.043 C 
BRANCH   3   4
ATOM      4  C   UNL     1       0.629   0.295   5.093  0.00  0.00    +0.135 C 
BRANCH   4   5
ATOM      5  O   UNL     1       1.742   1.139   5.392  0.00  0.00    -0.390 OA
ATOM      6  H   UNL     1       2.565   0.660   5.560  0.00  0.00    +0.210 HD
ENDBRANCH   4   5
BRANCH   4   7
ATOM      7  C   UNL     1       0.935  -0.528   3.840  0.00  0.00    +0.258 C 
BRANCH   7   8
ATOM      8  O   UNL     1       1.061   0.345   2.716  0.00  0.00    -0.489 OA
BRANCH   8  15
ATOM      9  C   UNL     1       1.313   2.053   0.480  0.00  0.00    +0.047 C 
ATOM     10  C   UNL     1       1.470   0.558   0.382  0.00  0.00    -0.009 A 
ATOM     11  C   UNL     1       1.754  -0.029  -0.836  0.00  0.00    +0.007 A 
ATOM     12  C   UNL     1       1.898  -1.401  -0.927  0.00  0.00    +0.000 A 
ATOM     13  C   UNL     1       1.758  -2.189   0.200  0.00  0.00    +0.004 A 
ATOM     14  C   UNL     1       1.474  -1.608   1.420  0.00  0.00    +0.046 A 
ATOM     15  C   UNL     1       1.335  -0.230   1.515  0.00  0.00    +0.124 A 
ENDBRANCH   8  15
ENDBRANCH   7   8
ENDBRANCH   4   7
ENDBRANCH   3   4
ENDBRANCH   1   3
BRANCH   1  16
ATOM     16  C   UNL     1      -1.331   0.783   7.173  0.00  0.00    -0.043 C 
BRANCH  16  17
ATOM     17  C   UNL     1      -2.358  -0.268   6.839  0.00  0.00    -0.063 A 
ATOM     18  C   UNL     1      -2.510  -0.697   5.533  0.00  0.00    +0.002 A 
ATOM     19  C   UNL     1      -3.451  -1.661   5.227  0.00  0.00    +0.002 A 
ATOM     20  C   UNL     1      -4.243  -2.197   6.225  0.00  0.00    +0.020 A 
ATOM     21  C   UNL     1      -4.092  -1.768   7.532  0.00  0.00    +0.041 A 
ATOM     22  C   UNL     1      -3.144  -0.808   7.839  0.00  0.00    +0.021 A 
ATOM     23 CL   UNL     1      -5.085  -2.441   8.787  0.00  0.00    -0.084 Cl
ENDBRANCH  16  17
ENDBRANCH   1  16
BRANCH   1  24
ATOM     24  C   UNL     1      -0.171  -0.752   8.605  0.00  0.00    -0.030 C 
BRANCH  24  25
ATOM     25  C   UNL     1      -0.376   0.086   9.869  0.00  0.00    +0.194 C 
ATOM     26  C   UNL     1      -0.521  -0.818  11.116  0.00  0.00    +0.104 C 
ATOM     27  C   UNL     1      -1.573  -0.089  11.930  0.00  0.00    +0.091 C 
ATOM     28  N   UNL     1      -2.156   0.769  11.163  0.00  0.00    -0.089 NA
ATOM     29  O   UNL     1      -1.652   0.758   9.841  0.00  0.00    -0.392 OA
BRANCH  27  30
ATOM     30  C   UNL     1      -1.878  -0.323  13.356  0.00  0.00    -0.000 A 
ATOM     31  C   UNL     1      -1.166  -1.283  14.077  0.00  0.00    +0.011 A 
ATOM     32  C   UNL     1      -1.455  -1.496  15.409  0.00  0.00    +0.020 A 
ATOM     33  C   UNL     1      -2.450  -0.760  16.030  0.00  0.00    +0.041 A 
ATOM     34  C   UNL     1      -3.160   0.194  15.320  0.00  0.00    +0.020 A 
ATOM     35  C   UNL     1      -2.876   0.420  13.990  0.00  0.00    +0.011 A 
ATOM     36 CL   UNL     1      -2.809  -1.034  17.707  0.00  0.00    -0.084 Cl
ENDBRANCH  27  30
ENDBRANCH  24  25
ENDBRANCH   1  24
TORSDOF 11
