REMARK  Name = ZINC00959855
REMARK  4 active torsions:
REMARK  status: ('A' for Active; 'I' for Inactive)
REMARK    1  A    between atoms: C_4  and  C_7
REMARK    2  A    between atoms: C_7  and  S_8
REMARK    3  A    between atoms: S_8  and  C_9
REMARK    4  A    between atoms: C_20  and  C_22
REMARK                            x       y       z     vdW  Elec       q    Type
REMARK                         _______ _______ _______ _____ _____    ______ ____
ROOT
ATOM      1  C   UNL     1       5.740  -1.842  -1.482  0.00  0.00    +0.171 A 
ATOM      2  N   UNL     1       6.472  -2.258  -2.553  0.00  0.00    -0.302 N 
ATOM      3  H   UNL     1       6.154  -2.085  -3.453  0.00  0.00    +0.171 HD
ATOM      4  C   UNL     1       7.640  -2.907  -2.365  0.00  0.00    +0.258 A 
ATOM      5  O   UNL     1       8.306  -3.278  -3.318  0.00  0.00    -0.267 OA
ATOM      6  C   UNL     1       8.072  -3.149  -1.056  0.00  0.00    +0.069 A 
ATOM      7  C   UNL     1       7.290  -2.710  -0.002  0.00  0.00    +0.135 A 
ATOM      8  N   UNL     1       6.143  -2.067  -0.247  0.00  0.00    -0.208 NA
ATOM      9  N   UNL     1       7.702  -2.936   1.297  0.00  0.00    -0.302 N 
ATOM     10  C   UNL     1       9.010  -3.225   1.573  0.00  0.00    +0.017 C 
ATOM     11  C   UNL     1       9.844  -3.663   0.607  0.00  0.00    +0.024 C 
ATOM     12  C   UNL     1       9.360  -3.876  -0.805  0.00  0.00    +0.093 C 
ATOM     13  C   UNL     1      11.193  -3.942   0.887  0.00  0.00    +0.162 C 
ATOM     14  O   UNL     1      11.916  -4.341  -0.004  0.00  0.00    -0.292 OA
ATOM     15  C   UNL     1      11.760  -3.756   2.267  0.00  0.00    +0.080 C 
ATOM     16  C   UNL     1      10.973  -2.655   2.986  0.00  0.00    +0.014 C 
ATOM     17  C   UNL     1       9.493  -3.045   2.992  0.00  0.00    +0.051 C 
ATOM     18  H   UNL     1       7.057  -2.890   2.020  0.00  0.00    +0.153 HD
ENDROOT
BRANCH  12  19
ATOM     19  C   UNL     1       9.148  -5.350  -1.038  0.00  0.00    -0.032 A 
ATOM     20  C   UNL     1       8.243  -6.047  -0.259  0.00  0.00    +0.008 A 
ATOM     21  C   UNL     1       8.044  -7.399  -0.469  0.00  0.00    +0.050 A 
ATOM     22  C   UNL     1       8.753  -8.059  -1.460  0.00  0.00    +0.166 A 
ATOM     23  C   UNL     1       9.665  -7.356  -2.244  0.00  0.00    +0.167 A 
ATOM     24  C   UNL     1       9.854  -6.000  -2.032  0.00  0.00    +0.054 A 
ATOM     25  O   UNL     1      10.227  -8.219  -3.139  0.00  0.00    -0.453 OA
ATOM     26  C   UNL     1       9.954  -9.537  -2.626  0.00  0.00    +0.466 C 
ATOM     27  O   UNL     1       8.745  -9.363  -1.864  0.00  0.00    -0.453 OA
ENDBRANCH  12  19
BRANCH   1  28
ATOM     28  S   UNL     1       4.221  -0.993  -1.752  0.00  0.00    -0.083 S 
BRANCH  28  29
ATOM     29  C   UNL     1       3.711  -0.707  -0.039  0.00  0.00    +0.112 C 
BRANCH  29  33
ATOM     30  C   UNL     1      -0.017   1.378   0.010  0.00  0.00    +0.000 A 
ATOM     31  C   UNL     1       1.171   2.086   0.002  0.00  0.00    +0.000 A 
ATOM     32  C   UNL     1       2.377   1.411  -0.014  0.00  0.00    +0.004 A 
ATOM     33  C   UNL     1       2.396   0.029  -0.022  0.00  0.00    -0.037 A 
ATOM     34  C   UNL     1       1.208  -0.679  -0.014  0.00  0.00    +0.004 A 
ATOM     35  C   UNL     1       0.002  -0.004   0.002  0.00  0.00    +0.000 A 
ENDBRANCH  29  33
ENDBRANCH  28  29
ENDBRANCH   1  28
TORSDOF 4
