REMARK  Name = ZINC63009971
REMARK  2 active torsions:
REMARK  status: ('A' for Active; 'I' for Inactive)
REMARK    1  A    between atoms: C_7  and  C_10
REMARK    2  A    between atoms: C_13  and  N_17
REMARK                            x       y       z     vdW  Elec       q    Type
REMARK                         _______ _______ _______ _____ _____    ______ ____
ROOT
ATOM      1  C   UNL     1       0.664  -3.131  -0.021  0.00  0.00    +0.022 A 
ATOM      2  C   UNL     1      -0.706  -2.951  -0.223  0.00  0.00    +0.013 A 
ATOM      3  C   UNL     1      -1.551  -4.040  -0.220  0.00  0.00    +0.026 A 
ATOM      4  C   UNL     1      -1.042  -5.317  -0.017  0.00  0.00    +0.060 A 
ATOM      5  C   UNL     1       0.323  -5.501   0.185  0.00  0.00    +0.145 A 
ATOM      6  C   UNL     1       1.175  -4.416   0.177  0.00  0.00    +0.051 A 
ATOM      7  F   UNL     1       0.815  -6.744   0.382  0.00  0.00    -0.204 F 
ENDROOT
BRANCH   1  14
ATOM      8  C   UNL     1       0.023   1.323   0.540  0.00  0.00    +0.038 A 
ATOM      9  C   UNL     1       1.230   2.032   0.448  0.00  0.00    +0.116 A 
ATOM     10  N   UNL     1       2.358   1.399   0.224  0.00  0.00    -0.219 NA
ATOM     11  C   UNL     1       2.381   0.068   0.080  0.00  0.00    +0.256 A 
ATOM     12  N   UNL     1       3.356  -0.799  -0.148  0.00  0.00    -0.108 NA
ATOM     13  N   UNL     1       2.877  -1.991  -0.208  0.00  0.00    -0.127 NA
ATOM     14  C   UNL     1       1.573  -1.966  -0.024  0.00  0.00    +0.170 A 
ATOM     15  N   UNL     1       1.217  -0.658   0.165  0.00  0.00    -0.267 N 
ATOM     16  C   UNL     1       0.031  -0.026   0.396  0.00  0.00    +0.098 A 
ENDBRANCH   1  14
BRANCH   4  17
ATOM     17  N   UNL     1      -1.902  -6.419  -0.014  0.00  0.00    -0.356 N 
ATOM     18  H   UNL     1      -2.854  -6.291  -0.154  0.00  0.00    +0.142 HD
ATOM     19  H   UNL     1      -1.548  -7.310   0.128  0.00  0.00    +0.142 HD
ENDBRANCH   4  17
TORSDOF 2
