REMARK  Name = ZINC05688904
REMARK  4 active torsions:
REMARK  status: ('A' for Active; 'I' for Inactive)
REMARK    1  A    between atoms: C_1  and  N_2
REMARK    2  A    between atoms: N_4  and  C_5
REMARK    3  A    between atoms: C_14  and  C_17
REMARK    4  A    between atoms: C_20  and  N_23
REMARK                            x       y       z     vdW  Elec       q    Type
REMARK                         _______ _______ _______ _____ _____    ______ ____
ROOT
ATOM      1  C   UNL     1      -1.532   0.366  -2.626  0.00  0.00    +0.141 C 
ATOM      2  N   UNL     1      -1.072  -0.612  -1.637  0.00  0.00    -0.369 N 
ATOM      3  C   UNL     1       0.265  -0.834  -1.466  0.00  0.00    +0.151 C 
ATOM      4  N   UNL     1       1.180  -0.053  -2.128  0.00  0.00    -0.230 N 
ATOM      5  C   UNL     1       1.060   1.324  -2.105  0.00  0.00    +0.141 C 
ATOM      6  N   UNL     1       0.758   2.072  -1.084  0.00  0.00    -0.366 N 
ATOM      7  C   UNL     1       0.642   3.513  -1.212  0.00  0.00    +0.133 C 
ATOM      8  C   UNL     1       1.347   4.018  -2.500  0.00  0.00    +0.103 C 
ATOM      9  S   UNL     1       1.291   2.452  -3.470  0.00  0.00    -0.082 S 
ATOM     10  S   UNL     1       0.782  -2.047  -0.459  0.00  0.00    -0.015 SA
ATOM     11  H   UNL     1      -1.718  -1.102  -1.104  0.00  0.00    +0.161 HD
ATOM     12  H   UNL     1       0.609   1.657  -0.219  0.00  0.00    +0.161 HD
ENDROOT
BRANCH   4  13
ATOM     13  C   UNL     1       2.237  -0.652  -2.826  0.00  0.00    +0.042 A 
ATOM     14  C   UNL     1       3.245   0.133  -3.370  0.00  0.00    +0.024 A 
ATOM     15  C   UNL     1       4.285  -0.461  -4.058  0.00  0.00    +0.002 A 
ATOM     16  C   UNL     1       4.324  -1.835  -4.205  0.00  0.00    +0.000 A 
ATOM     17  C   UNL     1       3.321  -2.620  -3.665  0.00  0.00    +0.002 A 
ATOM     18  C   UNL     1       2.282  -2.033  -2.971  0.00  0.00    +0.024 A 
ENDBRANCH   4  13
BRANCH   8  19
ATOM     19  C   UNL     1       0.562   5.118  -3.168  0.00  0.00    -0.032 A 
ATOM     20  C   UNL     1      -0.731   4.881  -3.598  0.00  0.00    +0.007 A 
ATOM     21  C   UNL     1      -1.451   5.890  -4.210  0.00  0.00    +0.033 A 
ATOM     22  C   UNL     1      -0.879   7.135  -4.391  0.00  0.00    +0.126 A 
ATOM     23  C   UNL     1       0.413   7.372  -3.960  0.00  0.00    +0.033 A 
ATOM     24  C   UNL     1       1.132   6.364  -3.345  0.00  0.00    +0.007 A 
BRANCH  22  25
ATOM     25  N   UNL     1      -1.650   8.215  -5.048  0.00  0.00    +0.056 N 
ATOM     26  O   UNL     1      -2.780   8.008  -5.425  0.00  0.00    -0.126 OA
ATOM     27  O   UNL     1      -1.150   9.304  -5.207  0.00  0.00    -0.126 OA
ENDBRANCH  22  25
ENDBRANCH   8  19
TORSDOF 3
