REMARK  Name = ZINC08620706
REMARK  8 active torsions:
REMARK  status: ('A' for Active; 'I' for Inactive)
REMARK    1  A    between atoms: C_1  and  C_2
REMARK    2  A    between atoms: C_2  and  C_3
REMARK    3  A    between atoms: C_2  and  N_4
REMARK    4  A    between atoms: C_8  and  C_10
REMARK    5  A    between atoms: C_10  and  O_11
REMARK    6  A    between atoms: O_11  and  C_12
REMARK    7  A    between atoms: C_12  and  C_14
REMARK    8  A    between atoms: C_27  and  C_28
REMARK                            x       y       z     vdW  Elec       q    Type
REMARK                         _______ _______ _______ _____ _____    ______ ____
ROOT
ATOM      1  C   UNL     1       8.367  -2.120  -4.187  0.00  0.00    +0.073 A 
ATOM      2  C   UNL     1       9.027  -3.331  -3.696  0.00  0.00    +0.015 A 
ATOM      3  C   UNL     1       8.302  -4.480  -3.369  0.00  0.00    +0.011 A 
ATOM      4  C   UNL     1       8.959  -5.586  -2.916  0.00  0.00    +0.001 A 
ATOM      5  C   UNL     1      10.345  -5.583  -2.775  0.00  0.00    +0.002 A 
ATOM      6  C   UNL     1      11.081  -4.481  -3.084  0.00  0.00    +0.028 A 
ATOM      7  C   UNL     1      10.438  -3.321  -3.556  0.00  0.00    +0.072 A 
ATOM      8  N   UNL     1      11.132  -2.228  -3.867  0.00  0.00    -0.247 NA
ATOM      9  C   UNL     1      10.562  -1.113  -4.316  0.00  0.00    +0.072 A 
ATOM     10  C   UNL     1       9.169  -1.030  -4.492  0.00  0.00    -0.007 A 
ATOM     11  C   UNL     1       8.802   0.337  -5.014  0.00  0.00    +0.043 C 
ATOM     12  C   UNL     1      10.120   1.111  -5.154  0.00  0.00    +0.042 C 
ATOM     13  C   UNL     1      11.197   0.160  -4.696  0.00  0.00    -0.018 C 
ATOM     14  C   UNL     1      12.520   0.426  -4.654  0.00  0.00    +0.052 C 
ENDROOT
BRANCH  14  15
ATOM     15  C   UNL     1      13.015   1.741  -5.062  0.00  0.00    +0.128 A 
ATOM     16  C   UNL     1      14.323   2.139  -5.073  0.00  0.00    +0.049 A 
ATOM     17  C   UNL     1      14.337   3.467  -5.533  0.00  0.00    +0.042 A 
ATOM     18  C   UNL     1      13.056   3.816  -5.779  0.00  0.00    +0.195 A 
ATOM     19  O   UNL     1      12.262   2.771  -5.500  0.00  0.00    -0.464 OA
ENDBRANCH  14  15
BRANCH   1  20
ATOM     20  C   UNL     1       6.900  -2.063  -4.357  0.00  0.00    +0.341 C 
ATOM     21  O   UNL     1       6.398  -2.390  -5.414  0.00  0.00    -0.245 OA
BRANCH  20  22
ATOM     22  O   UNL     1       6.120  -1.648  -3.341  0.00  0.00    -0.452 OA
BRANCH  22  23
ATOM     23  C   UNL     1       4.710  -1.618  -3.575  0.00  0.00    +0.328 C 
BRANCH  23  28
ATOM     24  N   UNL     1       0.688  -0.476  -1.203  0.00  0.00    -0.297 N 
ATOM     25  C   UNL     1       2.031  -0.587  -1.215  0.00  0.00    +0.306 C 
ATOM     26  O   UNL     1       2.673  -0.295  -0.226  0.00  0.00    -0.252 OA
ATOM     27  N   UNL     1       2.662  -1.022  -2.324  0.00  0.00    -0.237 N 
ATOM     28  C   UNL     1       4.005  -1.132  -2.335  0.00  0.00    +0.258 C 
ATOM     29  O   UNL     1       4.646  -0.841  -1.348  0.00  0.00    -0.272 OA
ATOM     30  H   UNL     1       0.175  -0.710  -1.993  0.00  0.00    +0.151 HD
ATOM     31  H   UNL     1       2.149  -1.255  -3.114  0.00  0.00    +0.159 HD
BRANCH  24  33
ATOM     32  C   UNL     1      -0.019   1.526   0.010  0.00  0.00    +0.027 C 
ATOM     33  C   UNL     1       0.002  -0.004   0.002  0.00  0.00    +0.068 C 
ATOM     34  C   UNL     1      -1.433  -0.534   0.013  0.00  0.00    +0.027 C 
ENDBRANCH  24  33
ENDBRANCH  23  28
ENDBRANCH  22  23
ENDBRANCH  20  22
ENDBRANCH   1  20
TORSDOF 6
