REMARK  Name = ZINC13640715
REMARK  8 active torsions:
REMARK  status: ('A' for Active; 'I' for Inactive)
REMARK    1  A    between atoms: C_1  and  O_2
REMARK    2  A    between atoms: O_2  and  C_3
REMARK    3  A    between atoms: C_5  and  C_13
REMARK    4  A    between atoms: C_7  and  O_11
REMARK    5  A    between atoms: C_8  and  O_9
REMARK    6  A    between atoms: O_9  and  C_10
REMARK    7  A    between atoms: O_11  and  C_12
REMARK    8  A    between atoms: C_24  and  C_29
REMARK                            x       y       z     vdW  Elec       q    Type
REMARK                         _______ _______ _______ _____ _____    ______ ____
ROOT
ATOM      1  C   UNL     1       0.123   1.819   2.421  0.00  0.00    +0.105 C 
ATOM      2  C   UNL     1      -0.800   1.616   1.230  0.00  0.00    +0.029 C 
ATOM      3  C   UNL     1      -0.013   1.086   0.008  0.00  0.00    +0.033 C 
ATOM      4  C   UNL     1      -0.808   1.619  -1.170  0.00  0.00    -0.030 C 
ATOM      5  C   UNL     1      -1.528   2.651  -0.808  0.00  0.00    -0.023 C 
ATOM      6  C   UNL     1      -1.312   2.958   0.668  0.00  0.00    +0.049 C 
ATOM      7  C   UNL     1      -0.285   4.056   0.755  0.00  0.00    -0.019 A 
ATOM      8  C   UNL     1      -0.575   5.263   0.145  0.00  0.00    +0.019 A 
ATOM      9  C   UNL     1       0.342   6.314   0.190  0.00  0.00    +0.037 A 
ATOM     10  C   UNL     1       1.561   6.149   0.855  0.00  0.00    +0.015 A 
ATOM     11  C   UNL     1       1.845   4.949   1.463  0.00  0.00    +0.024 A 
ATOM     12  C   UNL     1       0.924   3.904   1.416  0.00  0.00    +0.031 A 
ATOM     13  N   UNL     1       1.234   2.703   2.051  0.00  0.00    -0.336 N 
ATOM     14  H   UNL     1       2.153   2.459   2.240  0.00  0.00    +0.147 HD
ENDROOT
BRANCH   1  17
ATOM     15  C   UNL     1      -1.849   2.215   5.620  0.00  0.00    +0.165 A 
ATOM     16  C   UNL     1      -1.130   1.647   4.579  0.00  0.00    +0.055 A 
ATOM     17  C   UNL     1      -0.658   2.440   3.550  0.00  0.00    -0.020 A 
ATOM     18  C   UNL     1      -0.895   3.801   3.556  0.00  0.00    +0.055 A 
ATOM     19  C   UNL     1      -1.619   4.376   4.590  0.00  0.00    +0.165 A 
ATOM     20  C   UNL     1      -2.095   3.583   5.628  0.00  0.00    +0.204 A 
BRANCH  15  22
ATOM     21  C   UNL     1      -2.022   0.037   6.560  0.00  0.00    +0.277 C 
ATOM     22  O   UNL     1      -2.313   1.435   6.633  0.00  0.00    -0.491 OA
ENDBRANCH  15  22
BRANCH  20  23
ATOM     23  O   UNL     1      -2.801   4.144   6.647  0.00  0.00    -0.488 OA
ATOM     24  C   UNL     1      -2.055   4.602   7.777  0.00  0.00    +0.277 C 
ENDBRANCH  20  23
BRANCH  19  25
ATOM     25  O   UNL     1      -1.857   5.715   4.593  0.00  0.00    -0.491 OA
ATOM     26  C   UNL     1      -1.338   6.468   3.495  0.00  0.00    +0.277 C 
ENDBRANCH  19  25
ENDBRANCH   1  17
BRANCH   9  27
ATOM     27  C   UNL     1       0.026   7.598  -0.465  0.00  0.00    +0.242 C 
ATOM     28  O   UNL     1      -1.034   7.740  -1.043  0.00  0.00    -0.270 OA
ATOM     29  N   UNL     1       0.911   8.613  -0.421  0.00  0.00    -0.325 N 
ATOM     30  H   UNL     1       1.757   8.499   0.041  0.00  0.00    +0.145 HD
ATOM     31  H   UNL     1       0.703   9.457  -0.851  0.00  0.00    +0.145 HD
ENDBRANCH   9  27
TORSDOF 5
