REMARK  Name = ZINC24992561
REMARK  8 active torsions:
REMARK  status: ('A' for Active; 'I' for Inactive)
REMARK    1  A    between atoms: C_1  and  C_2
REMARK    2  A    between atoms: C_2  and  C_4
REMARK    3  A    between atoms: C_2  and  N_19
REMARK    4  A    between atoms: N_6  and  C_7
REMARK    5  A    between atoms: C_8  and  C_17
REMARK    6  A    between atoms: N_19  and  C_20
REMARK    7  A    between atoms: C_23  and  O_26
REMARK    8  A    between atoms: O_26  and  C_27
REMARK                            x       y       z     vdW  Elec       q    Type
REMARK                         _______ _______ _______ _____ _____    ______ ____
ROOT
ATOM      1  C   UNL     1      -3.579   2.189   0.631  0.00  0.00    +0.238 C 
ATOM      2  O   UNL     1      -3.319   3.306   1.026  0.00  0.00    -0.273 OA
ATOM      3  N   UNL     1      -4.835   1.711   0.739  0.00  0.00    -0.277 N 
ATOM      4  H   UNL     1      -5.070   0.698   0.381  0.00  0.00    +0.155 HD
ENDROOT
BRANCH   3   5
ATOM      5  C   UNL     1      -5.830   2.498   1.301  0.00  0.00    +0.090 A 
ATOM      6  C   UNL     1      -7.166   2.187   1.496  0.00  0.00    +0.084 A 
ATOM      7  C   UNL     1      -8.014   3.196   2.116  0.00  0.00    -0.018 A 
ATOM      8  C   UNL     1      -7.388   4.351   2.429  0.00  0.00    -0.004 A 
ATOM      9  S   UNL     1      -5.704   4.104   1.936  0.00  0.00    -0.077 S 
ATOM     10  C   UNL     1      -7.981   5.574   3.056  0.00  0.00    +0.043 C 
ATOM     11  C   UNL     1      -8.800   5.163   4.288  0.00  0.00    +0.005 C 
ATOM     12  C   UNL     1     -10.230   4.874   3.843  0.00  0.00    +0.001 C 
ATOM     13  C   UNL     1     -10.235   4.290   2.432  0.00  0.00    +0.005 C 
ATOM     14  C   UNL     1      -9.491   2.959   2.403  0.00  0.00    +0.037 C 
BRANCH   6  15
ATOM     15  C   UNL     1      -7.695   0.916   1.101  0.00  0.00    +0.102 C 
ATOM     16  N   UNL     1      -8.115  -0.092   0.788  0.00  0.00    -0.191 NA
ENDBRANCH   6  15
ENDBRANCH   3   5
BRANCH   1  18
ATOM     17  C   UNL     1      -2.881   0.976  -1.416  0.00  0.00    +0.038 C 
ATOM     18  C   UNL     1      -2.497   1.335   0.021  0.00  0.00    +0.154 C 
BRANCH  18  19
ATOM     19  N   UNL     1      -1.233   2.075   0.019  0.00  0.00    -0.332 N 
ATOM     20  H   UNL     1      -1.240   3.175   0.025  0.00  0.00    +0.147 HD
BRANCH  19  21
ATOM     21  C   UNL     1      -0.017   1.383   0.010  0.00  0.00    +0.046 A 
ATOM     22  C   UNL     1       1.191   2.078   0.002  0.00  0.00    +0.029 A 
ATOM     23  C   UNL     1       2.369   1.352  -0.013  0.00  0.00    +0.069 A 
ATOM     24  C   UNL     1       2.309  -0.036  -0.020  0.00  0.00    +0.214 A 
ATOM     25  N   UNL     1       1.145  -0.663  -0.012  0.00  0.00    -0.219 NA
ATOM     26  C   UNL     1       0.002  -0.004   0.002  0.00  0.00    +0.137 A 
BRANCH  24  27
ATOM     27  O   UNL     1       3.459  -0.757  -0.035  0.00  0.00    -0.480 OA
ATOM     28  C   UNL     1       3.333  -2.180  -0.042  0.00  0.00    +0.279 C 
ENDBRANCH  24  27
ENDBRANCH  19  21
ENDBRANCH  18  19
ENDBRANCH   1  18
TORSDOF 6
