REMARK  Name = ZINC66396576
REMARK  8 active torsions:
REMARK  status: ('A' for Active; 'I' for Inactive)
REMARK    1  A    between atoms: C_1  and  C_2
REMARK    2  A    between atoms: C_2  and  C_3
REMARK    3  A    between atoms: C_2  and  C_4
REMARK    4  A    between atoms: C_2  and  C_5
REMARK    5  A    between atoms: C_8  and  C_11
REMARK    6  A    between atoms: C_11  and  C_13
REMARK    7  A    between atoms: C_11  and  N_15
REMARK    8  A    between atoms: C_16  and  C_18
REMARK                            x       y       z     vdW  Elec       q    Type
REMARK                         _______ _______ _______ _____ _____    ______ ____
ROOT
ATOM      1  N   UNL     1       4.082  -2.245  -4.415  0.00  0.00    -0.291 N 
ATOM      2  C   UNL     1       4.739  -3.145  -5.173  0.00  0.00    +0.262 C 
ATOM      3  O   UNL     1       4.191  -3.644  -6.136  0.00  0.00    -0.269 OA
ATOM      4  H   UNL     1       4.519  -1.848  -3.646  0.00  0.00    +0.151 HD
ENDROOT
BRANCH   2   5
ATOM      5  C   UNL     1       6.130  -3.527  -4.832  0.00  0.00    +0.106 A 
ATOM      6  C   UNL     1       6.718  -2.961  -3.748  0.00  0.00    +0.082 A 
ATOM      7  C   UNL     1       8.050  -3.310  -3.400  0.00  0.00    +0.190 A 
ATOM      8  O   UNL     1       8.598  -2.814  -2.431  0.00  0.00    -0.287 OA
ATOM      9  C   UNL     1       8.748  -4.291  -4.248  0.00  0.00    +0.045 A 
ATOM     10  C   UNL     1      10.058  -4.688  -3.974  0.00  0.00    +0.014 A 
ATOM     11  C   UNL     1      10.673  -5.601  -4.783  0.00  0.00    +0.001 A 
ATOM     12  C   UNL     1      10.005  -6.138  -5.876  0.00  0.00    +0.002 A 
ATOM     13  C   UNL     1       8.713  -5.760  -6.166  0.00  0.00    +0.026 A 
ATOM     14  C   UNL     1       8.066  -4.831  -5.354  0.00  0.00    +0.051 A 
ATOM     15  N   UNL     1       6.774  -4.441  -5.615  0.00  0.00    -0.350 N 
ATOM     16  H   UNL     1       6.310  -4.821  -6.377  0.00  0.00    +0.166 HD
ENDBRANCH   2   5
BRANCH   1  17
ATOM     17  C   UNL     1       2.707  -1.868  -4.752  0.00  0.00    +0.207 C 
BRANCH  17  21
ATOM     18  C   UNL     1       0.707  -0.490  -1.238  0.00  0.00    -0.042 A 
ATOM     19  C   UNL     1       0.036  -1.284  -2.148  0.00  0.00    +0.004 A 
ATOM     20  C   UNL     1       0.683  -1.730  -3.286  0.00  0.00    +0.007 A 
ATOM     21  C   UNL     1       2.001  -1.381  -3.513  0.00  0.00    -0.013 A 
ATOM     22  C   UNL     1       2.672  -0.586  -2.603  0.00  0.00    +0.007 A 
ATOM     23  C   UNL     1       2.024  -0.137  -1.467  0.00  0.00    +0.004 A 
BRANCH  18  25
ATOM     24  C   UNL     1      -0.019   1.526   0.010  0.00  0.00    +0.015 C 
ATOM     25  C   UNL     1       0.002  -0.004   0.002  0.00  0.00    -0.013 C 
ATOM     26  C   UNL     1       0.742  -0.511   1.242  0.00  0.00    +0.015 C 
ATOM     27  C   UNL     1      -1.433  -0.534   0.013  0.00  0.00    +0.015 C 
ENDBRANCH  18  25
ENDBRANCH  17  21
BRANCH  17  28
ATOM     28  C   UNL     1       2.726  -0.795  -5.760  0.00  0.00    +0.090 C 
ATOM     29  N   UNL     1       2.740   0.033  -6.537  0.00  0.00    -0.194 NA
ENDBRANCH  17  28
ENDBRANCH   1  17
TORSDOF 5
