REMARK  Name = ZINC34783469
REMARK  12 active torsions:
REMARK  status: ('A' for Active; 'I' for Inactive)
REMARK    1  A    between atoms: C_1  and  C_2
REMARK    2  A    between atoms: C_2  and  N_3
REMARK    3  A    between atoms: N_3  and  C_4
REMARK    4  A    between atoms: N_3  and  N_6
REMARK    5  A    between atoms: C_4  and  C_5
REMARK    6  A    between atoms: N_6  and  N_29
REMARK    7  A    between atoms: C_17  and  C_22
REMARK    8  A    between atoms: C_19  and  C_21
REMARK    9  A    between atoms: C_25  and  C_27
REMARK   10  A    between atoms: C_25  and  C_28
REMARK   11  A    between atoms: N_29  and  C_30
REMARK   12  A    between atoms: C_35  and  C_36
REMARK                            x       y       z     vdW  Elec       q    Type
REMARK                         _______ _______ _______ _____ _____    ______ ____
ROOT
ATOM      1  N   UNL     1      -0.359   0.354  -2.301  0.00  0.00    -0.164 N 
ATOM      2  C   UNL     1      -0.002   1.302  -3.242  0.00  0.00    +0.167 A 
ATOM      3  C   UNL     1      -0.966   1.803  -4.161  0.00  0.00    +0.054 A 
ATOM      4  C   UNL     1      -2.380   1.456  -4.288  0.00  0.00    -0.020 A 
ATOM      5  C   UNL     1      -3.083   2.084  -5.255  0.00  0.00    +0.021 A 
ATOM      6  S   UNL     1      -1.922   3.162  -6.043  0.00  0.00    -0.071 S 
ATOM      7  C   UNL     1      -0.489   2.767  -5.074  0.00  0.00    +0.116 A 
ATOM      8  N   UNL     1       0.767   3.165  -5.065  0.00  0.00    -0.203 NA
ATOM      9  C   UNL     1       1.621   2.662  -4.186  0.00  0.00    +0.254 A 
ATOM     10  N   UNL     1       1.239   1.757  -3.295  0.00  0.00    -0.192 NA
ATOM     11  N   UNL     1       2.946   3.097  -4.194  0.00  0.00    -0.202 N 
ATOM     12  C   UNL     1       3.481   4.021  -5.034  0.00  0.00    +0.045 A 
ATOM     13  C   UNL     1       4.788   4.157  -4.715  0.00  0.00    +0.048 A 
ATOM     14  C   UNL     1       5.064   3.293  -3.648  0.00  0.00    +0.061 A 
ATOM     15  N   UNL     1       3.963   2.664  -3.332  0.00  0.00    -0.169 NA
ATOM     16  C   UNL     1       6.402   3.123  -2.976  0.00  0.00    +0.067 C 
ATOM     17  C   UNL     1       2.750   4.760  -6.126  0.00  0.00    +0.066 C 
ATOM     18  C   UNL     1      -4.534   1.885  -5.566  0.00  0.00    +0.203 C 
ATOM     19  O   UNL     1      -4.973   0.697  -4.887  0.00  0.00    -0.368 OA
ATOM     20  C   UNL     1      -4.588   0.652  -3.510  0.00  0.00    +0.068 C 
ATOM     21  C   UNL     1      -3.077   0.435  -3.392  0.00  0.00    +0.071 C 
ATOM     22  C   UNL     1      -5.322  -0.496  -2.816  0.00  0.00    +0.041 C 
ATOM     23  C   UNL     1      -4.965   1.973  -2.836  0.00  0.00    +0.041 C 
ENDROOT
BRANCH   1  24
ATOM     24  N   UNL     1      -1.292   0.672  -1.306  0.00  0.00    -0.248 N 
ATOM     25  H   UNL     1      -2.092   0.134  -1.200  0.00  0.00    +0.172 HD
BRANCH  24  26
ATOM     26  C   UNL     1      -1.071   1.765  -0.465  0.00  0.00    +0.049 A 
ATOM     27  C   UNL     1       0.043   2.574  -0.652  0.00  0.00    +0.025 A 
ATOM     28  C   UNL     1       0.259   3.654   0.180  0.00  0.00    +0.002 A 
ATOM     29  C   UNL     1      -0.632   3.930   1.201  0.00  0.00    +0.000 A 
ATOM     30  C   UNL     1      -1.742   3.128   1.391  0.00  0.00    +0.005 A 
ATOM     31  C   UNL     1      -1.967   2.050   0.558  0.00  0.00    -0.028 A 
ATOM     32  C   UNL     1      -3.180   1.179   0.762  0.00  0.00    +0.046 C 
ENDBRANCH  24  26
ENDBRANCH   1  24
BRANCH   1  33
ATOM     33  N   UNL     1       0.197  -0.893  -2.342  0.00  0.00    -0.209 NA
BRANCH  33  35
ATOM     34  C   UNL     1       1.922  -0.278  -0.716  0.00  0.00    +0.022 C 
ATOM     35  C   UNL     1       0.787  -1.249  -1.044  0.00  0.00    +0.104 C 
ENDBRANCH  33  35
BRANCH  33  36
ATOM     36  C   UNL     1      -0.789  -1.896  -2.765  0.00  0.00    +0.104 C 
ATOM     37  C   UNL     1      -1.022  -1.777  -4.272  0.00  0.00    +0.022 C 
ENDBRANCH  33  36
ENDBRANCH   1  33
TORSDOF 5
