REMARK  Name = ZINC21992904
REMARK  13 active torsions:
REMARK  status: ('A' for Active; 'I' for Inactive)
REMARK    1  A    between atoms: C_1  and  C_2
REMARK    2  A    between atoms: C_2  and  C_24
REMARK    3  A    between atoms: C_6  and  C_23
REMARK    4  A    between atoms: C_13  and  C_15
REMARK    5  A    between atoms: C_15  and  C_16
REMARK    6  A    between atoms: C_16  and  C_17
REMARK    7  A    between atoms: C_24  and  O_25
REMARK    8  A    between atoms: O_25  and  C_26
REMARK    9  A    between atoms: C_28  and  O_41
REMARK   10  A    between atoms: C_30  and  O_40
REMARK   11  A    between atoms: C_32  and  O_39
REMARK   12  A    between atoms: C_34  and  C_37
REMARK   13  A    between atoms: C_37  and  O_38
REMARK                            x       y       z     vdW  Elec       q    Type
REMARK                         _______ _______ _______ _____ _____    ______ ____
ROOT
ATOM      1  C   UNL     1      -0.453   0.118   7.073  0.00  0.00    +0.014 C 
ATOM      2  C   UNL     1      -0.827   0.954   5.847  0.00  0.00    -0.005 C 
ATOM      3  C   UNL     1      -0.343   2.390   6.044  0.00  0.00    +0.009 C 
ATOM      4  C   UNL     1      -0.727   3.224   4.819  0.00  0.00    +0.001 C 
ATOM      5  C   UNL     1      -0.058   2.633   3.578  0.00  0.00    +0.007 C 
ATOM      6  C   UNL     1      -0.529   1.191   3.374  0.00  0.00    -0.022 C 
ATOM      7  C   UNL     1      -0.171   0.352   4.601  0.00  0.00    +0.004 C 
ATOM      8  C   UNL     1      -0.682  -1.080   4.420  0.00  0.00    +0.009 C 
ATOM      9  C   UNL     1       0.026  -1.732   3.229  0.00  0.00    +0.031 C 
ATOM     10  C   UNL     1      -0.173  -0.850   2.016  0.00  0.00    -0.073 C 
ATOM     11  C   UNL     1      -0.633  -1.342   0.893  0.00  0.00    +0.008 C 
ATOM     12  C   UNL     1       0.175   0.617   2.138  0.00  0.00    +0.021 C 
ATOM     13  C   UNL     1      -2.044   1.165   3.159  0.00  0.00    +0.012 C 
ENDROOT
BRANCH  12  14
ATOM     14  C   UNL     1      -0.298   1.361   0.887  0.00  0.00    +0.013 C 
BRANCH  14  15
ATOM     15  C   UNL     1       0.748   1.212  -0.220  0.00  0.00    +0.043 C 
BRANCH  15  16
ATOM     16  C   UNL     1       0.269   1.920  -1.462  0.00  0.00    +0.036 C 
ATOM     17  C   UNL     1       0.587   3.165  -1.806  0.00  0.00    +0.024 C 
ATOM     18  C   UNL     1      -0.114   3.453  -3.113  0.00  0.00    +0.260 C 
ATOM     19  O   UNL     1      -0.847   2.242  -3.451  0.00  0.00    -0.457 OA
ATOM     20  C   UNL     1      -0.613   1.341  -2.478  0.00  0.00    +0.335 C 
ATOM     21  O   UNL     1      -1.069   0.215  -2.447  0.00  0.00    -0.245 OA
ENDBRANCH  15  16
ENDBRANCH  14  15
ENDBRANCH  12  14
BRANCH   2  22
ATOM     22  C   UNL     1      -2.347   0.949   5.674  0.00  0.00    +0.170 C 
BRANCH  22  23
ATOM     23  O   UNL     1      -2.968   1.341   6.900  0.00  0.00    -0.348 OA
BRANCH  23  24
ATOM     24  C   UNL     1      -4.395   1.369   6.846  0.00  0.00    +0.282 C 
ATOM     25  C   UNL     1      -4.941   2.032   8.114  0.00  0.00    +0.201 C 
ATOM     26  C   UNL     1      -4.539   1.195   9.332  0.00  0.00    +0.179 C 
ATOM     27  C   UNL     1      -5.061  -0.234   9.151  0.00  0.00    +0.177 C 
ATOM     28  C   UNL     1      -4.511  -0.809   7.843  0.00  0.00    +0.178 C 
ATOM     29  O   UNL     1      -4.896   0.034   6.755  0.00  0.00    -0.341 OA
BRANCH  27  30
ATOM     30  O   UNL     1      -4.630  -1.042  10.248  0.00  0.00    -0.386 OA
ATOM     31  H   UNL     1      -4.911  -2.105  10.291  0.00  0.00    +0.210 HD
ENDBRANCH  27  30
BRANCH  26  32
ATOM     32  O   UNL     1      -5.106   1.766  10.512  0.00  0.00    -0.386 OA
ATOM     33  H   UNL     1      -4.924   1.298  11.491  0.00  0.00    +0.210 HD
ENDBRANCH  26  32
BRANCH  25  34
ATOM     34  O   UNL     1      -4.397   3.347   8.237  0.00  0.00    -0.384 OA
ATOM     35  H   UNL     1      -4.676   3.980   9.092  0.00  0.00    +0.210 HD
ENDBRANCH  25  34
BRANCH  28  36
ATOM     36  C   UNL     1      -5.077  -2.214   7.626  0.00  0.00    +0.190 C 
BRANCH  36  37
ATOM     37  O   UNL     1      -4.475  -2.795   6.468  0.00  0.00    -0.392 OA
ATOM     38  H   UNL     1      -4.759  -3.810   6.151  0.00  0.00    +0.210 HD
ENDBRANCH  36  37
ENDBRANCH  28  36
ENDBRANCH  23  24
ENDBRANCH  22  23
ENDBRANCH   2  22
TORSDOF 11
