REMARK  Name = ZINC09636327
REMARK  9 active torsions:
REMARK  status: ('A' for Active; 'I' for Inactive)
REMARK    1  A    between atoms: C_1  and  N_2
REMARK    2  A    between atoms: C_6  and  S_15
REMARK    3  A    between atoms: N_11  and  C_14
REMARK    4  A    between atoms: S_15  and  N_18
REMARK    5  A    between atoms: N_18  and  C_19
REMARK    6  A    between atoms: C_19  and  C_21
REMARK    7  A    between atoms: C_19  and  C_28
REMARK    8  A    between atoms: C_21  and  C_22
REMARK    9  A    between atoms: N_30  and  C_31
REMARK                            x       y       z     vdW  Elec       q    Type
REMARK                         _______ _______ _______ _____ _____    ______ ____
ROOT
ATOM      1  N   UNL     1      -1.275   7.253   5.336  0.00  0.00    -0.178 NA
ATOM      2  H   UNL     1      -1.387   7.536   6.257  0.00  0.00    +0.149 HD
ENDROOT
BRANCH   1   3
ATOM      3  S   UNL     1      -2.588   6.762   4.455  0.00  0.00    +0.059 S 
ATOM      4  O   UNL     1      -2.530   7.458   3.217  0.00  0.00    -0.153 OA
ATOM      5  O   UNL     1      -3.712   6.843   5.322  0.00  0.00    -0.153 OA
BRANCH   3  11
ATOM      6  C   UNL     1      -2.324  -0.015   4.123  0.00  0.00    +0.154 C 
ATOM      7  N   UNL     1      -1.823   1.020   3.215  0.00  0.00    -0.296 N 
ATOM      8  C   UNL     1      -2.014   2.358   3.527  0.00  0.00    +0.058 A 
ATOM      9  C   UNL     1      -2.672   2.748   4.684  0.00  0.00    +0.028 A 
ATOM     10  C   UNL     1      -2.841   4.090   4.957  0.00  0.00    +0.030 A 
ATOM     11  C   UNL     1      -2.360   5.055   4.085  0.00  0.00    +0.106 A 
ATOM     12  C   UNL     1      -1.703   4.686   2.929  0.00  0.00    +0.043 A 
ATOM     13  C   UNL     1      -1.525   3.335   2.643  0.00  0.00    +0.065 A 
ATOM     14  C   UNL     1      -0.826   2.886   1.425  0.00  0.00    +0.264 A 
ATOM     15  O   UNL     1      -0.379   3.690   0.630  0.00  0.00    -0.267 OA
ATOM     16  N   UNL     1      -0.698   1.558   1.213  0.00  0.00    -0.263 N 
ATOM     17  C   UNL     1      -1.183   0.663   2.088  0.00  0.00    +0.332 A 
ATOM     18  O   UNL     1      -1.037  -0.520   1.851  0.00  0.00    -0.246 OA
ATOM     19  C   UNL     1      -0.013   1.086   0.008  0.00  0.00    +0.157 C 
ENDBRANCH   3  11
ENDBRANCH   1   3
BRANCH   1  20
ATOM     20  C   UNL     1       0.057   7.259   4.725  0.00  0.00    +0.166 C 
BRANCH  20  21
ATOM     21  C   UNL     1       1.087   6.889   5.760  0.00  0.00    +0.232 C 
ATOM     22  O   UNL     1       0.743   6.645   6.898  0.00  0.00    -0.274 OA
ATOM     23  N   UNL     1       2.390   6.831   5.423  0.00  0.00    -0.311 N 
ATOM     24  H   UNL     1       2.665   7.026   4.514  0.00  0.00    +0.149 HD
BRANCH  23  25
ATOM     25  C   UNL     1       3.392   6.472   6.430  0.00  0.00    +0.073 C 
ATOM     26  C   UNL     1       3.769   7.734   7.232  0.00  0.00    +0.022 C 
ATOM     27  C   UNL     1       4.369   7.305   8.544  0.00  0.00    +0.002 C 
ATOM     28  C   UNL     1       5.907   7.230   8.491  0.00  0.00    +0.000 C 
ATOM     29  C   UNL     1       6.429   6.602   7.185  0.00  0.00    +0.000 C 
ATOM     30  C   UNL     1       5.621   5.407   6.757  0.00  0.00    +0.002 C 
ATOM     31  C   UNL     1       4.540   5.878   5.762  0.00  0.00    +0.022 C 
ENDBRANCH  23  25
ENDBRANCH  20  21
BRANCH  20  32
ATOM     32  C   UNL     1       0.360   8.655   4.178  0.00  0.00    +0.065 C 
BRANCH  32  33
ATOM     33  C   UNL     1      -0.595   8.975   3.057  0.00  0.00    -0.045 A 
ATOM     34  C   UNL     1      -0.265   8.651   1.754  0.00  0.00    +0.004 A 
ATOM     35  C   UNL     1      -1.143   8.940   0.727  0.00  0.00    +0.000 A 
ATOM     36  C   UNL     1      -2.347   9.562   1.001  0.00  0.00    +0.000 A 
ATOM     37  C   UNL     1      -2.675   9.890   2.303  0.00  0.00    +0.000 A 
ATOM     38  C   UNL     1      -1.799   9.596   3.331  0.00  0.00    +0.004 A 
ENDBRANCH  32  33
ENDBRANCH  20  32
ENDBRANCH   1  20
TORSDOF 7
