REMARK  Name = ZINC59891158
REMARK  12 active torsions:
REMARK  status: ('A' for Active; 'I' for Inactive)
REMARK    1  A    between atoms: C_1  and  C_2
REMARK    2  A    between atoms: C_7  and  C_9
REMARK    3  A    between atoms: C_7  and  N_27
REMARK    4  A    between atoms: C_9  and  N_10
REMARK    5  A    between atoms: C_11  and  C_13
REMARK    6  A    between atoms: C_15  and  O_25
REMARK    7  A    between atoms: C_16  and  O_20
REMARK    8  A    between atoms: O_20  and  C_21
REMARK    9  A    between atoms: C_21  and  C_22
REMARK   10  A    between atoms: O_25  and  C_26
REMARK   11  A    between atoms: N_27  and  C_28
REMARK   12  A    between atoms: N_27  and  C_29
REMARK                            x       y       z     vdW  Elec       q    Type
REMARK                         _______ _______ _______ _____ _____    ______ ____
ROOT
ATOM      1  N   UNL     1      -0.700  -4.079   0.966  0.00  0.00    -0.313 N 
ATOM      2  C   UNL     1      -1.874  -4.699   0.732  0.00  0.00    +0.244 C 
ATOM      3  O   UNL     1      -2.846  -4.051   0.392  0.00  0.00    -0.270 OA
ATOM      4  H   UNL     1       0.075  -4.596   1.237  0.00  0.00    +0.149 HD
ENDROOT
BRANCH   2   5
ATOM      5  C   UNL     1      -1.980  -6.162   0.888  0.00  0.00    +0.042 A 
ATOM      6  C   UNL     1      -3.196  -6.807   0.640  0.00  0.00    +0.062 A 
ATOM      7  C   UNL     1      -3.291  -8.177   0.787  0.00  0.00    +0.164 A 
ATOM      8  C   UNL     1      -2.176  -8.914   1.183  0.00  0.00    +0.181 A 
ATOM      9  C   UNL     1      -0.968  -8.274   1.430  0.00  0.00    +0.087 A 
ATOM     10  C   UNL     1      -0.865  -6.907   1.278  0.00  0.00    +0.037 A 
ATOM     11 CL   UNL     1       0.416  -9.198   1.923  0.00  0.00    -0.080 Cl
BRANCH   7  12
ATOM     12  O   UNL     1      -4.472  -8.806   0.546  0.00  0.00    -0.491 OA
ATOM     13  C   UNL     1      -5.573  -7.988   0.144  0.00  0.00    +0.277 C 
ENDBRANCH   7  12
BRANCH   8  14
ATOM     14  O   UNL     1      -2.271 -10.261   1.328  0.00  0.00    -0.478 OA
BRANCH  14  15
ATOM     15  C   UNL     1      -1.986 -11.059   0.177  0.00  0.00    +0.324 C 
BRANCH  15  16
ATOM     16  C   UNL     1      -2.142 -12.517   0.526  0.00  0.00    +0.248 C 
ATOM     17  O   UNL     1      -2.466 -12.841   1.649  0.00  0.00    -0.272 OA
ATOM     18  N   UNL     1      -1.922 -13.461  -0.411  0.00  0.00    -0.327 N 
ATOM     19  H   UNL     1      -1.663 -13.202  -1.309  0.00  0.00    +0.145 HD
ATOM     20  H   UNL     1      -2.022 -14.400  -0.186  0.00  0.00    +0.145 HD
ENDBRANCH  15  16
ENDBRANCH  14  15
ENDBRANCH   8  14
ENDBRANCH   2   5
BRANCH   1  21
ATOM     21  C   UNL     1      -0.595  -2.626   0.811  0.00  0.00    +0.092 C 
BRANCH  21  27
ATOM     22  C   UNL     1       0.647   1.336  -0.408  0.00  0.00    +0.007 C 
ATOM     23  C   UNL     1       0.560  -0.190  -0.335  0.00  0.00    -0.015 C 
ATOM     24  C   UNL     1       1.542  -0.805  -1.334  0.00  0.00    +0.003 C 
ATOM     25  C   UNL     1       1.456  -2.331  -1.260  0.00  0.00    -0.001 C 
ATOM     26  C   UNL     1       1.810  -2.794   0.154  0.00  0.00    -0.010 C 
ATOM     27  C   UNL     1       0.828  -2.179   1.153  0.00  0.00    -0.050 C 
ATOM     28  C   UNL     1       0.914  -0.653   1.080  0.00  0.00    -0.007 C 
BRANCH  27  29
ATOM     29  N   UNL     1       1.168  -2.624   2.511  0.00  0.00    +0.381 N 
ATOM     30  C   UNL     1       2.504  -2.129   2.869  0.00  0.00    -0.096 C 
ATOM     31  C   UNL     1       0.179  -2.096   3.461  0.00  0.00    -0.096 C 
ATOM     32  H   UNL     1       1.163  -3.632   2.546  0.00  0.00    -0.082 HD
ENDBRANCH  27  29
ENDBRANCH  21  27
ENDBRANCH   1  21
TORSDOF 8
