REMARK  Name = ZINC61881600
REMARK  4 active torsions:
REMARK  status: ('A' for Active; 'I' for Inactive)
REMARK    1  A    between atoms: C_6  and  N_7
REMARK    2  A    between atoms: N_7  and  S_8
REMARK    3  A    between atoms: S_8  and  C_11
REMARK    4  A    between atoms: C_15  and  N_18
REMARK                            x       y       z     vdW  Elec       q    Type
REMARK                         _______ _______ _______ _____ _____    ______ ____
ROOT
ATOM      1  S   UNL     1      -1.174  -2.376   0.001  0.00  0.00    +0.093 S 
ATOM      2  O   UNL     1      -0.629  -2.768  -1.252  0.00  0.00    -0.148 OA
ATOM      3  O   UNL     1      -0.605  -2.781   1.238  0.00  0.00    -0.148 OA
ENDROOT
BRANCH   1   4
ATOM      4  C   UNL     1      -2.849  -2.922   0.014  0.00  0.00    +0.127 A 
ATOM      5  C   UNL     1      -3.358  -3.616  -1.069  0.00  0.00    +0.050 A 
ATOM      6  C   UNL     1      -4.673  -4.046  -1.062  0.00  0.00    +0.045 A 
ATOM      7  C   UNL     1      -5.482  -3.783   0.027  0.00  0.00    +0.044 A 
ATOM      8  C   UNL     1      -4.974  -3.086   1.115  0.00  0.00    +0.042 A 
ATOM      9  C   UNL     1      -3.651  -2.660   1.107  0.00  0.00    +0.065 A 
ATOM     10 BR   UNL     1      -2.952  -1.717   2.590  0.00  0.00    -0.046 Br
ATOM     11 CL   UNL     1      -5.307  -4.917  -2.424  0.00  0.00    -0.083 Cl
BRANCH   8  12
ATOM     12  N   UNL     1      -5.790  -2.818   2.218  0.00  0.00    -0.357 N 
ATOM     13  H   UNL     1      -6.712  -3.119   2.223  0.00  0.00    +0.142 HD
ATOM     14  H   UNL     1      -5.434  -2.331   2.977  0.00  0.00    +0.142 HD
ENDBRANCH   8  12
ENDBRANCH   1   4
BRANCH   1  15
ATOM     15  N   UNL     1      -1.198  -0.720   0.010  0.00  0.00    -0.098 NA
BRANCH  15  21
ATOM     16  C   UNL     1      -0.017   1.385   0.010  0.00  0.00    +0.028 A 
ATOM     17  C   UNL     1       1.171   2.091   0.002  0.00  0.00    +0.023 A 
ATOM     18  C   UNL     1       2.378   1.416  -0.013  0.00  0.00    +0.059 A 
ATOM     19  C   UNL     1       2.401   0.031  -0.021  0.00  0.00    +0.061 A 
ATOM     20  C   UNL     1       1.216  -0.680  -0.013  0.00  0.00    +0.048 A 
ATOM     21  C   UNL     1       0.002  -0.004   0.002  0.00  0.00    +0.076 A 
ATOM     22 CL   UNL     1       3.918  -0.812  -0.041  0.00  0.00    -0.082 Cl
ATOM     23 CL   UNL     1       3.868   2.307  -0.024  0.00  0.00    -0.082 Cl
ENDBRANCH  15  21
ENDBRANCH   1  15
TORSDOF 4
