REMARK  Name = ZINC38615218
REMARK  11 active torsions:
REMARK  status: ('A' for Active; 'I' for Inactive)
REMARK    1  A    between atoms: C_1  and  O_2
REMARK    2  A    between atoms: O_2  and  C_3
REMARK    3  A    between atoms: C_6  and  C_9
REMARK    4  A    between atoms: N_13  and  C_17
REMARK    5  A    between atoms: C_17  and  C_18
REMARK    6  A    between atoms: N_20  and  C_21
REMARK    7  A    between atoms: C_21  and  C_22
REMARK    8  A    between atoms: C_22  and  C_24
REMARK    9  A    between atoms: C_22  and  N_32
REMARK   10  A    between atoms: C_27  and  O_30
REMARK   11  A    between atoms: O_30  and  C_31
REMARK                            x       y       z     vdW  Elec       q    Type
REMARK                         _______ _______ _______ _____ _____    ______ ____
ROOT
ATOM      1  C   UNL     1       1.095  -6.503   8.743  0.00  0.00    +0.231 C 
ATOM      2  O   UNL     1       0.929  -6.513   7.542  0.00  0.00    -0.274 OA
ATOM      3  N   UNL     1       1.619  -7.582   9.360  0.00  0.00    -0.315 N 
ATOM      4  H   UNL     1       1.751  -7.574  10.320  0.00  0.00    +0.149 HD
ENDROOT
BRANCH   1   5
ATOM      5  C   UNL     1       0.716  -5.286   9.547  0.00  0.00    +0.210 C 
BRANCH   5  10
ATOM      6  C   UNL     1      -2.869  -2.912   7.073  0.00  0.00    +0.028 C 
ATOM      7  C   UNL     1      -1.608  -3.177   7.499  0.00  0.00    +0.077 C 
ATOM      8  C   UNL     1      -1.125  -4.236   8.408  0.00  0.00    +0.259 C 
ATOM      9  O   UNL     1      -1.884  -5.047   8.906  0.00  0.00    -0.269 OA
ATOM     10  N   UNL     1       0.175  -4.260   8.653  0.00  0.00    -0.246 N 
ATOM     11  C   UNL     1       1.012  -3.360   8.098  0.00  0.00    +0.121 C 
ATOM     12  S   UNL     1       2.708  -3.228   8.290  0.00  0.00    -0.027 S 
ATOM     13  S   UNL     1      -0.074  -2.346   7.109  0.00  0.00    -0.061 S 
BRANCH   6  17
ATOM     14  C   UNL     1      -3.509  -0.091   3.972  0.00  0.00    +0.120 A 
ATOM     15  C   UNL     1      -2.218  -0.512   4.270  0.00  0.00    +0.046 A 
ATOM     16  C   UNL     1      -2.004  -1.428   5.276  0.00  0.00    +0.011 A 
ATOM     17  C   UNL     1      -3.091  -1.935   5.999  0.00  0.00    -0.024 A 
ATOM     18  C   UNL     1      -4.389  -1.508   5.695  0.00  0.00    +0.011 A 
ATOM     19  C   UNL     1      -4.590  -0.588   4.691  0.00  0.00    +0.046 A 
BRANCH  14  21
ATOM     20  C   UNL     1      -2.559   1.281   2.280  0.00  0.00    +0.277 C 
ATOM     21  O   UNL     1      -3.714   0.812   2.979  0.00  0.00    -0.495 OA
ENDBRANCH  14  21
ENDBRANCH   6  17
ENDBRANCH   5  10
ENDBRANCH   1   5
BRANCH   3  22
ATOM     22  C   UNL     1       1.987  -8.765   8.579  0.00  0.00    +0.093 C 
BRANCH  22  23
ATOM     23  C   UNL     1       2.426  -9.884   9.525  0.00  0.00    -0.020 C 
BRANCH  23  24
ATOM     24  N   UNL     1       2.780 -11.076   8.742  0.00  0.00    +0.385 N 
ATOM     25  C   UNL     1       3.145 -12.167   9.653  0.00  0.00    -0.078 C 
ATOM     26  C   UNL     1       3.436 -13.435   8.847  0.00  0.00    -0.019 C 
ATOM     27  C   UNL     1       4.593 -13.165   7.881  0.00  0.00    -0.004 C 
ATOM     28  C   UNL     1       4.231 -11.977   6.985  0.00  0.00    -0.019 C 
ATOM     29  C   UNL     1       3.911 -10.764   7.861  0.00  0.00    -0.078 C 
ATOM     30  H   UNL     1       1.988 -11.358   8.184  0.00  0.00    -0.081 HD
ENDBRANCH  23  24
BRANCH  23  31
ATOM     31  C   UNL     1       1.298 -10.217  10.466  0.00  0.00    -0.059 A 
ATOM     32  C   UNL     1       0.265 -11.034  10.044  0.00  0.00    +0.005 A 
ATOM     33  C   UNL     1      -0.770 -11.340  10.906  0.00  0.00    +0.046 A 
ATOM     34  C   UNL     1      -0.773 -10.829  12.196  0.00  0.00    +0.120 A 
ATOM     35  C   UNL     1       0.266 -10.011  12.617  0.00  0.00    +0.046 A 
ATOM     36  C   UNL     1       1.301  -9.711  11.753  0.00  0.00    +0.005 A 
BRANCH  34  37
ATOM     37  O   UNL     1      -1.790 -11.129  13.045  0.00  0.00    -0.495 OA
ATOM     38  C   UNL     1      -1.727 -10.568  14.357  0.00  0.00    +0.277 C 
ENDBRANCH  34  37
ENDBRANCH  23  31
ENDBRANCH  22  23
ENDBRANCH   3  22
TORSDOF 9
