REMARK  Name = ZINC13523774
REMARK  6 active torsions:
REMARK  status: ('A' for Active; 'I' for Inactive)
REMARK    1  A    between atoms: C_5  and  C_7
REMARK    2  A    between atoms: C_7  and  N_8
REMARK    3  A    between atoms: C_9  and  C_11
REMARK    4  A    between atoms: C_11  and  S_12
REMARK    5  A    between atoms: S_12  and  C_13
REMARK    6  A    between atoms: N_21  and  C_22
REMARK                            x       y       z     vdW  Elec       q    Type
REMARK                         _______ _______ _______ _____ _____    ______ ____
ROOT
ATOM      1  C   UNL     1       1.524  -6.922   4.897  0.00  0.00    +0.179 A 
ATOM      2  N   UNL     1       1.613  -5.971   5.789  0.00  0.00    -0.201 NA
ATOM      3  C   UNL     1       2.452  -6.075   6.854  0.00  0.00    +0.189 A 
ATOM      4  N   UNL     1       2.750  -5.313   7.880  0.00  0.00    -0.154 NA
ATOM      5  N   UNL     1       3.709  -5.961   8.667  0.00  0.00    -0.282 N 
ATOM      6  C   UNL     1       4.016  -7.149   8.125  0.00  0.00    +0.120 A 
ATOM      7  C   UNL     1       3.267  -7.294   6.983  0.00  0.00    +0.103 A 
ATOM      8  C   UNL     1       3.120  -8.324   5.949  0.00  0.00    +0.270 A 
ATOM      9  N   UNL     1       2.242  -8.085   4.948  0.00  0.00    -0.255 N 
ATOM     10  O   UNL     1       3.763  -9.357   5.992  0.00  0.00    -0.266 OA
ATOM     11  H   UNL     1       4.094  -5.604   9.483  0.00  0.00    +0.188 HD
ENDROOT
BRANCH   9  12
ATOM     12  C   UNL     1       2.068  -9.045   3.942  0.00  0.00    +0.053 A 
ATOM     13  C   UNL     1       2.860  -9.009   2.802  0.00  0.00    +0.028 A 
ATOM     14  C   UNL     1       2.688  -9.957   1.812  0.00  0.00    +0.023 A 
ATOM     15  C   UNL     1       1.727 -10.942   1.955  0.00  0.00    +0.059 A 
ATOM     16  C   UNL     1       0.936 -10.981   3.091  0.00  0.00    +0.061 A 
ATOM     17  C   UNL     1       1.108 -10.038   4.087  0.00  0.00    +0.047 A 
ATOM     18 CL   UNL     1      -0.269 -12.218   3.268  0.00  0.00    -0.082 Cl
ATOM     19 CL   UNL     1       1.512 -12.131   0.709  0.00  0.00    -0.082 Cl
ENDBRANCH   9  12
BRANCH   1  20
ATOM     20  S   UNL     1       0.407  -6.695   3.553  0.00  0.00    -0.078 S 
BRANCH  20  21
ATOM     21  C   UNL     1      -0.324  -5.064   3.859  0.00  0.00    +0.173 C 
BRANCH  21  23
ATOM     22  N   UNL     1      -1.981  -3.573   2.787  0.00  0.00    -0.310 N 
ATOM     23  C   UNL     1      -1.311  -4.742   2.767  0.00  0.00    +0.224 C 
ATOM     24  O   UNL     1      -1.503  -5.536   1.870  0.00  0.00    -0.275 OA
ATOM     25  H   UNL     1      -1.828  -2.938   3.504  0.00  0.00    +0.149 HD
BRANCH  22  26
ATOM     26  C   UNL     1      -2.941  -3.261   1.725  0.00  0.00    +0.141 C 
BRANCH  26  31
ATOM     27  C   UNL     1      -5.359  -0.563   2.786  0.00  0.00    +0.000 A 
ATOM     28  C   UNL     1      -4.663   0.582   2.446  0.00  0.00    +0.001 A 
ATOM     29  C   UNL     1      -3.409   0.484   1.873  0.00  0.00    +0.020 A 
ATOM     30  C   UNL     1      -2.851  -0.760   1.639  0.00  0.00    +0.046 A 
ATOM     31  C   UNL     1      -3.548  -1.905   1.980  0.00  0.00    -0.012 A 
ATOM     32  C   UNL     1      -4.802  -1.806   2.553  0.00  0.00    +0.006 A 
ATOM     33 CL   UNL     1      -1.277  -0.884   0.918  0.00  0.00    -0.083 Cl
ENDBRANCH  26  31
ENDBRANCH  22  26
ENDBRANCH  21  23
ENDBRANCH  20  21
ENDBRANCH   1  20
TORSDOF 6
