REMARK  Name = ZINC22457157
REMARK  2 active torsions:
REMARK  status: ('A' for Active; 'I' for Inactive)
REMARK    1  A    between atoms: N_16  and  C_17
REMARK    2  A    between atoms: C_28  and  C_31
REMARK                            x       y       z     vdW  Elec       q    Type
REMARK                         _______ _______ _______ _____ _____    ______ ____
ROOT
ATOM      1  C   UNL     1      -2.067   4.814   8.041  0.00  0.00    +0.002 A 
ATOM      2  C   UNL     1      -1.079   3.896   7.714  0.00  0.00    +0.002 A 
ATOM      3  C   UNL     1      -0.880   3.520   6.406  0.00  0.00    +0.030 A 
ATOM      4  C   UNL     1      -1.678   4.066   5.397  0.00  0.00    +0.091 A 
ATOM      5  C   UNL     1      -2.677   4.996   5.733  0.00  0.00    +0.068 A 
ATOM      6  C   UNL     1      -2.863   5.363   7.058  0.00  0.00    +0.028 A 
ATOM      7  N   UNL     1      -3.288   5.350   4.544  0.00  0.00    -0.322 N 
ATOM      8  H   UNL     1      -4.115   6.076   4.546  0.00  0.00    +0.169 HD
ATOM      9  C   UNL     1      -2.670   4.652   3.548  0.00  0.00    +0.230 A 
ATOM     10  N   UNL     1      -1.729   3.896   4.051  0.00  0.00    -0.211 NA
ATOM     11  N   UNL     1      -2.994   4.730   2.199  0.00  0.00    -0.201 N 
ATOM     12  C   UNL     1      -2.391   4.049   1.222  0.00  0.00    +0.061 A 
ATOM     13  C   UNL     1      -3.006   4.409   0.026  0.00  0.00    +0.080 A 
ATOM     14  C   UNL     1      -4.043   5.369   0.353  0.00  0.00    +0.156 A 
ATOM     15  N   UNL     1      -4.006   5.535   1.657  0.00  0.00    -0.148 NA
ATOM     16  N   UNL     1      -4.911   5.993  -0.541  0.00  0.00    -0.297 N 
ATOM     17  C   UNL     1      -2.582   3.846  -1.261  0.00  0.00    +0.169 C 
ATOM     18  O   UNL     1      -3.228   3.990  -2.279  0.00  0.00    -0.292 OA
ATOM     19  C   UNL     1      -1.274   3.069  -1.226  0.00  0.00    +0.091 C 
ATOM     20  C   UNL     1      -1.265   2.193   0.030  0.00  0.00    +0.068 C 
ATOM     21  C   UNL     1      -1.260   3.057   1.295  0.00  0.00    +0.068 C 
ATOM     22  H   UNL     1      -4.787   5.843  -1.623  0.00  0.00    +0.154 HD
ENDROOT
BRANCH  16  23
ATOM     23  C   UNL     1      -5.939   6.809  -0.062  0.00  0.00    +0.035 A 
ATOM     24  C   UNL     1      -6.447   6.611   1.216  0.00  0.00    +0.043 A 
ATOM     25  C   UNL     1      -7.460   7.423   1.689  0.00  0.00    +0.044 A 
ATOM     26  C   UNL     1      -7.975   8.427   0.887  0.00  0.00    +0.040 A 
ATOM     27  C   UNL     1      -7.475   8.623  -0.388  0.00  0.00    +0.044 A 
ATOM     28  C   UNL     1      -6.458   7.818  -0.864  0.00  0.00    +0.043 A 
ATOM     29 CL   UNL     1      -8.124   9.884  -1.390  0.00  0.00    -0.083 Cl
ATOM     30 CL   UNL     1      -8.091   7.180   3.288  0.00  0.00    -0.083 Cl
ENDBRANCH  16  23
BRANCH  20  31
ATOM     31  C   UNL     1      -0.035   1.322   0.019  0.00  0.00    +0.109 A 
ATOM     32  C   UNL     1      -0.024  -0.023   0.025  0.00  0.00    +0.045 A 
ATOM     33  C   UNL     1       1.332  -0.421   0.004  0.00  0.00    +0.041 A 
ATOM     34  C   UNL     1       2.069   0.704  -0.013  0.00  0.00    +0.195 A 
ATOM     35  O   UNL     1       1.235   1.757  -0.004  0.00  0.00    -0.468 OA
ENDBRANCH  20  31
TORSDOF 2
