REMARK  Name = ZINC31934745
REMARK  8 active torsions:
REMARK  status: ('A' for Active; 'I' for Inactive)
REMARK    1  A    between atoms: C_1  and  C_2
REMARK    2  A    between atoms: C_2  and  C_3
REMARK    3  A    between atoms: C_2  and  C_4
REMARK    4  A    between atoms: C_2  and  C_5
REMARK    5  A    between atoms: C_18  and  C_20
REMARK    6  A    between atoms: C_20  and  N_21
REMARK    7  A    between atoms: N_21  and  C_22
REMARK    8  A    between atoms: C_22  and  C_23
REMARK                            x       y       z     vdW  Elec       q    Type
REMARK                         _______ _______ _______ _____ _____    ______ ____
ROOT
ATOM      1  C   UNL     1      -8.317  -2.405  -0.483  0.00  0.00    -0.000 C 
ATOM      2  C   UNL     1      -8.475  -0.980  -1.021  0.00  0.00    +0.009 C 
ATOM      3  C   UNL     1      -7.193  -0.547  -1.733  0.00  0.00    +0.037 C 
ATOM      4  C   UNL     1      -6.009  -0.770  -0.796  0.00  0.00    -0.023 A 
ATOM      5  C   UNL     1      -6.117  -1.596   0.267  0.00  0.00    -0.004 A 
ATOM      6  S   UNL     1      -4.529  -1.546   1.051  0.00  0.00    -0.073 S 
ATOM      7  C   UNL     1      -3.723  -0.414  -0.053  0.00  0.00    +0.116 A 
ATOM      8  C   UNL     1      -4.719  -0.112  -0.995  0.00  0.00    +0.075 A 
ATOM      9  C   UNL     1      -4.337   0.802  -2.031  0.00  0.00    +0.260 A 
ATOM     10  O   UNL     1      -5.132   1.127  -2.895  0.00  0.00    -0.267 OA
ATOM     11  N   UNL     1      -3.086   1.301  -2.029  0.00  0.00    -0.312 N 
ATOM     12  H   UNL     1      -2.776   2.011  -2.810  0.00  0.00    +0.170 HD
ATOM     13  C   UNL     1      -2.186   0.947  -1.076  0.00  0.00    +0.094 A 
ATOM     14  N   UNL     1      -2.505   0.116  -0.120  0.00  0.00    -0.229 NA
ATOM     15  C   UNL     1      -7.322  -2.382   0.686  0.00  0.00    +0.046 C 
ENDROOT
BRANCH   1  17
ATOM     16  C   UNL     1     -10.202  -2.003   1.106  0.00  0.00    +0.011 C 
ATOM     17  C   UNL     1      -9.671  -2.923   0.005  0.00  0.00    -0.035 C 
ATOM     18  C   UNL     1     -10.660  -2.944  -1.163  0.00  0.00    +0.011 C 
ATOM     19  C   UNL     1      -9.506  -4.339   0.559  0.00  0.00    +0.011 C 
ENDBRANCH   1  17
BRANCH  13  20
ATOM     20  C   UNL     1      -0.795   1.527  -1.120  0.00  0.00    -0.007 C 
BRANCH  20  21
ATOM     21  N   UNL     1      -0.012   1.005   0.008  0.00  0.00    +0.386 N 
ATOM     22  H   UNL     1      -0.497   1.287   0.954  0.00  0.00    -0.085 HD
ATOM     23  H   UNL     1       0.046  -0.091  -0.062  0.00  0.00    -0.085 HD
BRANCH  21  24
ATOM     24  C   UNL     1       1.353   1.550  -0.003  0.00  0.00    -0.055 C 
BRANCH  24  25
ATOM     25  C   UNL     1       2.125   0.993   1.166  0.00  0.00    -0.054 C 
ATOM     26  C   UNL     1       3.264   0.379   0.965  0.00  0.00    +0.002 C 
ENDBRANCH  24  25
ENDBRANCH  21  24
ENDBRANCH  20  21
ENDBRANCH  13  20
TORSDOF 5
