REMARK  Name = ZINC21133910
REMARK  8 active torsions:
REMARK  status: ('A' for Active; 'I' for Inactive)
REMARK    1  A    between atoms: C_1  and  N_2
REMARK    2  A    between atoms: N_2  and  C_3
REMARK    3  A    between atoms: N_2  and  C_24
REMARK    4  A    between atoms: C_3  and  C_4
REMARK    5  A    between atoms: C_9  and  N_10
REMARK    6  A    between atoms: N_10  and  C_11
REMARK    7  A    between atoms: C_11  and  C_12
REMARK    8  A    between atoms: N_14  and  C_15
REMARK                            x       y       z     vdW  Elec       q    Type
REMARK                         _______ _______ _______ _____ _____    ______ ____
ROOT
ATOM      1  C   UNL     1       8.243  -4.744   5.394  0.00  0.00    -0.043 A 
ATOM      2  C   UNL     1       9.402  -5.042   6.082  0.00  0.00    +0.003 A 
ATOM      3  C   UNL     1      10.396  -4.088   6.212  0.00  0.00    +0.000 A 
ATOM      4  C   UNL     1      10.232  -2.834   5.653  0.00  0.00    +0.002 A 
ATOM      5  C   UNL     1       9.077  -2.532   4.958  0.00  0.00    +0.023 A 
ATOM      6  C   UNL     1       8.075  -3.485   4.831  0.00  0.00    +0.029 A 
ENDROOT
BRANCH   6   7
ATOM      7  N   UNL     1       6.904  -3.181   4.134  0.00  0.00    -0.335 N 
ATOM      8  H   UNL     1       6.113  -3.938   4.030  0.00  0.00    +0.147 HD
BRANCH   7   9
ATOM      9  C   UNL     1       6.729  -1.853   3.541  0.00  0.00    +0.198 C 
BRANCH   9  10
ATOM     10  C   UNL     1       5.391  -1.784   2.850  0.00  0.00    +0.234 C 
ATOM     11  O   UNL     1       4.656  -2.749   2.853  0.00  0.00    -0.274 OA
ATOM     12  N   UNL     1       5.011  -0.649   2.229  0.00  0.00    -0.284 N 
ATOM     13  H   UNL     1       5.711   0.196   2.151  0.00  0.00    +0.155 HD
BRANCH  12  14
ATOM     14  C   UNL     1       3.725  -0.547   1.683  0.00  0.00    +0.037 A 
ATOM     15  C   UNL     1       2.658  -1.191   2.294  0.00  0.00    +0.027 A 
ATOM     16  C   UNL     1       1.388  -1.090   1.757  0.00  0.00    +0.051 A 
ATOM     17  C   UNL     1       1.177  -0.347   0.608  0.00  0.00    +0.166 A 
ATOM     18  C   UNL     1       2.246   0.301  -0.008  0.00  0.00    +0.168 A 
ATOM     19  C   UNL     1       3.517   0.199   0.531  0.00  0.00    +0.072 A 
ATOM     20  O   UNL     1       1.781   0.959  -1.110  0.00  0.00    -0.453 OA
ATOM     21  C   UNL     1       0.355   1.044  -0.934  0.00  0.00    +0.466 C 
ATOM     22  O   UNL     1       0.043  -0.094  -0.110  0.00  0.00    -0.453 OA
ENDBRANCH  12  14
ENDBRANCH   9  10
ENDBRANCH   7   9
ENDBRANCH   6   7
BRANCH   1  23
ATOM     23  C   UNL     1       7.161  -5.783   5.254  0.00  0.00    -0.041 C 
BRANCH  23  25
ATOM     24  C   UNL     1       8.492  -7.175   3.787  0.00  0.00    -0.095 C 
ATOM     25  N   UNL     1       7.249  -6.406   3.926  0.00  0.00    +0.382 N 
ATOM     26  H   UNL     1       7.263  -5.602   3.176  0.00  0.00    -0.081 HD
BRANCH  25  27
ATOM     27  C   UNL     1       6.075  -7.249   3.661  0.00  0.00    -0.069 C 
ATOM     28  C   UNL     1       6.062  -8.426   4.640  0.00  0.00    -0.015 C 
ATOM     29  C   UNL     1       4.840  -9.304   4.364  0.00  0.00    -0.002 C 
ATOM     30  C   UNL     1       4.906  -9.834   2.930  0.00  0.00    -0.000 C 
ATOM     31  C   UNL     1       4.920  -8.658   1.952  0.00  0.00    -0.002 C 
ATOM     32  C   UNL     1       6.141  -7.779   2.228  0.00  0.00    -0.015 C 
ENDBRANCH  25  27
ENDBRANCH  23  25
ENDBRANCH   1  23
TORSDOF 7
