REMARK  Name = ZINC09789062
REMARK  7 active torsions:
REMARK  status: ('A' for Active; 'I' for Inactive)
REMARK    1  A    between atoms: C_1  and  C_2
REMARK    2  A    between atoms: C_2  and  C_26
REMARK    3  A    between atoms: N_5  and  C_9
REMARK    4  A    between atoms: C_9  and  C_10
REMARK    5  A    between atoms: N_12  and  C_13
REMARK    6  A    between atoms: C_13  and  C_15
REMARK    7  A    between atoms: C_13  and  C_21
REMARK                            x       y       z     vdW  Elec       q    Type
REMARK                         _______ _______ _______ _____ _____    ______ ____
ROOT
ATOM      1  C   UNL     1      -0.074  -0.534  -1.431  0.00  0.00    +0.050 C 
ATOM      2  C   UNL     1       0.002  -0.004   0.002  0.00  0.00    +0.168 C 
ATOM      3  C   UNL     1       1.244  -0.524   0.697  0.00  0.00    +0.254 C 
ATOM      4  O   UNL     1       2.398  -0.333   0.376  0.00  0.00    -0.272 OA
ATOM      5  N   UNL     1       0.800  -1.244   1.746  0.00  0.00    -0.215 N 
ATOM      6  C   UNL     1      -0.536  -1.251   1.810  0.00  0.00    +0.310 C 
ATOM      7  O   UNL     1      -1.169  -1.833   2.669  0.00  0.00    -0.252 OA
ATOM      8  N   UNL     1      -1.101  -0.542   0.816  0.00  0.00    -0.279 N 
ATOM      9  H   UNL     1      -2.050  -0.410   0.666  0.00  0.00    +0.152 HD
ENDROOT
BRANCH   2  10
ATOM     10  C   UNL     1      -0.018   1.503   0.010  0.00  0.00    +0.138 A 
ATOM     11  C   UNL     1      -1.127   2.255   0.019  0.00  0.00    +0.056 A 
ATOM     12  C   UNL     1      -0.675   3.651   0.027  0.00  0.00    +0.020 A 
ATOM     13  C   UNL     1      -1.322   4.886   0.040  0.00  0.00    +0.011 A 
ATOM     14  C   UNL     1      -0.585   6.037   0.039  0.00  0.00    +0.001 A 
ATOM     15  C   UNL     1       0.801   5.984   0.026  0.00  0.00    +0.004 A 
ATOM     16  C   UNL     1       1.459   4.773   0.013  0.00  0.00    +0.047 A 
ATOM     17  C   UNL     1       0.729   3.591   0.014  0.00  0.00    +0.135 A 
ATOM     18  O   UNL     1       1.073   2.287   0.004  0.00  0.00    -0.457 OA
ENDBRANCH   2  10
BRANCH   5  19
ATOM     19  C   UNL     1       1.673  -1.934   2.700  0.00  0.00    +0.213 C 
BRANCH  19  20
ATOM     20  C   UNL     1       2.004  -1.006   3.840  0.00  0.00    +0.232 C 
ATOM     21  O   UNL     1       1.555   0.121   3.854  0.00  0.00    -0.274 OA
ATOM     22  N   UNL     1       2.799  -1.427   4.843  0.00  0.00    -0.303 N 
ATOM     23  H   UNL     1       3.158  -2.328   4.832  0.00  0.00    +0.150 HD
BRANCH  22  24
ATOM     24  C   UNL     1       3.120  -0.525   5.952  0.00  0.00    +0.140 C 
BRANCH  24  25
ATOM     25  C   UNL     1       3.462  -1.334   7.176  0.00  0.00    -0.022 A 
ATOM     26  C   UNL     1       4.214  -2.488   7.054  0.00  0.00    +0.006 A 
ATOM     27  C   UNL     1       4.532  -3.228   8.177  0.00  0.00    +0.000 A 
ATOM     28  C   UNL     1       4.089  -2.820   9.422  0.00  0.00    +0.000 A 
ATOM     29  C   UNL     1       3.332  -1.669   9.543  0.00  0.00    +0.000 A 
ATOM     30  C   UNL     1       3.019  -0.927   8.420  0.00  0.00    +0.006 A 
ENDBRANCH  24  25
BRANCH  24  31
ATOM     31  C   UNL     1       4.299   0.336   5.573  0.00  0.00    +0.014 A 
ATOM     32  C   UNL     1       4.510   1.651   5.822  0.00  0.00    +0.013 A 
ATOM     33  C   UNL     1       5.679   2.239   5.375  0.00  0.00    +0.008 A 
ATOM     34  C   UNL     1       6.579   1.482   4.701  0.00  0.00    +0.045 A 
ATOM     35  S   UNL     1       5.782  -0.116   4.688  0.00  0.00    -0.099 S 
ENDBRANCH  24  31
ENDBRANCH  22  24
ENDBRANCH  19  20
ENDBRANCH   5  19
TORSDOF 6
