REMARK  Name = ZINC40529942
REMARK  11 active torsions:
REMARK  status: ('A' for Active; 'I' for Inactive)
REMARK    1  A    between atoms: C_2  and  C_3
REMARK    2  A    between atoms: C_3  and  O_4
REMARK    3  A    between atoms: O_4  and  C_5
REMARK    4  A    between atoms: C_9  and  C_11
REMARK    5  A    between atoms: C_16  and  O_25
REMARK    6  A    between atoms: C_20  and  N_24
REMARK    7  A    between atoms: C_21  and  C_22
REMARK    8  A    between atoms: O_25  and  C_26
REMARK    9  A    between atoms: C_26  and  C_28
REMARK   10  A    between atoms: C_28  and  C_29
REMARK   11  A    between atoms: C_28  and  C_35
REMARK                            x       y       z     vdW  Elec       q    Type
REMARK                         _______ _______ _______ _____ _____    ______ ____
ROOT
ATOM      1  C   UNL     1       1.360  -6.894   3.910  0.00  0.00    +0.098 C 
ATOM      2  C   UNL     1       1.998  -7.911   3.001  0.00  0.00    +0.008 A 
ATOM      3  C   UNL     1       1.195  -8.725   2.221  0.00  0.00    +0.012 A 
ATOM      4  C   UNL     1       1.762  -9.663   1.382  0.00  0.00    +0.047 A 
ATOM      5  C   UNL     1       3.143  -9.792   1.318  0.00  0.00    +0.135 A 
ATOM      6  C   UNL     1       3.949  -8.979   2.098  0.00  0.00    +0.093 A 
ATOM      7  C   UNL     1       3.377  -8.035   2.941  0.00  0.00    +0.138 A 
ATOM      8  O   UNL     1       4.180  -7.247   3.698  0.00  0.00    -0.441 OA
ATOM      9  C   UNL     1       3.681  -6.620   4.776  0.00  0.00    +0.199 C 
ATOM     10  C   UNL     1       2.354  -6.421   4.934  0.00  0.00    +0.098 C 
ENDROOT
BRANCH   1  15
ATOM     11  C   UNL     1      -0.883  -4.299   2.326  0.00  0.00    +0.121 A 
ATOM     12  C   UNL     1       0.030  -3.560   1.588  0.00  0.00    +0.045 A 
ATOM     13  C   UNL     1       1.368  -3.903   1.604  0.00  0.00    +0.004 A 
ATOM     14  C   UNL     1       1.797  -4.981   2.356  0.00  0.00    +0.005 A 
ATOM     15  C   UNL     1       0.889  -5.719   3.092  0.00  0.00    -0.031 A 
ATOM     16  C   UNL     1      -0.449  -5.377   3.084  0.00  0.00    +0.050 A 
BRANCH  11  17
ATOM     17  O   UNL     1      -2.200  -3.963   2.312  0.00  0.00    -0.488 OA
BRANCH  17  18
ATOM     18  C   UNL     1      -2.575  -2.841   1.510  0.00  0.00    +0.256 C 
BRANCH  18  20
ATOM     19  C   UNL     1      -4.534  -1.412   1.792  0.00  0.00    +0.007 C 
ATOM     20  C   UNL     1      -4.062  -2.622   1.617  0.00  0.00    +0.006 C 
ENDBRANCH  18  20
ENDBRANCH  17  18
ENDBRANCH  11  17
ENDBRANCH   1  15
BRANCH   9  21
ATOM     21  N   UNL     1       4.544  -6.169   5.743  0.00  0.00    -0.328 N 
ATOM     22  H   UNL     1       5.499  -6.305   5.643  0.00  0.00    +0.145 HD
ATOM     23  H   UNL     1       4.198  -5.715   6.527  0.00  0.00    +0.145 HD
ENDBRANCH   9  21
BRANCH  10  24
ATOM     24  C   UNL     1       1.886  -5.744   6.106  0.00  0.00    +0.101 C 
ATOM     25  N   UNL     1       1.515  -5.207   7.035  0.00  0.00    -0.191 NA
ENDBRANCH  10  24
BRANCH   5  26
ATOM     26  O   UNL     1       3.703 -10.715   0.492  0.00  0.00    -0.425 OA
BRANCH  26  27
ATOM     27  C   UNL     1       4.313 -11.773   1.051  0.00  0.00    +0.324 C 
ATOM     28  O   UNL     1       4.264 -11.936   2.247  0.00  0.00    -0.249 OA
BRANCH  27  29
ATOM     29  C   UNL     1       5.059 -12.756   0.186  0.00  0.00    +0.158 C 
BRANCH  29  30
ATOM     30  C   UNL     1       5.647 -13.840   1.052  0.00  0.00    -0.029 A 
ATOM     31  C   UNL     1       7.001 -14.114   0.991  0.00  0.00    +0.005 A 
ATOM     32  C   UNL     1       7.541 -15.109   1.785  0.00  0.00    +0.000 A 
ATOM     33  C   UNL     1       6.727 -15.830   2.639  0.00  0.00    +0.000 A 
ATOM     34  C   UNL     1       5.374 -15.555   2.700  0.00  0.00    +0.000 A 
ATOM     35  C   UNL     1       4.835 -14.557   1.909  0.00  0.00    +0.005 A 
ENDBRANCH  29  30
BRANCH  29  36
ATOM     36  C   UNL     1       4.110 -13.368  -0.811  0.00  0.00    -0.029 A 
ATOM     37  C   UNL     1       2.914 -13.913  -0.383  0.00  0.00    +0.005 A 
ATOM     38  C   UNL     1       2.044 -14.475  -1.298  0.00  0.00    +0.000 A 
ATOM     39  C   UNL     1       2.369 -14.492  -2.642  0.00  0.00    +0.000 A 
ATOM     40  C   UNL     1       3.565 -13.946  -3.070  0.00  0.00    +0.000 A 
ATOM     41  C   UNL     1       4.433 -13.380  -2.155  0.00  0.00    +0.005 A 
ENDBRANCH  29  36
ENDBRANCH  27  29
ENDBRANCH  26  27
ENDBRANCH   5  26
TORSDOF 11
