REMARK  Name = ZINC33348721
REMARK  6 active torsions:
REMARK  status: ('A' for Active; 'I' for Inactive)
REMARK    1  A    between atoms: C_1  and  C_2
REMARK    2  A    between atoms: C_1  and  C_9
REMARK    3  A    between atoms: C_2  and  C_3
REMARK    4  A    between atoms: C_3  and  C_4
REMARK    5  A    between atoms: C_9  and  C_10
REMARK    6  A    between atoms: C_10  and  C_11
REMARK                            x       y       z     vdW  Elec       q    Type
REMARK                         _______ _______ _______ _____ _____    ______ ____
ROOT
ATOM      1  C   UNL     1      -0.019   1.526   0.010  0.00  0.00    +0.001 C 
ENDROOT
BRANCH   1   2
ATOM      2  C   UNL     1       0.002  -0.004   0.002  0.00  0.00    +0.008 C 
BRANCH   2   3
ATOM      3  C   UNL     1      -1.433  -0.534   0.013  0.00  0.00    +0.080 C 
BRANCH   3   4
ATOM      4  C   UNL     1      -1.413  -2.041   0.005  0.00  0.00    +0.177 A 
ATOM      5  N   UNL     1      -1.407  -2.825  -1.063  0.00  0.00    -0.111 NA
ATOM      6  N   UNL     1      -1.388  -4.046  -0.650  0.00  0.00    -0.021 NA
ATOM      7  N   UNL     1      -1.382  -4.053   0.637  0.00  0.00    -0.021 NA
ATOM      8  N   UNL     1      -1.392  -2.836   1.064  0.00  0.00    -0.111 NA
ENDBRANCH   3   4
ENDBRANCH   2   3
ENDBRANCH   1   2
BRANCH   1   9
ATOM      9  C   UNL     1       1.417   2.055  -0.000  0.00  0.00    +0.008 C 
BRANCH   9  10
ATOM     10  C   UNL     1       1.396   3.585   0.008  0.00  0.00    +0.080 C 
BRANCH  10  11
ATOM     11  C   UNL     1       2.810   4.107  -0.003  0.00  0.00    +0.177 A 
ATOM     12  N   UNL     1       3.563   4.369   1.055  0.00  0.00    -0.111 NA
ATOM     13  N   UNL     1       4.702   4.795   0.627  0.00  0.00    -0.021 NA
ATOM     14  N   UNL     1       4.688   4.808  -0.661  0.00  0.00    -0.021 NA
ATOM     15  N   UNL     1       3.541   4.386  -1.072  0.00  0.00    -0.111 NA
ENDBRANCH  10  11
ENDBRANCH   9  10
ENDBRANCH   1   9
TORSDOF 6
