REMARK  Name = ZINC20589221
REMARK  10 active torsions:
REMARK  status: ('A' for Active; 'I' for Inactive)
REMARK    1  A    between atoms: C_1  and  O_2
REMARK    2  A    between atoms: O_2  and  C_3
REMARK    3  A    between atoms: C_6  and  C_9
REMARK    4  A    between atoms: C_9  and  C_10
REMARK    5  A    between atoms: N_12  and  C_13
REMARK    6  A    between atoms: C_13  and  C_15
REMARK    7  A    between atoms: C_13  and  C_19
REMARK    8  A    between atoms: C_15  and  C_16
REMARK    9  A    between atoms: C_16  and  S_17
REMARK   10  A    between atoms: S_17  and  C_18
REMARK                            x       y       z     vdW  Elec       q    Type
REMARK                         _______ _______ _______ _____ _____    ______ ____
ROOT
ATOM      1  C   UNL     1       6.880  -3.639  -6.011  0.00  0.00    +0.236 C 
ATOM      2  O   UNL     1       6.228  -3.801  -7.021  0.00  0.00    -0.274 OA
ATOM      3  N   UNL     1       8.225  -3.571  -6.081  0.00  0.00    -0.300 N 
ATOM      4  C   UNL     1       9.035  -3.494  -4.858  0.00  0.00    +0.110 C 
ATOM      5  C   UNL     1       9.961  -2.278  -4.957  0.00  0.00    +0.047 C 
ATOM      6  C   UNL     1      10.775  -2.365  -6.248  0.00  0.00    +0.064 C 
ATOM      7  C   UNL     1       9.836  -2.357  -7.454  0.00  0.00    +0.047 C 
ATOM      8  C   UNL     1       8.908  -3.580  -7.382  0.00  0.00    +0.110 C 
ATOM      9  C   UNL     1      11.719  -1.193  -6.332  0.00  0.00    +0.057 A 
ATOM     10  C   UNL     1      13.044  -1.289  -6.072  0.00  0.00    +0.039 A 
ATOM     11  N   UNL     1      13.577  -0.052  -6.246  0.00  0.00    -0.349 N 
ATOM     12  H   UNL     1      14.508   0.196  -6.134  0.00  0.00    +0.166 HD
ATOM     13  C   UNL     1      12.563   0.768  -6.607  0.00  0.00    +0.171 A 
ATOM     14  N   UNL     1      11.455   0.073  -6.655  0.00  0.00    -0.348 N 
ATOM     15  C   UNL     1      13.720  -2.573  -5.666  0.00  0.00    +0.070 C 
ATOM     16  C   UNL     1      12.630  -3.564  -5.232  0.00  0.00    +0.088 C 
ATOM     17  N   UNL     1      11.568  -3.604  -6.247  0.00  0.00    -0.305 NA
ATOM     18  H   UNL     1      10.976  -4.412  -6.120  0.00  0.00    +0.123 HD
ATOM     19  H   UNL     1      10.581   0.424  -6.888  0.00  0.00    +0.166 HD
ENDROOT
BRANCH   1  20
ATOM     20  C   UNL     1       6.188  -3.513  -4.679  0.00  0.00    +0.160 C 
BRANCH  20  23
ATOM     21  C   UNL     1       4.158  -2.410  -3.904  0.00  0.00    +0.218 C 
ATOM     22  O   UNL     1       4.715  -2.192  -2.849  0.00  0.00    -0.275 OA
ATOM     23  N   UNL     1       4.808  -3.065  -4.886  0.00  0.00    -0.304 N 
ATOM     24  H   UNL     1       4.363  -3.240  -5.730  0.00  0.00    +0.149 HD
BRANCH  21  25
ATOM     25  C   UNL     1       2.739  -1.949  -4.117  0.00  0.00    +0.130 C 
BRANCH  25  29
ATOM     26  C   UNL     1       1.343   0.036  -0.599  0.00  0.00    +0.120 A 
ATOM     27  C   UNL     1       1.974   0.759  -1.601  0.00  0.00    +0.046 A 
ATOM     28  C   UNL     1       2.425   0.115  -2.737  0.00  0.00    +0.007 A 
ATOM     29  C   UNL     1       2.247  -1.249  -2.876  0.00  0.00    -0.038 A 
ATOM     30  C   UNL     1       1.618  -1.972  -1.879  0.00  0.00    +0.007 A 
ATOM     31  C   UNL     1       1.171  -1.333  -0.739  0.00  0.00    +0.046 A 
BRANCH  26  33
ATOM     32  C   UNL     1       1.111   2.079   0.595  0.00  0.00    +0.277 C 
ATOM     33  O   UNL     1       0.899   0.668   0.519  0.00  0.00    -0.495 OA
ENDBRANCH  26  33
ENDBRANCH  25  29
ENDBRANCH  21  25
ENDBRANCH  20  23
BRANCH  20  34
ATOM     34  C   UNL     1       6.182  -4.872  -3.976  0.00  0.00    +0.042 C 
BRANCH  34  35
ATOM     35  C   UNL     1       5.607  -4.716  -2.567  0.00  0.00    +0.071 C 
BRANCH  35  36
ATOM     36  S   UNL     1       5.601  -6.327  -1.734  0.00  0.00    -0.164 S 
ATOM     37  C   UNL     1       4.900  -5.973  -0.099  0.00  0.00    +0.084 C 
ENDBRANCH  35  36
ENDBRANCH  34  35
ENDBRANCH  20  34
ENDBRANCH   1  20
TORSDOF 8
