REMARK  Name = ZINC35745906
REMARK  17 active torsions:
REMARK  status: ('A' for Active; 'I' for Inactive)
REMARK    1  A    between atoms: C_1  and  C_2
REMARK    2  A    between atoms: C_2  and  C_3
REMARK    3  A    between atoms: C_2  and  O_4
REMARK    4  A    between atoms: O_4  and  C_5
REMARK    5  A    between atoms: C_5  and  C_6
REMARK    6  A    between atoms: C_6  and  C_8
REMARK    7  A    between atoms: C_6  and  O_38
REMARK    8  A    between atoms: C_8  and  N_9
REMARK    9  A    between atoms: N_9  and  C_10
REMARK   10  A    between atoms: N_9  and  C_16
REMARK   11  A    between atoms: C_10  and  C_11
REMARK   12  A    between atoms: C_16  and  C_17
REMARK   13  A    between atoms: C_23  and  C_28
REMARK   14  A    between atoms: C_31  and  O_36
REMARK   15  A    between atoms: C_32  and  O_34
REMARK   16  A    between atoms: O_34  and  C_35
REMARK   17  A    between atoms: O_36  and  C_37
REMARK                            x       y       z     vdW  Elec       q    Type
REMARK                         _______ _______ _______ _____ _____    ______ ____
ROOT
ATOM      1  C   UNL     1      -6.800  -4.900  -2.048  0.00  0.00    +0.094 A 
ATOM      2  N   UNL     1      -7.432  -5.905  -2.706  0.00  0.00    -0.312 N 
ATOM      3  H   UNL     1      -6.916  -6.504  -3.267  0.00  0.00    +0.170 HD
ATOM      4  C   UNL     1      -8.761  -6.086  -2.595  0.00  0.00    +0.260 A 
ATOM      5  O   UNL     1      -9.315  -6.993  -3.192  0.00  0.00    -0.267 OA
ATOM      6  C   UNL     1      -9.516  -5.197  -1.764  0.00  0.00    +0.080 A 
ATOM      7  C   UNL     1     -10.946  -5.186  -1.485  0.00  0.00    +0.004 A 
ATOM      8  C   UNL     1     -11.441  -4.236  -0.655  0.00  0.00    +0.056 A 
ATOM      9  S   UNL     1      -9.998  -3.294  -0.199  0.00  0.00    -0.076 S 
ATOM     10  C   UNL     1      -8.776  -4.189  -1.124  0.00  0.00    +0.116 A 
ATOM     11  N   UNL     1      -7.460  -4.076  -1.279  0.00  0.00    -0.229 NA
ENDROOT
BRANCH   7  12
ATOM     12  C   UNL     1     -11.843  -6.196  -2.097  0.00  0.00    -0.013 A 
ATOM     13  C   UNL     1     -11.791  -6.434  -3.470  0.00  0.00    +0.012 A 
ATOM     14  C   UNL     1     -12.627  -7.374  -4.039  0.00  0.00    +0.050 A 
ATOM     15  C   UNL     1     -13.518  -8.083  -3.249  0.00  0.00    +0.162 A 
ATOM     16  C   UNL     1     -13.574  -7.849  -1.877  0.00  0.00    +0.162 A 
ATOM     17  C   UNL     1     -12.736  -6.912  -1.301  0.00  0.00    +0.058 A 
BRANCH  16  18
ATOM     18  O   UNL     1     -14.450  -8.545  -1.104  0.00  0.00    -0.491 OA
ATOM     19  C   UNL     1     -14.453  -8.254   0.295  0.00  0.00    +0.277 C 
ENDBRANCH  16  18
BRANCH  15  20
ATOM     20  O   UNL     1     -14.340  -9.007  -3.814  0.00  0.00    -0.491 OA
ATOM     21  C   UNL     1     -14.230  -9.196  -5.226  0.00  0.00    +0.277 C 
ENDBRANCH  15  20
ENDBRANCH   7  12
BRANCH   1  22
ATOM     22  C   UNL     1      -5.310  -4.736  -2.202  0.00  0.00    -0.003 C 
BRANCH  22  23
ATOM     23  N   UNL     1      -4.856  -3.595  -1.396  0.00  0.00    +0.391 N 
ATOM     24  H   UNL     1      -5.380  -2.772  -1.653  0.00  0.00    -0.080 HD
BRANCH  23  25
ATOM     25  C   UNL     1      -3.427  -3.361  -1.639  0.00  0.00    -0.044 C 
BRANCH  25  26
ATOM     26  C   UNL     1      -3.221  -2.918  -3.089  0.00  0.00    +0.124 C 
BRANCH  26  27
ATOM     27  O   UNL     1      -3.918  -1.692  -3.315  0.00  0.00    -0.391 OA
ATOM     28  H   UNL     1      -3.581  -0.946  -2.800  0.00  0.00    +0.210 HD
ENDBRANCH  26  27
BRANCH  26  29
ATOM     29  C   UNL     1      -1.728  -2.712  -3.353  0.00  0.00    +0.189 C 
BRANCH  29  30
ATOM     30  O   UNL     1      -1.526  -2.413  -4.735  0.00  0.00    -0.375 OA
BRANCH  30  32
ATOM     31  C   UNL     1       0.063  -2.624  -6.543  0.00  0.00    +0.037 C 
ATOM     32  C   UNL     1      -0.158  -2.201  -5.090  0.00  0.00    +0.112 C 
ATOM     33  C   UNL     1       0.187  -0.719  -4.932  0.00  0.00    +0.037 C 
ENDBRANCH  30  32
ENDBRANCH  29  30
ENDBRANCH  26  29
ENDBRANCH  25  26
ENDBRANCH  23  25
BRANCH  23  34
ATOM     34  C   UNL     1      -5.070  -3.886   0.028  0.00  0.00    -0.002 C 
BRANCH  34  35
ATOM     35  C   UNL     1      -4.740  -2.663   0.846  0.00  0.00    +0.089 A 
ATOM     36  C   UNL     1      -5.573  -1.637   1.097  0.00  0.00    +0.042 A 
ATOM     37  C   UNL     1      -4.858  -0.716   1.896  0.00  0.00    +0.041 A 
ATOM     38  C   UNL     1      -3.631  -1.234   2.084  0.00  0.00    +0.195 A 
ATOM     39  O   UNL     1      -3.567  -2.416   1.451  0.00  0.00    -0.470 OA
ENDBRANCH  34  35
ENDBRANCH  23  34
ENDBRANCH  22  23
ENDBRANCH   1  22
TORSDOF 13
