REMARK  Name = ZINC32889214
REMARK  8 active torsions:
REMARK  status: ('A' for Active; 'I' for Inactive)
REMARK    1  A    between atoms: C_1  and  C_2
REMARK    2  A    between atoms: C_3  and  C_24
REMARK    3  A    between atoms: C_4  and  C_23
REMARK    4  A    between atoms: C_7  and  C_8
REMARK    5  A    between atoms: N_10  and  C_11
REMARK    6  A    between atoms: C_11  and  C_13
REMARK    7  A    between atoms: C_11  and  C_14
REMARK    8  A    between atoms: C_24  and  C_26
REMARK                            x       y       z     vdW  Elec       q    Type
REMARK                         _______ _______ _______ _____ _____    ______ ____
ROOT
ATOM      1  C   UNL     1       2.500   1.327  -0.011  0.00  0.00    +0.261 C 
ATOM      2  O   UNL     1       3.404   2.142  -0.007  0.00  0.00    -0.269 OA
ATOM      3  N   UNL     1       2.780   0.009  -0.028  0.00  0.00    -0.304 N 
ATOM      4  H   UNL     1       1.963  -0.727  -0.032  0.00  0.00    +0.150 HD
ENDROOT
BRANCH   1  11
ATOM      5  C   UNL     1       1.565   4.302   0.029  0.00  0.00    +0.047 C 
ATOM      6  C   UNL     1       0.686   3.078   0.020  0.00  0.00    -0.010 A 
ATOM      7  C   UNL     1      -0.729   3.057   0.029  0.00  0.00    +0.041 A 
ATOM      8  C   UNL     1      -1.114   1.726   0.010  0.00  0.00    +0.024 A 
ATOM      9  N   UNL     1      -0.009   0.966  -0.001  0.00  0.00    -0.354 N 
ATOM     10  H   UNL     1      -0.095  -0.130  -0.010  0.00  0.00    +0.166 HD
ATOM     11  C   UNL     1       1.103   1.781   0.002  0.00  0.00    +0.106 A 
ATOM     12  C   UNL     1      -2.533   1.218   0.007  0.00  0.00    +0.064 C 
BRANCH   7  13
ATOM     13  C   UNL     1      -1.619   4.222   0.047  0.00  0.00    +0.162 C 
ATOM     14  O   UNL     1      -1.925   4.769  -0.992  0.00  0.00    -0.292 OA
ATOM     15  C   UNL     1      -2.152   4.742   1.357  0.00  0.00    +0.091 C 
ENDBRANCH   7  13
ENDBRANCH   1  11
BRANCH   3  16
ATOM     16  C   UNL     1       4.174  -0.443  -0.042  0.00  0.00    +0.101 C 
ATOM     17  C   UNL     1       4.706  -0.498   1.392  0.00  0.00    +0.033 C 
BRANCH  16  18
ATOM     18  C   UNL     1       4.250  -1.816  -0.659  0.00  0.00    -0.024 A 
ATOM     19  C   UNL     1       3.280  -2.757  -0.370  0.00  0.00    +0.009 A 
ATOM     20  C   UNL     1       3.345  -4.017  -0.934  0.00  0.00    +0.050 A 
ATOM     21  C   UNL     1       4.385  -4.340  -1.791  0.00  0.00    +0.166 A 
ATOM     22  C   UNL     1       5.363  -3.392  -2.081  0.00  0.00    +0.167 A 
ATOM     23  C   UNL     1       5.288  -2.130  -1.516  0.00  0.00    +0.055 A 
ATOM     24  O   UNL     1       6.268  -3.948  -2.940  0.00  0.00    -0.453 OA
ATOM     25  C   UNL     1       5.613  -5.106  -3.491  0.00  0.00    +0.466 C 
ATOM     26  O   UNL     1       4.677  -5.490  -2.467  0.00  0.00    -0.453 OA
ENDBRANCH  16  18
ENDBRANCH   3  16
TORSDOF 4
