REMARK  Name = ZINC42029569
REMARK  4 active torsions:
REMARK  status: ('A' for Active; 'I' for Inactive)
REMARK    1  A    between atoms: C_1  and  C_2
REMARK    2  A    between atoms: C_3  and  C_9
REMARK    3  A    between atoms: C_7  and  N_8
REMARK    4  A    between atoms: N_13  and  C_14
REMARK                            x       y       z     vdW  Elec       q    Type
REMARK                         _______ _______ _______ _____ _____    ______ ____
ROOT
ATOM      1  C   UNL     1      -0.053   0.042  -2.490  0.00  0.00    +0.187 A 
ATOM      2  N   UNL     1      -0.141   1.347  -2.638  0.00  0.00    -0.108 NA
ATOM      3  N   UNL     1      -0.072   1.665  -3.880  0.00  0.00    -0.022 NA
ATOM      4  N   UNL     1       0.062   0.612  -4.611  0.00  0.00    -0.039 NA
ATOM      5  N   UNL     1       0.086  -0.490  -3.739  0.00  0.00    -0.190 N 
ENDROOT
BRANCH   5   6
ATOM      6  C   UNL     1       0.220  -1.844  -4.079  0.00  0.00    +0.107 A 
ATOM      7  C   UNL     1      -0.645  -2.786  -3.539  0.00  0.00    +0.031 A 
ATOM      8  C   UNL     1      -0.511  -4.119  -3.874  0.00  0.00    +0.005 A 
ATOM      9  C   UNL     1       0.483  -4.518  -4.748  0.00  0.00    +0.041 A 
ATOM     10  C   UNL     1       1.349  -3.584  -5.289  0.00  0.00    +0.161 A 
ATOM     11  C   UNL     1       1.216  -2.244  -4.961  0.00  0.00    +0.184 A 
ATOM     12  F   UNL     1       2.057  -1.330  -5.493  0.00  0.00    -0.200 F 
ATOM     13  F   UNL     1       2.320  -3.977  -6.142  0.00  0.00    -0.202 F 
ENDBRANCH   5   6
BRANCH   1  16
ATOM     14  C   UNL     1      -2.127   0.616  -0.558  0.00  0.00    +0.046 C 
ATOM     15  C   UNL     1      -1.086  -0.436  -0.275  0.00  0.00    -0.019 A 
ATOM     16  C   UNL     1      -0.091  -0.705  -1.213  0.00  0.00    +0.026 A 
ATOM     17  C   UNL     1       0.870  -1.681  -0.945  0.00  0.00    +0.012 A 
ATOM     18  C   UNL     1       0.833  -2.376   0.247  0.00  0.00    +0.002 A 
ATOM     19  C   UNL     1      -0.154  -2.111   1.177  0.00  0.00    +0.023 A 
ATOM     20  C   UNL     1      -1.113  -1.136   0.921  0.00  0.00    +0.028 A 
BRANCH  20  21
ATOM     21  N   UNL     1      -2.105  -0.867   1.867  0.00  0.00    -0.358 N 
ATOM     22  H   UNL     1      -2.776  -0.190   1.686  0.00  0.00    +0.142 HD
ATOM     23  H   UNL     1      -2.123  -1.357   2.704  0.00  0.00    +0.142 HD
ENDBRANCH  20  21
ENDBRANCH   1  16
TORSDOF 3
