REMARK  Name = ZINC21249972
REMARK  11 active torsions:
REMARK  status: ('A' for Active; 'I' for Inactive)
REMARK    1  A    between atoms: C_1  and  C_2
REMARK    2  A    between atoms: C_2  and  C_3
REMARK    3  A    between atoms: C_2  and  O_4
REMARK    4  A    between atoms: O_4  and  C_5
REMARK    5  A    between atoms: C_8  and  C_13
REMARK    6  A    between atoms: C_10  and  O_11
REMARK    7  A    between atoms: O_11  and  C_12
REMARK    8  A    between atoms: C_18  and  C_23
REMARK    9  A    between atoms: C_26  and  N_29
REMARK   10  A    between atoms: N_29  and  C_30
REMARK   11  A    between atoms: N_29  and  C_31
REMARK                            x       y       z     vdW  Elec       q    Type
REMARK                         _______ _______ _______ _____ _____    ______ ____
ROOT
ATOM      1  C   UNL     1      -1.357  -0.930   0.030  0.00  0.00    +0.136 C 
ATOM      2  C   UNL     1      -0.071  -0.142   0.125  0.00  0.00    +0.036 C 
ATOM      3  C   UNL     1       0.032   1.196   0.144  0.00  0.00    +0.017 C 
ATOM      4  C   UNL     1       1.399   1.859   0.210  0.00  0.00    +0.059 C 
ATOM      5  C   UNL     1       2.358   0.991   1.024  0.00  0.00    +0.032 C 
ATOM      6  C   UNL     1       2.464  -0.369   0.324  0.00  0.00    +0.088 C 
ATOM      7  C   UNL     1       1.088  -0.950   0.197  0.00  0.00    +0.163 C 
ATOM      8  O   UNL     1       0.964  -2.158   0.153  0.00  0.00    -0.292 OA
ATOM      9  N   UNL     1      -1.012   2.063   0.113  0.00  0.00    -0.316 N 
ATOM     10  C   UNL     1      -2.082   1.980  -0.778  0.00  0.00    +0.052 A 
ATOM     11  C   UNL     1      -2.353   2.970  -1.705  0.00  0.00    +0.025 A 
ATOM     12  C   UNL     1      -3.480   2.861  -2.503  0.00  0.00    +0.002 A 
ATOM     13  C   UNL     1      -4.322   1.771  -2.374  0.00  0.00    +0.002 A 
ATOM     14  C   UNL     1      -4.039   0.770  -1.462  0.00  0.00    +0.025 A 
ATOM     15  C   UNL     1      -2.902   0.867  -0.673  0.00  0.00    +0.049 A 
ATOM     16  N   UNL     1      -2.555  -0.141   0.223  0.00  0.00    -0.331 N 
ATOM     17  H   UNL     1      -1.053   2.901   0.824  0.00  0.00    +0.152 HD
ATOM     18  H   UNL     1      -3.207  -0.332   1.087  0.00  0.00    +0.147 HD
ENDROOT
BRANCH   1  22
ATOM     19  C   UNL     1      -1.544  -2.761  -3.830  0.00  0.00    +0.162 A 
ATOM     20  C   UNL     1      -1.567  -1.381  -3.713  0.00  0.00    +0.050 A 
ATOM     21  C   UNL     1      -1.507  -0.792  -2.463  0.00  0.00    +0.009 A 
ATOM     22  C   UNL     1      -1.423  -1.578  -1.329  0.00  0.00    -0.019 A 
ATOM     23  C   UNL     1      -1.394  -2.955  -1.439  0.00  0.00    +0.055 A 
ATOM     24  C   UNL     1      -1.460  -3.552  -2.688  0.00  0.00    +0.162 A 
BRANCH  24  25
ATOM     25  O   UNL     1      -1.437  -4.907  -2.798  0.00  0.00    -0.491 OA
ATOM     26  C   UNL     1      -1.349  -5.655  -1.583  0.00  0.00    +0.277 C 
ENDBRANCH  24  25
BRANCH  19  27
ATOM     27  O   UNL     1      -1.602  -3.342  -5.058  0.00  0.00    -0.486 OA
BRANCH  27  29
ATOM     28  C   UNL     1      -1.200  -3.178  -7.436  0.00  0.00    +0.051 C 
ATOM     29  C   UNL     1      -1.721  -2.469  -6.184  0.00  0.00    +0.167 C 
ATOM     30  C   UNL     1      -3.190  -2.092  -6.384  0.00  0.00    +0.051 C 
ENDBRANCH  27  29
ENDBRANCH  19  27
ENDBRANCH   1  22
BRANCH   5  31
ATOM     31  C   UNL     1       3.715   1.644   1.081  0.00  0.00    -0.043 A 
ATOM     32  C   UNL     1       4.396   1.923  -0.089  0.00  0.00    +0.006 A 
ATOM     33  C   UNL     1       5.637   2.526  -0.041  0.00  0.00    +0.023 A 
ATOM     34  C   UNL     1       6.206   2.843   1.186  0.00  0.00    +0.029 A 
ATOM     35  C   UNL     1       5.522   2.556   2.360  0.00  0.00    +0.023 A 
ATOM     36  C   UNL     1       4.279   1.958   2.304  0.00  0.00    +0.006 A 
BRANCH  34  37
ATOM     37  N   UNL     1       7.464   3.449   1.239  0.00  0.00    -0.336 N 
ATOM     38  C   UNL     1       8.008   3.897   2.523  0.00  0.00    +0.129 C 
ATOM     39  C   UNL     1       8.239   3.635   0.010  0.00  0.00    +0.129 C 
ENDBRANCH  34  37
ENDBRANCH   5  31
TORSDOF 6
