REMARK  Name = ZINC09380728
REMARK  15 active torsions:
REMARK  status: ('A' for Active; 'I' for Inactive)
REMARK    1  A    between atoms: C_1  and  C_2
REMARK    2  A    between atoms: C_2  and  C_30
REMARK    3  A    between atoms: N_3  and  N_4
REMARK    4  A    between atoms: C_5  and  C_7
REMARK    5  A    between atoms: C_7  and  S_8
REMARK    6  A    between atoms: S_8  and  C_9
REMARK    7  A    between atoms: C_12  and  C_20
REMARK    8  A    between atoms: N_13  and  C_14
REMARK    9  A    between atoms: C_23  and  C_26
REMARK   10  A    between atoms: C_26  and  C_27
REMARK   11  A    between atoms: C_26  and  C_28
REMARK   12  A    between atoms: C_26  and  C_29
REMARK   13  A    between atoms: C_33  and  O_38
REMARK   14  A    between atoms: C_34  and  O_36
REMARK   15  A    between atoms: O_36  and  C_37
REMARK                            x       y       z     vdW  Elec       q    Type
REMARK                         _______ _______ _______ _____ _____    ______ ____
ROOT
ATOM      1  C   UNL     1      -5.203   0.931   2.172  0.00  0.00    +0.197 A 
ATOM      2  N   UNL     1      -4.425  -0.126   2.253  0.00  0.00    -0.122 NA
ATOM      3  N   UNL     1      -3.198   0.237   2.380  0.00  0.00    -0.128 NA
ATOM      4  C   UNL     1      -3.115   1.547   2.388  0.00  0.00    +0.169 A 
ATOM      5  N   UNL     1      -4.398   2.034   2.261  0.00  0.00    -0.270 N 
ENDROOT
BRANCH   5   6
ATOM      6  C   UNL     1      -4.795   3.378   2.227  0.00  0.00    +0.051 A 
ATOM      7  C   UNL     1      -4.728   4.152   3.377  0.00  0.00    +0.026 A 
ATOM      8  C   UNL     1      -5.113   5.478   3.338  0.00  0.00    +0.002 A 
ATOM      9  C   UNL     1      -5.578   6.030   2.159  0.00  0.00    +0.000 A 
ATOM     10  C   UNL     1      -5.652   5.260   1.013  0.00  0.00    +0.002 A 
ATOM     11  C   UNL     1      -5.261   3.935   1.044  0.00  0.00    +0.026 A 
ENDBRANCH   5   6
BRANCH   4  12
ATOM     12  C   UNL     1      -1.880   2.348   2.515  0.00  0.00    +0.020 A 
ATOM     13  C   UNL     1      -1.877   3.696   2.151  0.00  0.00    +0.012 A 
ATOM     14  C   UNL     1      -0.722   4.439   2.278  0.00  0.00    +0.005 A 
ATOM     15  C   UNL     1       0.434   3.851   2.758  0.00  0.00    -0.042 A 
ATOM     16  C   UNL     1       0.440   2.514   3.116  0.00  0.00    +0.005 A 
ATOM     17  C   UNL     1      -0.709   1.759   2.995  0.00  0.00    +0.012 A 
BRANCH  15  18
ATOM     18  C   UNL     1       1.692   4.669   2.894  0.00  0.00    -0.013 C 
ATOM     19  C   UNL     1       1.442   5.834   3.853  0.00  0.00    +0.015 C 
ATOM     20  C   UNL     1       2.816   3.789   3.443  0.00  0.00    +0.015 C 
ATOM     21  C   UNL     1       2.095   5.215   1.522  0.00  0.00    +0.015 C 
ENDBRANCH  15  18
ENDBRANCH   4  12
BRANCH   1  22
ATOM     22  S   UNL     1      -6.955   0.927   1.992  0.00  0.00    -0.076 S 
BRANCH  22  23
ATOM     23  C   UNL     1      -7.264  -0.856   1.961  0.00  0.00    +0.174 C 
BRANCH  23  25
ATOM     24  N   UNL     1      -9.210  -2.370   1.762  0.00  0.00    -0.206 N 
ATOM     25  C   UNL     1      -8.743  -1.107   1.809  0.00  0.00    +0.242 C 
ATOM     26  O   UNL     1      -9.512  -0.172   1.730  0.00  0.00    -0.273 OA
ATOM     27  H   UNL     1      -8.596  -3.117   1.825  0.00  0.00    +0.177 HD
BRANCH  24  30
ATOM     28  C   UNL     1     -12.496  -4.085   1.367  0.00  0.00    +0.068 C 
ATOM     29  C   UNL     1     -11.047  -3.814   1.681  0.00  0.00    +0.063 C 
ATOM     30  N   UNL     1     -10.585  -2.603   1.620  0.00  0.00    -0.185 NA
BRANCH  29  31
ATOM     31  C   UNL     1     -10.155  -4.926   2.059  0.00  0.00    +0.001 A 
ATOM     32  C   UNL     1      -9.183  -4.739   3.045  0.00  0.00    +0.013 A 
ATOM     33  C   UNL     1      -8.349  -5.780   3.397  0.00  0.00    +0.050 A 
ATOM     34  C   UNL     1      -8.473  -7.013   2.774  0.00  0.00    +0.158 A 
ATOM     35  C   UNL     1      -9.440  -7.206   1.789  0.00  0.00    +0.162 A 
ATOM     36  C   UNL     1     -10.283  -6.169   1.435  0.00  0.00    +0.059 A 
BRANCH  35  37
ATOM     37  O   UNL     1      -9.559  -8.417   1.181  0.00  0.00    -0.491 OA
ATOM     38  C   UNL     1     -10.571  -8.543   0.180  0.00  0.00    +0.277 C 
ENDBRANCH  35  37
BRANCH  34  39
ATOM     39  O   UNL     1      -7.650  -8.036   3.125  0.00  0.00    -0.503 OA
ATOM     40  H   UNL     1      -7.990  -8.586   3.844  0.00  0.00    +0.292 HD
ENDBRANCH  34  39
ENDBRANCH  29  31
ENDBRANCH  24  30
ENDBRANCH  23  25
ENDBRANCH  22  23
ENDBRANCH   1  22
TORSDOF 10
