REMARK  Name = ZINC13642717
REMARK  8 active torsions:
REMARK  status: ('A' for Active; 'I' for Inactive)
REMARK    1  A    between atoms: C_1  and  C_2
REMARK    2  A    between atoms: C_2  and  C_3
REMARK    3  A    between atoms: C_3  and  N_4
REMARK    4  A    between atoms: N_4  and  S_5
REMARK    5  A    between atoms: S_5  and  C_8
REMARK    6  A    between atoms: C_21  and  C_24
REMARK    7  A    between atoms: N_36  and  C_37
REMARK    8  A    between atoms: C_37  and  C_38
REMARK                            x       y       z     vdW  Elec       q    Type
REMARK                         _______ _______ _______ _____ _____    ______ ____
ROOT
ATOM      1  C   UNL     1       0.371  14.050   0.254  0.00  0.00    +0.106 A 
ATOM      2  C   UNL     1      -0.379  13.595   1.323  0.00  0.00    +0.030 A 
ATOM      3  C   UNL     1      -0.530  12.241   1.538  0.00  0.00    +0.025 A 
ATOM      4  C   UNL     1       0.071  11.324   0.684  0.00  0.00    +0.031 A 
ATOM      5  C   UNL     1       0.839  11.791  -0.388  0.00  0.00    -0.018 A 
ATOM      6  C   UNL     1       0.978  13.146  -0.599  0.00  0.00    +0.034 A 
ATOM      7  C   UNL     1       1.496  10.783  -1.248  0.00  0.00    +0.049 C 
ATOM      8  C   UNL     1       1.837  11.064  -2.666  0.00  0.00    -0.023 C 
ATOM      9  C   UNL     1       1.766   9.926  -3.353  0.00  0.00    -0.030 C 
ATOM     10  C   UNL     1       1.323   8.787  -2.432  0.00  0.00    +0.033 C 
ATOM     11  C   UNL     1       0.550   9.548  -1.347  0.00  0.00    +0.029 C 
ATOM     12  C   UNL     1       0.529   8.941   0.044  0.00  0.00    +0.105 C 
ATOM     13  N   UNL     1      -0.110   9.954   0.913  0.00  0.00    -0.336 N 
ATOM     14  H   UNL     1      -0.663   9.664   1.655  0.00  0.00    +0.147 HD
ENDROOT
BRANCH  12  15
ATOM     15  C   UNL     1      -0.281   7.670   0.045  0.00  0.00    -0.026 A 
ATOM     16  C   UNL     1      -1.666   7.733   0.058  0.00  0.00    +0.007 A 
ATOM     17  C   UNL     1      -2.420   6.580   0.059  0.00  0.00    +0.027 A 
ATOM     18  C   UNL     1      -1.792   5.337   0.047  0.00  0.00    +0.050 A 
ATOM     19  C   UNL     1      -0.391   5.276   0.033  0.00  0.00    +0.008 A 
ATOM     20  C   UNL     1       0.359   6.449   0.033  0.00  0.00    +0.016 A 
ATOM     21  C   UNL     1      -0.036   3.845   0.022  0.00  0.00    +0.008 A 
ATOM     22  C   UNL     1       1.176   3.158   0.007  0.00  0.00    +0.010 A 
ATOM     23  C   UNL     1       1.182   1.780   0.000  0.00  0.00    +0.001 A 
ATOM     24  C   UNL     1      -0.013   1.076   0.008  0.00  0.00    +0.002 A 
ATOM     25  C   UNL     1      -1.218   1.743   0.017  0.00  0.00    +0.026 A 
ATOM     26  C   UNL     1      -1.245   3.134   0.030  0.00  0.00    +0.050 A 
ATOM     27  N   UNL     1      -2.286   4.045   0.045  0.00  0.00    -0.340 N 
BRANCH  27  28
ATOM     28  C   UNL     1      -3.708   3.692   0.056  0.00  0.00    +0.119 C 
ATOM     29  C   UNL     1      -4.217   3.577  -1.382  0.00  0.00    +0.027 C 
ENDBRANCH  27  28
ENDBRANCH  12  15
BRANCH   1  30
ATOM     30  S   UNL     1       0.554  15.781  -0.022  0.00  0.00    +0.058 S 
ATOM     31  O   UNL     1       0.852  15.943  -1.402  0.00  0.00    -0.153 OA
ATOM     32  O   UNL     1      -0.559  16.410   0.597  0.00  0.00    -0.153 OA
BRANCH  30  33
ATOM     33  N   UNL     1       1.899  16.270   0.812  0.00  0.00    -0.190 NA
ATOM     34  H   UNL     1       1.811  16.888   1.554  0.00  0.00    +0.148 HD
BRANCH  33  35
ATOM     35  C   UNL     1       3.221  15.768   0.430  0.00  0.00    +0.105 C 
BRANCH  35  37
ATOM     36  C   UNL     1       5.683  16.107   0.683  0.00  0.00    +0.005 C 
ATOM     37  C   UNL     1       4.302  16.631   1.083  0.00  0.00    +0.013 C 
ENDBRANCH  35  37
ENDBRANCH  33  35
ENDBRANCH  30  33
ENDBRANCH   1  30
TORSDOF 6
