REMARK  Name = ZINC57848126
REMARK  6 active torsions:
REMARK  status: ('A' for Active; 'I' for Inactive)
REMARK    1  A    between atoms: C_1  and  C_2
REMARK    2  A    between atoms: C_2  and  C_3
REMARK    3  A    between atoms: C_3  and  C_17
REMARK    4  A    between atoms: N_6  and  C_10
REMARK    5  A    between atoms: C_10  and  C_11
REMARK    6  A    between atoms: C_20  and  C_23
REMARK                            x       y       z     vdW  Elec       q    Type
REMARK                         _______ _______ _______ _____ _____    ______ ____
ROOT
ATOM      1  C   UNL     1       0.742  -0.511   1.242  0.00  0.00    +0.138 C 
ATOM      2  C   UNL     1       2.127   0.099   1.323  0.00  0.00    +0.251 C 
ATOM      3  O   UNL     1       3.028  -0.020   0.520  0.00  0.00    -0.272 OA
ATOM      4  N   UNL     1       2.149   0.803   2.472  0.00  0.00    -0.224 N 
ATOM      5  C   UNL     1       0.982   0.723   3.121  0.00  0.00    +0.310 C 
ATOM      6  O   UNL     1       0.760   1.274   4.181  0.00  0.00    -0.252 OA
ATOM      7  N   UNL     1       0.082  -0.036   2.470  0.00  0.00    -0.281 N 
ATOM      8  H   UNL     1      -0.825  -0.231   2.753  0.00  0.00    +0.152 HD
ENDROOT
BRANCH   1   9
ATOM      9  C   UNL     1       0.822  -2.016   1.231  0.00  0.00    -0.015 A 
ATOM     10  C   UNL     1       0.868  -2.697   0.029  0.00  0.00    +0.006 A 
ATOM     11  C   UNL     1       0.941  -4.077   0.019  0.00  0.00    +0.004 A 
ATOM     12  C   UNL     1       0.969  -4.777   1.212  0.00  0.00    -0.050 A 
ATOM     13  C   UNL     1       0.924  -4.095   2.414  0.00  0.00    +0.004 A 
ATOM     14  C   UNL     1       0.855  -2.715   2.423  0.00  0.00    +0.006 A 
ATOM     15  C   UNL     1       1.048  -6.281   1.201  0.00  0.00    +0.044 C 
ENDBRANCH   1   9
BRANCH   1  17
ATOM     16  C   UNL     1      -0.019   1.526   0.010  0.00  0.00    +0.007 C 
ATOM     17  C   UNL     1       0.002  -0.004   0.002  0.00  0.00    +0.037 C 
ENDBRANCH   1  17
BRANCH   4  18
ATOM     18  C   UNL     1       3.307   1.562   2.951  0.00  0.00    +0.121 C 
BRANCH  18  19
ATOM     19  C   UNL     1       3.238   2.992   2.412  0.00  0.00    +0.003 C 
ATOM     20  C   UNL     1       3.381   2.972   0.887  0.00  0.00    -0.014 C 
ATOM     21  C   UNL     1       3.392   4.410   0.363  0.00  0.00    -0.082 C 
ATOM     22  N   UNL     1       4.520   5.141   0.952  0.00  0.00    +0.379 N 
ATOM     23  C   UNL     1       4.352   5.226   2.408  0.00  0.00    -0.082 C 
ATOM     24  C   UNL     1       4.379   3.820   3.011  0.00  0.00    -0.014 C 
ATOM     25  H   UNL     1       5.380   4.658   0.741  0.00  0.00    -0.086 HD
ATOM     26  H   UNL     1       4.555   6.072   0.564  0.00  0.00    -0.086 HD
ENDBRANCH  18  19
ENDBRANCH   4  18
TORSDOF 4
