REMARK  Name = ZINC39895384
REMARK  10 active torsions:
REMARK  status: ('A' for Active; 'I' for Inactive)
REMARK    1  A    between atoms: C_1  and  C_2
REMARK    2  A    between atoms: C_2  and  C_3
REMARK    3  A    between atoms: C_6  and  N_9
REMARK    4  A    between atoms: N_9  and  C_10
REMARK    5  A    between atoms: C_11  and  C_28
REMARK    6  A    between atoms: C_15  and  C_22
REMARK    7  A    between atoms: C_16  and  C_20
REMARK    8  A    between atoms: C_17  and  N_19
REMARK    9  A    between atoms: C_32  and  C_39
REMARK   10  A    between atoms: C_35  and  C_38
REMARK                            x       y       z     vdW  Elec       q    Type
REMARK                         _______ _______ _______ _____ _____    ______ ____
ROOT
ATOM      1  C   UNL     1       4.027  -1.951  -4.675  0.00  0.00    +0.085 A 
ATOM      2  C   UNL     1       4.856  -2.281  -5.740  0.00  0.00    +0.091 A 
ATOM      3  C   UNL     1       6.297  -2.342  -5.496  0.00  0.00    +0.095 A 
ATOM      4  C   UNL     1       6.687  -2.052  -4.175  0.00  0.00    +0.049 A 
ATOM      5  S   UNL     1       5.168  -1.710  -3.327  0.00  0.00    -0.071 S 
ATOM      6  C   UNL     1       8.017  -2.067  -3.784  0.00  0.00    +0.019 A 
ATOM      7  C   UNL     1       8.990  -2.387  -4.760  0.00  0.00    +0.100 A 
ATOM      8  C   UNL     1       8.545  -2.669  -6.065  0.00  0.00    +0.135 A 
ATOM      9  N   UNL     1       7.271  -2.640  -6.383  0.00  0.00    -0.230 NA
ENDROOT
BRANCH   2  10
ATOM     10  C   UNL     1       4.305  -2.559  -7.065  0.00  0.00    +0.251 C 
ATOM     11  O   UNL     1       4.161  -1.654  -7.867  0.00  0.00    -0.270 OA
ATOM     12  N   UNL     1       3.956  -3.817  -7.399  0.00  0.00    -0.292 N 
ATOM     13  C   UNL     1       4.115  -4.926  -6.445  0.00  0.00    +0.139 C 
ATOM     14  C   UNL     1       2.790  -5.694  -6.370  0.00  0.00    +0.133 C 
ATOM     15  O   UNL     1       2.376  -6.048  -7.692  0.00  0.00    -0.371 OA
ATOM     16  C   UNL     1       2.114  -4.929  -8.543  0.00  0.00    +0.133 C 
ATOM     17  C   UNL     1       3.399  -4.121  -8.726  0.00  0.00    +0.139 C 
ATOM     18  C   UNL     1       1.043  -4.042  -7.905  0.00  0.00    +0.039 C 
ATOM     19  C   UNL     1       2.980  -6.962  -5.536  0.00  0.00    +0.039 C 
ENDBRANCH   2  10
BRANCH   6  20
ATOM     20  C   UNL     1       8.407  -1.759  -2.389  0.00  0.00    -0.015 A 
ATOM     21  C   UNL     1       8.185  -0.485  -1.865  0.00  0.00    +0.008 A 
ATOM     22  C   UNL     1       8.550  -0.204  -0.565  0.00  0.00    +0.001 A 
ATOM     23  C   UNL     1       9.136  -1.181   0.219  0.00  0.00    +0.000 A 
ATOM     24  C   UNL     1       9.359  -2.447  -0.294  0.00  0.00    +0.001 A 
ATOM     25  C   UNL     1       8.993  -2.742  -1.592  0.00  0.00    +0.008 A 
ENDBRANCH   6  20
BRANCH   8  26
ATOM     26  N   UNL     1       9.477  -2.986  -7.041  0.00  0.00    -0.342 N 
ATOM     27  H   UNL     1      10.421  -3.011  -6.820  0.00  0.00    +0.144 HD
ATOM     28  H   UNL     1       9.184  -3.182  -7.945  0.00  0.00    +0.144 HD
ENDBRANCH   8  26
BRANCH   1  29
ATOM     29  N   UNL     1       2.657  -1.833  -4.664  0.00  0.00    -0.308 N 
ATOM     30  H   UNL     1       2.158  -1.900  -5.494  0.00  0.00    +0.153 HD
BRANCH  29  34
ATOM     31  C   UNL     1       0.648  -1.190  -1.073  0.00  0.00    -0.048 A 
ATOM     32  C   UNL     1       0.168  -0.629  -2.242  0.00  0.00    +0.005 A 
ATOM     33  C   UNL     1       0.832  -0.840  -3.435  0.00  0.00    +0.023 A 
ATOM     34  C   UNL     1       1.983  -1.617  -3.459  0.00  0.00    +0.032 A 
ATOM     35  C   UNL     1       2.462  -2.180  -2.283  0.00  0.00    +0.023 A 
ATOM     36  C   UNL     1       1.796  -1.960  -1.093  0.00  0.00    +0.005 A 
BRANCH  31  38
ATOM     37  C   UNL     1       0.470   0.301   0.900  0.00  0.00    +0.009 C 
ATOM     38  C   UNL     1      -0.079  -0.958   0.226  0.00  0.00    +0.032 C 
ENDBRANCH  31  38
ENDBRANCH  29  34
ENDBRANCH   1  29
BRANCH   7  39
ATOM     39  C   UNL     1      10.383  -2.423  -4.430  0.00  0.00    +0.103 C 
ATOM     40  N   UNL     1      11.488  -2.451  -4.169  0.00  0.00    -0.191 NA
ENDBRANCH   7  39
TORSDOF 7
