REMARK  Name = ZINC21248864
REMARK  10 active torsions:
REMARK  status: ('A' for Active; 'I' for Inactive)
REMARK    1  A    between atoms: C_1  and  N_2
REMARK    2  A    between atoms: N_2  and  C_3
REMARK    3  A    between atoms: N_2  and  C_4
REMARK    4  A    between atoms: C_7  and  C_10
REMARK    5  A    between atoms: C_15  and  C_25
REMARK    6  A    between atoms: C_27  and  O_34
REMARK    7  A    between atoms: C_28  and  O_33
REMARK    8  A    between atoms: C_29  and  O_31
REMARK    9  A    between atoms: O_31  and  C_32
REMARK   10  A    between atoms: O_34  and  C_35
REMARK                            x       y       z     vdW  Elec       q    Type
REMARK                         _______ _______ _______ _____ _____    ______ ____
ROOT
ATOM      1  C   UNL     1       2.811   2.699   1.657  0.00  0.00    +0.032 C 
ATOM      2  C   UNL     1       2.963   1.613   0.593  0.00  0.00    +0.059 C 
ATOM      3  C   UNL     1       1.626   0.929   0.358  0.00  0.00    +0.017 C 
ATOM      4  C   UNL     1       0.481   1.621   0.467  0.00  0.00    +0.036 C 
ATOM      5  C   UNL     1      -0.909   1.080   0.226  0.00  0.00    +0.136 C 
ATOM      6  N   UNL     1      -0.978  -0.361   0.109  0.00  0.00    -0.331 N 
ATOM      7  C   UNL     1      -0.353  -1.029  -0.942  0.00  0.00    +0.049 A 
ATOM      8  C   UNL     1      -1.083  -1.720  -1.897  0.00  0.00    +0.025 A 
ATOM      9  C   UNL     1      -0.421  -2.330  -2.949  0.00  0.00    +0.002 A 
ATOM     10  C   UNL     1       0.956  -2.251  -3.050  0.00  0.00    +0.002 A 
ATOM     11  C   UNL     1       1.689  -1.576  -2.088  0.00  0.00    +0.025 A 
ATOM     12  C   UNL     1       1.030  -0.984  -1.025  0.00  0.00    +0.052 A 
ATOM     13  N   UNL     1       1.712  -0.385   0.029  0.00  0.00    -0.316 N 
ATOM     14  C   UNL     1       0.505   2.986   0.841  0.00  0.00    +0.163 C 
ATOM     15  O   UNL     1      -0.547   3.590   0.919  0.00  0.00    -0.292 OA
ATOM     16  C   UNL     1       1.780   3.712   1.145  0.00  0.00    +0.088 C 
ATOM     17  H   UNL     1      -1.531  -0.948   0.858  0.00  0.00    +0.147 HD
ATOM     18  H   UNL     1       2.357  -1.057   0.613  0.00  0.00    +0.152 HD
ENDROOT
BRANCH   1  22
ATOM     19  C   UNL     1       6.564   4.645   2.287  0.00  0.00    +0.029 A 
ATOM     20  C   UNL     1       5.934   3.991   3.338  0.00  0.00    +0.023 A 
ATOM     21  C   UNL     1       4.721   3.363   3.131  0.00  0.00    +0.006 A 
ATOM     22  C   UNL     1       4.134   3.385   1.879  0.00  0.00    -0.043 A 
ATOM     23  C   UNL     1       4.762   4.030   0.829  0.00  0.00    +0.006 A 
ATOM     24  C   UNL     1       5.972   4.665   1.030  0.00  0.00    +0.023 A 
BRANCH  19  26
ATOM     25  C   UNL     1       8.473   5.155   3.783  0.00  0.00    +0.129 C 
ATOM     26  N   UNL     1       7.790   5.281   2.493  0.00  0.00    -0.336 N 
ATOM     27  C   UNL     1       8.394   6.073   1.419  0.00  0.00    +0.129 C 
ENDBRANCH  19  26
ENDBRANCH   1  22
BRANCH   5  28
ATOM     28  C   UNL     1      -1.445   1.689  -1.043  0.00  0.00    -0.016 A 
ATOM     29  C   UNL     1      -0.788   1.478  -2.241  0.00  0.00    +0.055 A 
ATOM     30  C   UNL     1      -1.281   2.032  -3.412  0.00  0.00    +0.165 A 
ATOM     31  C   UNL     1      -2.432   2.810  -3.379  0.00  0.00    +0.201 A 
ATOM     32  C   UNL     1      -3.087   3.025  -2.172  0.00  0.00    +0.165 A 
ATOM     33  C   UNL     1      -2.590   2.462  -1.006  0.00  0.00    +0.055 A 
BRANCH  32  34
ATOM     34  O   UNL     1      -4.213   3.786  -2.135  0.00  0.00    -0.491 OA
ATOM     35  C   UNL     1      -4.834   3.965  -0.860  0.00  0.00    +0.277 C 
ENDBRANCH  32  34
BRANCH  31  36
ATOM     36  O   UNL     1      -2.916   3.361  -4.526  0.00  0.00    -0.501 OA
ATOM     37  H   UNL     1      -3.827   3.977  -4.498  0.00  0.00    +0.292 HD
ENDBRANCH  31  36
BRANCH  30  38
ATOM     38  O   UNL     1      -0.637   1.819  -4.591  0.00  0.00    -0.491 OA
ATOM     39  C   UNL     1       0.601   1.108  -4.534  0.00  0.00    +0.277 C 
ENDBRANCH  30  38
ENDBRANCH   5  28
TORSDOF 6
