REMARK  Name = ZINC62062343
REMARK  10 active torsions:
REMARK  status: ('A' for Active; 'I' for Inactive)
REMARK    1  A    between atoms: C_1  and  C_2
REMARK    2  A    between atoms: C_2  and  N_3
REMARK    3  A    between atoms: N_3  and  C_4
REMARK    4  A    between atoms: C_4  and  C_5
REMARK    5  A    between atoms: C_9  and  C_12
REMARK    6  A    between atoms: C_12  and  N_13
REMARK    7  A    between atoms: C_14  and  C_16
REMARK    8  A    between atoms: N_18  and  C_19
REMARK    9  A    between atoms: C_22  and  C_25
REMARK   10  A    between atoms: C_25  and  C_26
REMARK                            x       y       z     vdW  Elec       q    Type
REMARK                         _______ _______ _______ _____ _____    ______ ____
ROOT
ATOM      1  N   UNL     1       6.956  -0.161   1.502  0.00  0.00    -0.303 N 
ATOM      2  C   UNL     1       8.301  -0.149   1.584  0.00  0.00    +0.300 C 
ATOM      3  O   UNL     1       8.933  -1.151   1.323  0.00  0.00    -0.265 OA
ATOM      4  H   UNL     1       6.450   0.640   1.710  0.00  0.00    +0.149 HD
ENDROOT
BRANCH   2   5
ATOM      5  C   UNL     1       9.013   1.097   1.996  0.00  0.00    +0.303 C 
ATOM      6  O   UNL     1       8.380   2.100   2.257  0.00  0.00    -0.265 OA
ATOM      7  N   UNL     1      10.358   1.109   2.079  0.00  0.00    -0.278 N 
ATOM      8  H   UNL     1      10.860   0.291   1.936  0.00  0.00    +0.155 HD
BRANCH   7   9
ATOM      9  C   UNL     1      11.030   2.299   2.370  0.00  0.00    +0.034 A 
ATOM     10  C   UNL     1      12.263   2.563   1.786  0.00  0.00    +0.023 A 
ATOM     11  C   UNL     1      12.924   3.740   2.076  0.00  0.00    +0.006 A 
ATOM     12  C   UNL     1      12.361   4.656   2.947  0.00  0.00    -0.039 A 
ATOM     13  C   UNL     1      11.134   4.396   3.530  0.00  0.00    +0.006 A 
ATOM     14  C   UNL     1      10.464   3.223   3.239  0.00  0.00    +0.023 A 
BRANCH  12  15
ATOM     15  C   UNL     1      13.085   5.939   3.261  0.00  0.00    +0.130 C 
BRANCH  15  16
ATOM     16  C   UNL     1      12.674   7.002   2.275  0.00  0.00    +0.215 C 
ATOM     17  O   UNL     1      11.872   6.743   1.403  0.00  0.00    -0.276 OA
ATOM     18  N   UNL     1      13.198   8.241   2.362  0.00  0.00    -0.329 N 
ATOM     19  H   UNL     1      13.840   8.448   3.060  0.00  0.00    +0.145 HD
ATOM     20  H   UNL     1      12.934   8.925   1.728  0.00  0.00    +0.145 HD
ENDBRANCH  15  16
ENDBRANCH  12  15
ENDBRANCH   7   9
ENDBRANCH   2   5
BRANCH   1  21
ATOM     21  C   UNL     1       6.257  -1.383   1.098  0.00  0.00    +0.141 C 
BRANCH  21  26
ATOM     22  N   UNL     1       0.711  -0.489   1.186  0.00  0.00    -0.317 N 
ATOM     23  C   UNL     1       2.083  -0.703   1.141  0.00  0.00    +0.099 A 
ATOM     24  C   UNL     1       2.781  -0.457  -0.037  0.00  0.00    +0.042 A 
ATOM     25  C   UNL     1       4.147  -0.674  -0.068  0.00  0.00    +0.010 A 
ATOM     26  C   UNL     1       4.771  -1.132   1.085  0.00  0.00    -0.014 A 
ATOM     27  C   UNL     1       4.017  -1.355   2.220  0.00  0.00    +0.089 A 
ATOM     28  N   UNL     1       2.716  -1.134   2.221  0.00  0.00    -0.349 N 
ATOM     29  H   UNL     1       2.210  -1.295   3.033  0.00  0.00    +0.167 HD
BRANCH  22  31
ATOM     30  C   UNL     1      -0.015   1.518  -0.008  0.00  0.00    +0.024 C 
ATOM     31  C   UNL     1       0.004  -0.012  -0.005  0.00  0.00    +0.103 C 
ENDBRANCH  22  31
BRANCH  22  32
ATOM     32  C   UNL     1      -0.029  -0.740   2.425  0.00  0.00    +0.103 C 
ATOM     33  C   UNL     1      -0.514  -2.191   2.445  0.00  0.00    +0.024 C 
ENDBRANCH  22  32
ENDBRANCH  21  26
ENDBRANCH   1  21
TORSDOF 8
