REMARK  Name = ZINC36796488
REMARK  13 active torsions:
REMARK  status: ('A' for Active; 'I' for Inactive)
REMARK    1  A    between atoms: C_1  and  C_2
REMARK    2  A    between atoms: C_2  and  C_3
REMARK    3  A    between atoms: C_3  and  C_4
REMARK    4  A    between atoms: C_4  and  C_6
REMARK    5  A    between atoms: C_4  and  C_26
REMARK    6  A    between atoms: C_6  and  N_7
REMARK    7  A    between atoms: C_8  and  C_10
REMARK    8  A    between atoms: C_10  and  S_11
REMARK    9  A    between atoms: S_11  and  C_12
REMARK   10  A    between atoms: C_15  and  C_18
REMARK   11  A    between atoms: N_16  and  N_17
REMARK   12  A    between atoms: C_23  and  O_24
REMARK   13  A    between atoms: O_24  and  C_25
REMARK                            x       y       z     vdW  Elec       q    Type
REMARK                         _______ _______ _______ _____ _____    ______ ____
ROOT
ATOM      1  C   UNL     1       5.323  -2.058  -3.014  0.00  0.00    +0.173 C 
ENDROOT
BRANCH   1   3
ATOM      2  N   UNL     1       2.972  -2.148  -2.249  0.00  0.00    -0.314 N 
ATOM      3  C   UNL     1       3.902  -2.543  -3.141  0.00  0.00    +0.223 C 
ATOM      4  O   UNL     1       3.595  -3.289  -4.047  0.00  0.00    -0.275 OA
ATOM      5  H   UNL     1       3.218  -1.551  -1.525  0.00  0.00    +0.149 HD
BRANCH   2   6
ATOM      6  C   UNL     1       1.591  -2.620  -2.373  0.00  0.00    +0.112 C 
BRANCH   6   7
ATOM      7  C   UNL     1       0.746  -2.027  -1.243  0.00  0.00    +0.038 C 
BRANCH   7   8
ATOM      8  C   UNL     1      -0.644  -2.607  -1.298  0.00  0.00    -0.024 A 
ATOM      9  C   UNL     1      -1.421  -2.434  -2.428  0.00  0.00    +0.007 A 
ATOM     10  C   UNL     1      -2.696  -2.966  -2.478  0.00  0.00    +0.020 A 
ATOM     11  C   UNL     1      -3.195  -3.672  -1.398  0.00  0.00    +0.042 A 
ATOM     12  C   UNL     1      -2.417  -3.846  -0.267  0.00  0.00    +0.040 A 
ATOM     13  C   UNL     1      -1.139  -3.317  -0.219  0.00  0.00    +0.046 A 
ATOM     14 CL   UNL     1      -0.161  -3.540   1.198  0.00  0.00    -0.083 Cl
ATOM     15 CL   UNL     1      -4.796  -4.340  -1.461  0.00  0.00    -0.083 Cl
ENDBRANCH   7   8
BRANCH   7  16
ATOM     16  C   UNL     1       0.671  -0.508  -1.405  0.00  0.00    +0.009 C 
BRANCH  16  18
ATOM     17  C   UNL     1      -0.142   1.617  -0.371  0.00  0.00    +0.004 C 
ATOM     18  C   UNL     1      -0.067   0.097  -0.209  0.00  0.00    -0.003 C 
ENDBRANCH  16  18
ENDBRANCH   7  16
ENDBRANCH   6   7
ENDBRANCH   2   6
ENDBRANCH   1   3
BRANCH   1  19
ATOM     19  S   UNL     1       6.324  -2.760  -4.353  0.00  0.00    -0.075 S 
BRANCH  19  20
ATOM     20  C   UNL     1       7.936  -2.108  -4.068  0.00  0.00    +0.209 A 
ATOM     21  N   UNL     1       8.289  -1.304  -3.091  0.00  0.00    -0.121 NA
ATOM     22  N   UNL     1       9.540  -1.023  -3.181  0.00  0.00    -0.127 NA
ATOM     23  C   UNL     1      10.062  -1.630  -4.221  0.00  0.00    +0.185 A 
ATOM     24  N   UNL     1       9.052  -2.348  -4.819  0.00  0.00    -0.224 N 
BRANCH  23  25
ATOM     25  C   UNL     1      11.470  -1.560  -4.664  0.00  0.00    +0.062 A 
ATOM     26  C   UNL     1      11.772  -1.332  -6.008  0.00  0.00    +0.015 A 
ATOM     27  C   UNL     1      13.088  -1.268  -6.415  0.00  0.00    +0.001 A 
ATOM     28  C   UNL     1      14.112  -1.428  -5.497  0.00  0.00    +0.004 A 
ATOM     29  C   UNL     1      13.825  -1.654  -4.164  0.00  0.00    +0.046 A 
ATOM     30  C   UNL     1      12.508  -1.715  -3.737  0.00  0.00    +0.131 A 
BRANCH  30  31
ATOM     31  O   UNL     1      12.225  -1.931  -2.427  0.00  0.00    -0.494 OA
ATOM     32  C   UNL     1      13.335  -2.080  -1.539  0.00  0.00    +0.277 C 
ENDBRANCH  30  31
ENDBRANCH  23  25
BRANCH  24  33
ATOM     33  N   UNL     1       9.145  -3.135  -5.931  0.00  0.00    -0.295 N 
ATOM     34  H   UNL     1       9.049  -2.585  -6.772  0.00  0.00    +0.163 HD
ATOM     35  H   UNL     1      10.010  -3.654  -5.936  0.00  0.00    +0.163 HD
ENDBRANCH  24  33
ENDBRANCH  19  20
ENDBRANCH   1  19
TORSDOF 11
