REMARK  Name = ZINC65562373
REMARK  14 active torsions:
REMARK  status: ('A' for Active; 'I' for Inactive)
REMARK    1  A    between atoms: C_1  and  C_2
REMARK    2  A    between atoms: C_2  and  C_3
REMARK    3  A    between atoms: C_3  and  C_5
REMARK    4  A    between atoms: C_3  and  C_6
REMARK    5  A    between atoms: C_6  and  C_8
REMARK    6  A    between atoms: C_6  and  N_26
REMARK    7  A    between atoms: N_10  and  C_11
REMARK    8  A    between atoms: C_11  and  C_12
REMARK    9  A    between atoms: C_22  and  C_25
REMARK   10  A    between atoms: C_27  and  O_29
REMARK   11  A    between atoms: O_29  and  C_30
REMARK   12  A    between atoms: C_30  and  C_31
REMARK   13  A    between atoms: C_30  and  C_32
REMARK   14  A    between atoms: C_30  and  C_33
REMARK                            x       y       z     vdW  Elec       q    Type
REMARK                         _______ _______ _______ _____ _____    ______ ____
ROOT
ATOM      1  C   UNL     1       3.047  -0.886  -2.400  0.00  0.00    +0.234 C 
ATOM      2  O   UNL     1       3.797  -0.215  -3.077  0.00  0.00    -0.274 OA
ATOM      3  N   UNL     1       2.902  -2.201  -2.656  0.00  0.00    -0.310 N 
ATOM      4  H   UNL     1       2.249  -2.722  -2.163  0.00  0.00    +0.149 HD
ENDROOT
BRANCH   1   5
ATOM      5  C   UNL     1       2.277  -0.248  -1.272  0.00  0.00    +0.165 C 
BRANCH   5   6
ATOM      6  N   UNL     1       2.595   1.180  -1.209  0.00  0.00    -0.270 N 
ATOM      7  C   UNL     1       2.602   1.817  -0.022  0.00  0.00    +0.401 C 
ATOM      8  O   UNL     1       2.437   1.190   1.006  0.00  0.00    -0.226 OA
ATOM      9  H   UNL     1       2.802   1.667  -2.022  0.00  0.00    +0.153 HD
BRANCH   7  10
ATOM     10  O   UNL     1       2.791   3.150   0.026  0.00  0.00    -0.445 OA
BRANCH  10  11
ATOM     11  C   UNL     1       2.786   3.759   1.319  0.00  0.00    +0.107 C 
ATOM     12  C   UNL     1       3.902   3.154   2.173  0.00  0.00    +0.055 C 
ATOM     13  C   UNL     1       3.014   5.265   1.173  0.00  0.00    +0.055 C 
ATOM     14  C   UNL     1       1.436   3.511   1.994  0.00  0.00    +0.055 C 
ENDBRANCH  10  11
ENDBRANCH   7  10
ENDBRANCH   5   6
BRANCH   5  15
ATOM     15  C   UNL     1       0.776  -0.426  -1.515  0.00  0.00    +0.015 C 
ATOM     16  C   UNL     1       0.000   0.070  -0.293  0.00  0.00    +0.010 C 
BRANCH  15  18
ATOM     17  C   UNL     1       0.974  -0.246  -3.999  0.00  0.00    +0.004 C 
ATOM     18  C   UNL     1       0.360   0.381  -2.746  0.00  0.00    +0.002 C 
ENDBRANCH  15  18
ENDBRANCH   5  15
ENDBRANCH   1   5
BRANCH   3  19
ATOM     19  C   UNL     1       3.731  -2.844  -3.679  0.00  0.00    +0.141 C 
BRANCH  19  20
ATOM     20  C   UNL     1       3.375  -4.305  -3.768  0.00  0.00    -0.014 A 
ATOM     21  C   UNL     1       4.033  -5.237  -2.977  0.00  0.00    +0.010 A 
ATOM     22  C   UNL     1       3.676  -6.569  -3.090  0.00  0.00    +0.042 A 
ATOM     23  C   UNL     1       2.675  -6.927  -3.987  0.00  0.00    +0.099 A 
ATOM     24  N   UNL     1       2.071  -6.009  -4.725  0.00  0.00    -0.349 N 
ATOM     25  C   UNL     1       2.387  -4.731  -4.634  0.00  0.00    +0.089 A 
ATOM     26  N   UNL     1       2.307  -8.262  -4.111  0.00  0.00    -0.312 N 
ATOM     27  C   UNL     1       1.350  -8.691  -5.144  0.00  0.00    +0.134 C 
ATOM     28  C   UNL     1       1.960  -9.873  -5.907  0.00  0.00    +0.179 C 
ATOM     29  O   UNL     1       2.376 -10.871  -4.972  0.00  0.00    -0.374 OA
ATOM     30  C   UNL     1       3.398 -10.440  -4.071  0.00  0.00    +0.132 C 
ATOM     31  C   UNL     1       2.867  -9.288  -3.218  0.00  0.00    +0.137 C 
ATOM     32  C   UNL     1       3.806 -11.604  -3.166  0.00  0.00    +0.039 C 
ATOM     33  H   UNL     1       1.376  -6.281  -5.345  0.00  0.00    +0.167 HD
ENDBRANCH  19  20
ENDBRANCH   3  19
TORSDOF 8
