REMARK  Name = ZINC22691665
REMARK  6 active torsions:
REMARK  status: ('A' for Active; 'I' for Inactive)
REMARK    1  A    between atoms: C_1  and  C_2
REMARK    2  A    between atoms: C_5  and  S_7
REMARK    3  A    between atoms: S_7  and  N_10
REMARK    4  A    between atoms: C_14  and  C_17
REMARK    5  A    between atoms: C_24  and  C_31
REMARK    6  A    between atoms: C_26  and  O_27
REMARK                            x       y       z     vdW  Elec       q    Type
REMARK                         _______ _______ _______ _____ _____    ______ ____
ROOT
ATOM      1  C   UNL     1       0.017   1.110   2.490  0.00  0.00    +0.222 C 
ATOM      2  O   UNL     1      -0.539   0.408   3.307  0.00  0.00    -0.275 OA
ATOM      3  N   UNL     1       1.301   1.475   2.678  0.00  0.00    -0.285 N 
ATOM      4  C   UNL     1       1.960   1.125   3.857  0.00  0.00    +0.037 A 
ATOM      5  C   UNL     1       2.898   1.997   4.410  0.00  0.00    +0.024 A 
ATOM      6  C   UNL     1       3.546   1.672   5.566  0.00  0.00    +0.013 A 
ATOM      7  C   UNL     1       3.278   0.450   6.194  0.00  0.00    +0.021 A 
ATOM      8  C   UNL     1       3.963   0.073   7.432  0.00  0.00    -0.033 A 
ATOM      9  C   UNL     1       3.659  -1.126   7.994  0.00  0.00    +0.091 A 
ATOM     10  C   UNL     1       2.707  -1.967   7.382  0.00  0.00    +0.285 A 
ATOM     11  O   UNL     1       2.082  -1.615   6.247  0.00  0.00    -0.425 OA
ATOM     12  C   UNL     1       2.337  -0.437   5.637  0.00  0.00    +0.141 A 
ATOM     13  C   UNL     1       1.683  -0.089   4.466  0.00  0.00    +0.070 A 
ATOM     14  C   UNL     1       4.977   0.989   8.065  0.00  0.00    +0.045 C 
ATOM     15  H   UNL     1       1.829   2.048   1.902  0.00  0.00    +0.155 HD
ENDROOT
BRANCH   1  20
ATOM     16  N   UNL     1      -2.823   1.372   0.032  0.00  0.00    -0.175 NA
ATOM     17  C   UNL     1      -2.175   1.011  -1.236  0.00  0.00    +0.109 C 
ATOM     18  C   UNL     1      -0.747   1.565  -1.236  0.00  0.00    +0.018 C 
ATOM     19  C   UNL     1      -0.011   1.067   0.010  0.00  0.00    +0.015 C 
ATOM     20  C   UNL     1      -0.726   1.574   1.264  0.00  0.00    +0.091 C 
ATOM     21  C   UNL     1      -2.154   1.020   1.292  0.00  0.00    +0.122 C 
BRANCH  16  22
ATOM     22  S   UNL     1      -4.278   2.162   0.042  0.00  0.00    +0.067 S 
ATOM     23  O   UNL     1      -4.362   2.844   1.285  0.00  0.00    -0.152 OA
ATOM     24  O   UNL     1      -4.383   2.835  -1.205  0.00  0.00    -0.152 OA
BRANCH  22  29
ATOM     25  C   UNL     1      -8.458  -1.919  -0.896  0.00  0.00    +0.051 C 
ATOM     26  C   UNL     1      -7.441  -0.928  -0.391  0.00  0.00    -0.011 A 
ATOM     27  C   UNL     1      -7.116  -0.615   0.887  0.00  0.00    +0.013 A 
ATOM     28  C   UNL     1      -6.136   0.333   1.116  0.00  0.00    +0.036 A 
ATOM     29  C   UNL     1      -5.538   0.930   0.056  0.00  0.00    +0.143 A 
ATOM     30  S   UNL     1      -6.354   0.139  -1.321  0.00  0.00    -0.074 S 
ENDBRANCH  22  29
ENDBRANCH  16  22
ENDBRANCH   1  20
BRANCH  10  31
ATOM     31  O   UNL     1       2.443  -3.039   7.896  0.00  0.00    -0.480 OA
ATOM     32  H   UNL     1       1.702  -3.705   7.430  0.00  0.00    +0.295 HD
ENDBRANCH  10  31
TORSDOF 4
