REMARK  Name = ZINC39606720
REMARK  9 active torsions:
REMARK  status: ('A' for Active; 'I' for Inactive)
REMARK    1  A    between atoms: C_1  and  C_2
REMARK    2  A    between atoms: C_2  and  C_3
REMARK    3  A    between atoms: C_3  and  C_5
REMARK    4  A    between atoms: C_3  and  C_6
REMARK    5  A    between atoms: C_6  and  N_7
REMARK    6  A    between atoms: C_8  and  C_10
REMARK    7  A    between atoms: C_21  and  C_23
REMARK    8  A    between atoms: C_30  and  C_34
REMARK    9  A    between atoms: N_32  and  C_33
REMARK                            x       y       z     vdW  Elec       q    Type
REMARK                         _______ _______ _______ _____ _____    ______ ____
ROOT
ATOM      1  C   UNL     1      -4.435  -4.380  -0.472  0.00  0.00    +0.100 C 
ATOM      2  C   UNL     1      -5.150  -3.741  -1.683  0.00  0.00    +0.121 C 
ATOM      3  N   UNL     1      -4.967  -4.717  -2.783  0.00  0.00    -0.296 N 
ATOM      4  C   UNL     1      -5.129  -6.040  -2.133  0.00  0.00    +0.115 C 
ATOM      5  C   UNL     1      -4.426  -5.889  -0.769  0.00  0.00    -0.004 C 
ATOM      6  C   UNL     1      -2.992  -6.402  -0.856  0.00  0.00    -0.010 C 
ATOM      7  C   UNL     1      -3.010  -7.915  -1.095  0.00  0.00    -0.082 C 
ATOM      8  N   UNL     1      -3.723  -8.578   0.003  0.00  0.00    +0.379 N 
ATOM      9  C   UNL     1      -5.126  -8.147   0.022  0.00  0.00    -0.082 C 
ATOM     10  C   UNL     1      -5.198  -6.645   0.308  0.00  0.00    -0.010 C 
ATOM     11  C   UNL     1      -4.712  -4.461  -4.082  0.00  0.00    +0.250 C 
ATOM     12  O   UNL     1      -4.510  -3.319  -4.447  0.00  0.00    -0.270 OA
ATOM     13  H   UNL     1      -3.680  -9.577  -0.125  0.00  0.00    -0.086 HD
ATOM     14  H   UNL     1      -3.286  -8.335   0.880  0.00  0.00    -0.086 HD
ENDROOT
BRANCH  11  15
ATOM     15  C   UNL     1      -4.678  -5.566  -5.059  0.00  0.00    +0.074 A 
ATOM     16  C   UNL     1      -5.545  -6.660  -4.925  0.00  0.00    +0.127 A 
ATOM     17  N   UNL     1      -5.531  -7.652  -5.783  0.00  0.00    -0.235 NA
ATOM     18  C   UNL     1      -4.699  -7.672  -6.820  0.00  0.00    +0.160 A 
ATOM     19  C   UNL     1      -3.796  -6.610  -7.026  0.00  0.00    +0.060 A 
ATOM     20  C   UNL     1      -3.786  -5.533  -6.134  0.00  0.00    +0.067 A 
ATOM     21 CL   UNL     1      -2.696  -4.199  -6.352  0.00  0.00    -0.082 Cl
ATOM     22  C   UNL     1      -3.039  -6.938  -8.231  0.00  0.00    +0.071 A 
ATOM     23  N   UNL     1      -3.475  -8.084  -8.669  0.00  0.00    -0.174 NA
ATOM     24  N   UNL     1      -4.488  -8.564  -7.833  0.00  0.00    -0.249 N 
ATOM     25  C   UNL     1      -5.210  -9.825  -8.016  0.00  0.00    +0.174 C 
ATOM     26  C   UNL     1      -1.953  -6.101  -8.855  0.00  0.00    +0.068 C 
ENDBRANCH  11  15
BRANCH   1  28
ATOM     27  N   UNL     1      -2.438  -3.759   0.850  0.00  0.00    -0.315 N 
ATOM     28  C   UNL     1      -3.025  -3.859  -0.359  0.00  0.00    +0.218 C 
ATOM     29  O   UNL     1      -2.419  -3.530  -1.357  0.00  0.00    -0.275 OA
ATOM     30  H   UNL     1      -2.923  -4.022   1.648  0.00  0.00    +0.149 HD
BRANCH  27  31
ATOM     31  C   UNL     1      -1.068  -3.253   0.959  0.00  0.00    +0.107 C 
BRANCH  31  32
ATOM     32  C   UNL     1      -0.644  -3.241   2.429  0.00  0.00    +0.003 C 
ATOM     33  C   UNL     1      -0.589  -4.676   2.956  0.00  0.00    +0.009 C 
BRANCH  32  35
ATOM     34  C   UNL     1       1.107  -2.471   4.036  0.00  0.00    +0.004 C 
ATOM     35  C   UNL     1       0.738  -2.597   2.557  0.00  0.00    +0.001 C 
ENDBRANCH  32  35
ENDBRANCH  31  32
ENDBRANCH  27  31
ENDBRANCH   1  28
TORSDOF 5
