REMARK  Name = ZINC07985123
REMARK  2 active torsions:
REMARK  status: ('A' for Active; 'I' for Inactive)
REMARK    1  A    between atoms: C_8  and  C_12
REMARK    2  A    between atoms: C_12  and  N_13
REMARK                            x       y       z     vdW  Elec       q    Type
REMARK                         _______ _______ _______ _____ _____    ______ ____
ROOT
ATOM      1  N   UNL     1      -3.221  -1.085   3.374  0.00  0.00    -0.220 N 
ATOM      2  C   UNL     1      -2.461  -0.707   2.325  0.00  0.00    +0.247 C 
ATOM      3  O   UNL     1      -1.256  -0.791   2.223  0.00  0.00    -0.273 OA
ATOM      4  C   UNL     1      -3.429  -0.155   1.306  0.00  0.00    +0.113 C 
ATOM      5  C   UNL     1      -3.120   1.313   1.017  0.00  0.00    +0.035 C 
ATOM      6  C   UNL     1      -1.612   1.473   0.795  0.00  0.00    +0.003 C 
ATOM      7  C   UNL     1      -1.242   0.940  -0.591  0.00  0.00    +0.000 C 
ATOM      8  C   UNL     1      -2.268   1.428  -1.616  0.00  0.00    +0.000 C 
ATOM      9  C   UNL     1      -3.064   0.234  -2.151  0.00  0.00    +0.000 C 
ATOM     10  C   UNL     1      -4.086  -0.208  -1.102  0.00  0.00    +0.003 C 
ATOM     11  C   UNL     1      -3.367  -0.968   0.015  0.00  0.00    +0.035 C 
ATOM     12  N   UNL     1      -4.742  -0.293   1.944  0.00  0.00    -0.285 N 
ATOM     13  C   UNL     1      -4.520  -0.848   3.152  0.00  0.00    +0.310 C 
ATOM     14  O   UNL     1      -5.400  -1.105   3.950  0.00  0.00    -0.252 OA
ATOM     15  H   UNL     1      -5.600  -0.036   1.571  0.00  0.00    +0.151 HD
ENDROOT
BRANCH   1  16
ATOM     16  C   UNL     1      -2.692  -1.682   4.602  0.00  0.00    +0.156 C 
BRANCH  16  24
ATOM     17  C   UNL     1      -4.035   1.855   9.442  0.00  0.00    +0.001 A 
ATOM     18  C   UNL     1      -2.862   2.607   9.403  0.00  0.00    +0.002 A 
ATOM     19  C   UNL     1      -1.911   2.377   8.457  0.00  0.00    +0.028 A 
ATOM     20  C   UNL     1      -2.109   1.366   7.501  0.00  0.00    +0.073 A 
ATOM     21  C   UNL     1      -3.302   0.603   7.542  0.00  0.00    +0.001 A 
ATOM     22  C   UNL     1      -4.261   0.867   8.533  0.00  0.00    +0.010 A 
ATOM     23  C   UNL     1      -3.501  -0.406   6.580  0.00  0.00    +0.018 A 
ATOM     24  C   UNL     1      -2.524  -0.611   5.649  0.00  0.00    +0.008 A 
ATOM     25  C   UNL     1      -1.372   0.176   5.664  0.00  0.00    +0.135 A 
ATOM     26  N   UNL     1      -1.192   1.118   6.559  0.00  0.00    -0.235 NA
ATOM     27 CL   UNL     1      -0.145  -0.098   4.467  0.00  0.00    -0.062 Cl
ENDBRANCH  16  24
ENDBRANCH   1  16
TORSDOF 2
