REMARK  Name = ZINC01088936
REMARK  4 active torsions:
REMARK  status: ('A' for Active; 'I' for Inactive)
REMARK    1  A    between atoms: C_1  and  C_2
REMARK    2  A    between atoms: C_5  and  C_8
REMARK    3  A    between atoms: N_16  and  C_28
REMARK    4  A    between atoms: C_17  and  C_19
REMARK                            x       y       z     vdW  Elec       q    Type
REMARK                         _______ _______ _______ _____ _____    ______ ____
ROOT
ATOM      1  C   UNL     1       0.060  -4.256  -0.021  0.00  0.00    +0.099 A 
ATOM      2  C   UNL     1       0.718  -5.081   0.897  0.00  0.00    +0.035 A 
ATOM      3  C   UNL     1       0.457  -6.377   0.495  0.00  0.00    +0.127 A 
ATOM      4  N   UNL     1      -0.327  -6.277  -0.620  0.00  0.00    -0.272 N 
ATOM      5  H   UNL     1      -0.671  -7.029  -1.128  0.00  0.00    +0.189 HD
ATOM      6  N   UNL     1      -0.544  -5.040  -0.893  0.00  0.00    -0.173 NA
ATOM      7  C   UNL     1       1.122  -7.297   1.423  0.00  0.00    +0.270 C 
ATOM      8  O   UNL     1       1.087  -8.510   1.344  0.00  0.00    -0.268 OA
ATOM      9  N   UNL     1       1.778  -6.609   2.375  0.00  0.00    -0.255 N 
ATOM     10  C   UNL     1       1.581  -5.175   2.126  0.00  0.00    +0.146 C 
ENDROOT
BRANCH  10  11
ATOM     11  C   UNL     1       0.883  -4.536   3.300  0.00  0.00    -0.018 A 
ATOM     12  C   UNL     1      -0.090  -5.236   3.988  0.00  0.00    +0.009 A 
ATOM     13  C   UNL     1      -0.732  -4.654   5.065  0.00  0.00    +0.050 A 
ATOM     14  C   UNL     1      -0.401  -3.368   5.458  0.00  0.00    +0.166 A 
ATOM     15  C   UNL     1       0.580  -2.663   4.764  0.00  0.00    +0.167 A 
ATOM     16  C   UNL     1       1.223  -3.254   3.689  0.00  0.00    +0.055 A 
ATOM     17  O   UNL     1       0.721  -1.432   5.338  0.00  0.00    -0.453 OA
ATOM     18  C   UNL     1      -0.465  -1.240   6.131  0.00  0.00    +0.466 C 
ATOM     19  O   UNL     1      -0.874  -2.579   6.466  0.00  0.00    -0.453 OA
ENDBRANCH  10  11
BRANCH   1  24
ATOM     20  C   UNL     1      -0.018   1.503   0.010  0.00  0.00    +0.044 C 
ATOM     21  C   UNL     1       0.002  -0.004   0.002  0.00  0.00    -0.050 A 
ATOM     22  C   UNL     1       0.006  -0.687  -1.201  0.00  0.00    +0.004 A 
ATOM     23  C   UNL     1       0.024  -2.067  -1.214  0.00  0.00    +0.010 A 
ATOM     24  C   UNL     1       0.040  -2.772  -0.013  0.00  0.00    +0.002 A 
ATOM     25  C   UNL     1       0.037  -2.080   1.196  0.00  0.00    +0.010 A 
ATOM     26  C   UNL     1       0.023  -0.700   1.198  0.00  0.00    +0.004 A 
ENDBRANCH   1  24
BRANCH   9  27
ATOM     27  C   UNL     1       2.521  -7.164   3.423  0.00  0.00    +0.038 A 
ATOM     28  C   UNL     1       3.147  -6.336   4.346  0.00  0.00    +0.026 A 
ATOM     29  C   UNL     1       3.880  -6.886   5.380  0.00  0.00    +0.040 A 
ATOM     30  C   UNL     1       3.991  -8.262   5.495  0.00  0.00    +0.124 A 
ATOM     31  C   UNL     1       3.368  -9.089   4.576  0.00  0.00    +0.040 A 
ATOM     32  C   UNL     1       2.629  -8.543   3.545  0.00  0.00    +0.026 A 
ATOM     33  F   UNL     1       4.709  -8.798   6.506  0.00  0.00    -0.205 F 
ENDBRANCH   9  27
TORSDOF 3
