REMARK  Name = ZINC53629491
REMARK  9 active torsions:
REMARK  status: ('A' for Active; 'I' for Inactive)
REMARK    1  A    between atoms: C_1  and  C_2
REMARK    2  A    between atoms: C_3  and  C_31
REMARK    3  A    between atoms: C_14  and  C_19
REMARK    4  A    between atoms: C_16  and  C_18
REMARK    5  A    between atoms: C_19  and  C_20
REMARK    6  A    between atoms: C_20  and  C_21
REMARK    7  A    between atoms: N_23  and  C_24
REMARK    8  A    between atoms: C_24  and  C_25
REMARK    9  A    between atoms: C_25  and  C_26
REMARK                            x       y       z     vdW  Elec       q    Type
REMARK                         _______ _______ _______ _____ _____    ______ ____
ROOT
ATOM      1  C   UNL     1      -0.018   1.503   0.010  0.00  0.00    +0.048 C 
ATOM      2  C   UNL     1       0.002  -0.004   0.002  0.00  0.00    -0.002 A 
ATOM      3  C   UNL     1       0.009  -0.802  -1.074  0.00  0.00    +0.106 A 
ATOM      4  O   UNL     1       0.028  -2.092  -0.694  0.00  0.00    -0.460 OA
ATOM      5  C   UNL     1       0.037  -2.197   0.651  0.00  0.00    +0.139 A 
ATOM      6  C   UNL     1       0.025  -0.892   1.171  0.00  0.00    +0.024 A 
ATOM      7  C   UNL     1       0.032  -0.690   2.549  0.00  0.00    +0.019 A 
ATOM      8  C   UNL     1       0.058  -1.762   3.403  0.00  0.00    -0.001 A 
ATOM      9  C   UNL     1       0.080  -3.055   2.897  0.00  0.00    +0.139 A 
ATOM     10  C   UNL     1       0.059  -3.272   1.526  0.00  0.00    +0.093 A 
ATOM     11  O   UNL     1       0.126  -4.144   3.715  0.00  0.00    -0.425 OA
ATOM     12  C   UNL     1      -0.071  -3.942   5.032  0.00  0.00    +0.316 C 
ATOM     13  O   UNL     1      -0.736  -4.702   5.696  0.00  0.00    -0.250 OA
ATOM     14  C   UNL     1       0.578  -2.715   5.642  0.00  0.00    +0.106 C 
ATOM     15  C   UNL     1       0.054  -1.490   4.887  0.00  0.00    +0.033 C 
ATOM     16  C   UNL     1      -1.373  -1.183   5.344  0.00  0.00    +0.013 C 
ATOM     17  C   UNL     1      -0.004  -0.325  -2.503  0.00  0.00    +0.086 C 
ENDROOT
BRANCH  14  18
ATOM     18  C   UNL     1       2.098  -2.806   5.497  0.00  0.00    +0.024 C 
BRANCH  18  19
ATOM     19  C   UNL     1       2.619  -3.986   6.319  0.00  0.00    +0.096 C 
BRANCH  19  20
ATOM     20  C   UNL     1       4.117  -4.075   6.176  0.00  0.00    +0.213 C 
ATOM     21  O   UNL     1       4.709  -3.274   5.484  0.00  0.00    -0.276 OA
ATOM     22  N   UNL     1       4.799  -5.046   6.816  0.00  0.00    -0.315 N 
ATOM     23  H   UNL     1       4.325  -5.687   7.370  0.00  0.00    +0.149 HD
BRANCH  22  24
ATOM     24  C   UNL     1       6.254  -5.133   6.677  0.00  0.00    +0.110 C 
BRANCH  24  25
ATOM     25  C   UNL     1       6.776  -6.313   7.499  0.00  0.00    +0.073 C 
BRANCH  25  26
ATOM     26  C   UNL     1       8.273  -6.402   7.356  0.00  0.00    +0.035 A 
ATOM     27  N   UNL     1       9.207  -5.869   8.202  0.00  0.00    -0.350 N 
ATOM     28  C   UNL     1      10.423  -6.182   7.704  0.00  0.00    +0.171 A 
ATOM     29  N   UNL     1      10.261  -6.872   6.609  0.00  0.00    -0.352 N 
ATOM     30  C   UNL     1       8.950  -7.027   6.373  0.00  0.00    +0.105 A 
ATOM     31  H   UNL     1       9.030  -5.361   9.009  0.00  0.00    +0.166 HD
ATOM     32  H   UNL     1      10.976  -7.221   6.054  0.00  0.00    +0.166 HD
ENDBRANCH  25  26
ENDBRANCH  24  25
ENDBRANCH  22  24
ENDBRANCH  19  20
ENDBRANCH  18  19
ENDBRANCH  14  18
TORSDOF 6
