REMARK  Name = ZINC63552087
REMARK  9 active torsions:
REMARK  status: ('A' for Active; 'I' for Inactive)
REMARK    1  A    between atoms: C_1  and  C_2
REMARK    2  A    between atoms: C_3  and  C_8
REMARK    3  A    between atoms: N_10  and  C_11
REMARK    4  A    between atoms: C_13  and  O_32
REMARK    5  A    between atoms: C_14  and  C_18
REMARK    6  A    between atoms: N_20  and  C_21
REMARK    7  A    between atoms: C_21  and  C_22
REMARK    8  A    between atoms: C_22  and  C_23
REMARK    9  A    between atoms: O_32  and  C_33
REMARK                            x       y       z     vdW  Elec       q    Type
REMARK                         _______ _______ _______ _____ _____    ______ ____
ROOT
ATOM      1  C   UNL     1      -4.760   0.317   0.055  0.00  0.00    +0.056 A 
ATOM      2  C   UNL     1      -4.652   1.701   0.018  0.00  0.00    +0.071 A 
ATOM      3  C   UNL     1      -5.789   2.486   0.088  0.00  0.00    +0.134 A 
ATOM      4  C   UNL     1      -7.050   1.879   0.196  0.00  0.00    +0.080 A 
ATOM      5  C   UNL     1      -7.149   0.484   0.233  0.00  0.00    +0.038 A 
ATOM      6  C   UNL     1      -6.012  -0.287   0.157  0.00  0.00    +0.063 A 
ATOM      7 CL   UNL     1      -6.137  -2.018   0.196  0.00  0.00    -0.082 Cl
ENDROOT
BRANCH   1  10
ATOM      8  C   UNL     1      -2.499   0.010  -0.603  0.00  0.00    +0.258 C 
ATOM      9  O   UNL     1      -2.525   1.092  -1.160  0.00  0.00    -0.269 OA
ATOM     10  N   UNL     1      -3.612  -0.471  -0.015  0.00  0.00    -0.280 N 
ATOM     11  H   UNL     1      -3.615  -1.366   0.359  0.00  0.00    +0.155 HD
BRANCH   8  14
ATOM     12  C   UNL     1      -0.257   1.074  -1.795  0.00  0.00    +0.087 C 
ATOM     13  C   UNL     1      -0.156  -0.286  -1.155  0.00  0.00    +0.113 C 
ATOM     14  C   UNL     1      -1.259  -0.768  -0.571  0.00  0.00    +0.107 C 
ATOM     15  S   UNL     1      -1.227  -2.337   0.240  0.00  0.00    -0.114 S 
ATOM     16  C   UNL     1       0.344  -3.046  -0.349  0.00  0.00    +0.115 C 
ATOM     17  C   UNL     1       1.393  -1.922  -0.300  0.00  0.00    +0.239 C 
ATOM     18  O   UNL     1       1.026  -0.905  -1.227  0.00  0.00    -0.494 OA
ENDBRANCH   8  14
ENDBRANCH   1  10
BRANCH   4  19
ATOM     19  C   UNL     1      -8.265   2.708   0.271  0.00  0.00    +0.248 C 
ATOM     20  O   UNL     1      -8.177   3.921   0.240  0.00  0.00    -0.270 OA
ATOM     21  N   UNL     1      -9.475   2.123   0.375  0.00  0.00    -0.311 N 
ATOM     22  H   UNL     1      -9.545   1.156   0.400  0.00  0.00    +0.149 HD
BRANCH  21  23
ATOM     23  C   UNL     1     -10.683   2.948   0.450  0.00  0.00    +0.109 C 
BRANCH  23  24
ATOM     24  C   UNL     1     -11.912   2.043   0.562  0.00  0.00    +0.052 C 
BRANCH  24  25
ATOM     25  C   UNL     1     -13.155   2.891   0.638  0.00  0.00    -0.040 C 
ATOM     26  C   UNL     1     -13.963   3.244  -0.387  0.00  0.00    -0.001 A 
ATOM     27  C   UNL     1     -13.927   2.957  -1.826  0.00  0.00    +0.010 A 
ATOM     28  C   UNL     1     -14.898   3.462  -2.620  0.00  0.00    +0.001 A 
ATOM     29  C   UNL     1     -15.935   4.253  -2.105  0.00  0.00    +0.002 A 
ATOM     30  C   UNL     1     -16.035   4.560  -0.795  0.00  0.00    +0.026 A 
ATOM     31  C   UNL     1     -15.069   4.081   0.132  0.00  0.00    +0.043 A 
ATOM     32  N   UNL     1     -14.949   4.239   1.428  0.00  0.00    -0.380 N 
ATOM     33  C   UNL     1     -13.755   3.514   1.879  0.00  0.00    +0.144 C 
ATOM     34  H   UNL     1     -15.551   4.747   1.994  0.00  0.00    +0.160 HD
ENDBRANCH  24  25
ENDBRANCH  23  24
ENDBRANCH  21  23
ENDBRANCH   4  19
BRANCH   3  35
ATOM     35  O   UNL     1      -5.686   3.838   0.052  0.00  0.00    -0.494 OA
ATOM     36  C   UNL     1      -4.370   4.386  -0.058  0.00  0.00    +0.277 C 
ENDBRANCH   3  35
TORSDOF 7
