REMARK  Name = ZINC12456801
REMARK  4 active torsions:
REMARK  status: ('A' for Active; 'I' for Inactive)
REMARK    1  A    between atoms: C_11  and  C_13
REMARK    2  A    between atoms: C_13  and  C_15
REMARK    3  A    between atoms: C_13  and  N_26
REMARK    4  A    between atoms: C_15  and  C_16
REMARK                            x       y       z     vdW  Elec       q    Type
REMARK                         _______ _______ _______ _____ _____    ______ ____
ROOT
ATOM      1  C   UNL     1       1.278   2.115   0.001  0.00  0.00    +0.165 C 
ENDROOT
BRANCH   1  12
ATOM      2  C   UNL     1       1.133  -3.981  -2.813  0.00  0.00    +0.000 A 
ATOM      3  C   UNL     1       2.328  -3.598  -2.233  0.00  0.00    +0.000 A 
ATOM      4  C   UNL     1       2.347  -2.550  -1.335  0.00  0.00    +0.005 A 
ATOM      5  C   UNL     1       1.176  -1.879  -1.010  0.00  0.00    -0.027 A 
ATOM      6  C   UNL     1      -0.014  -2.255  -1.593  0.00  0.00    -0.041 A 
ATOM      7  C   UNL     1      -0.030  -3.313  -2.494  0.00  0.00    +0.004 A 
ATOM      8  C   UNL     1      -1.320  -1.564  -1.303  0.00  0.00    +0.054 C 
ATOM      9  C   UNL     1      -1.245  -0.787   0.016  0.00  0.00    +0.113 C 
ATOM     10  N   UNL     1       0.002  -0.004   0.002  0.00  0.00    -0.295 N 
ATOM     11  C   UNL     1       1.265  -0.750  -0.014  0.00  0.00    +0.143 C 
ATOM     12  C   UNL     1      -0.016   1.344   0.009  0.00  0.00    +0.237 C 
ATOM     13  O   UNL     1      -1.075   1.936   0.018  0.00  0.00    -0.274 OA
ENDBRANCH   1  12
BRANCH   1  14
ATOM     14  N   UNL     1       1.038   3.477   0.483  0.00  0.00    -0.288 N 
ATOM     15  C   UNL     1       0.176   4.281  -0.170  0.00  0.00    +0.298 C 
ATOM     16  O   UNL     1      -0.402   3.876  -1.160  0.00  0.00    -0.253 OA
ATOM     17  N   UNL     1      -0.044   5.535   0.273  0.00  0.00    -0.313 N 
ATOM     18  H   UNL     1       1.500   3.801   1.273  0.00  0.00    +0.151 HD
ATOM     19  H   UNL     1       0.417   5.858   1.063  0.00  0.00    +0.146 HD
ATOM     20  H   UNL     1      -0.665   6.113  -0.197  0.00  0.00    +0.146 HD
ENDBRANCH   1  14
BRANCH   1  21
ATOM     21  C   UNL     1       1.831   2.168  -1.425  0.00  0.00    +0.069 C 
BRANCH  21  22
ATOM     22  C   UNL     1       3.184   2.832  -1.414  0.00  0.00    -0.020 A 
ATOM     23  C   UNL     1       3.440   4.128  -1.653  0.00  0.00    +0.087 A 
ATOM     24  N   UNL     1       4.784   4.364  -1.553  0.00  0.00    -0.360 N 
ATOM     25  H   UNL     1       5.209   5.226  -1.682  0.00  0.00    +0.165 HD
ATOM     26  C   UNL     1       5.444   3.195  -1.248  0.00  0.00    +0.047 A 
ATOM     27  C   UNL     1       4.471   2.183  -1.147  0.00  0.00    +0.003 A 
ATOM     28  C   UNL     1       4.854   0.876  -0.843  0.00  0.00    +0.010 A 
ATOM     29  C   UNL     1       6.174   0.585  -0.644  0.00  0.00    +0.001 A 
ATOM     30  C   UNL     1       7.138   1.578  -0.743  0.00  0.00    +0.002 A 
ATOM     31  C   UNL     1       6.782   2.875  -1.042  0.00  0.00    +0.026 A 
ENDBRANCH  21  22
ENDBRANCH   1  21
TORSDOF 4
