REMARK  Name = ZINC20924016
REMARK  7 active torsions:
REMARK  status: ('A' for Active; 'I' for Inactive)
REMARK    1  A    between atoms: C_10  and  C_11
REMARK    2  A    between atoms: N_12  and  N_13
REMARK    3  A    between atoms: C_16  and  S_19
REMARK    4  A    between atoms: S_19  and  C_20
REMARK    5  A    between atoms: C_20  and  C_21
REMARK    6  A    between atoms: N_23  and  N_24
REMARK    7  A    between atoms: C_25  and  C_27
REMARK                            x       y       z     vdW  Elec       q    Type
REMARK                         _______ _______ _______ _____ _____    ______ ____
ROOT
ATOM      1  N   UNL     1       1.151  -2.039  -0.118  0.00  0.00    -0.205 N 
ATOM      2  C   UNL     1       2.356  -2.716  -0.238  0.00  0.00    +0.232 A 
ATOM      3  N   UNL     1       2.516  -4.074  -0.259  0.00  0.00    -0.186 NA
ATOM      4  C   UNL     1       3.850  -4.339  -0.390  0.00  0.00    +0.211 A 
ATOM      5  N   UNL     1       4.487  -3.194  -0.448  0.00  0.00    -0.144 NA
ATOM      6  N   UNL     1       3.540  -2.166  -0.356  0.00  0.00    -0.245 N 
ATOM      7  H   UNL     1       0.210  -2.603  -0.029  0.00  0.00    +0.177 HD
ATOM      8  H   UNL     1       3.639  -1.070  -0.369  0.00  0.00    +0.192 HD
ENDROOT
BRANCH   1  10
ATOM      9  C   UNL     1       0.002  -0.004   0.002  0.00  0.00    +0.139 C 
ATOM     10  N   UNL     1       1.132  -0.638  -0.110  0.00  0.00    -0.188 NA
BRANCH   9  20
ATOM     11  C   UNL     1       3.554   3.736  -0.005  0.00  0.00    +0.001 A 
ATOM     12  C   UNL     1       3.614   2.344  -0.013  0.00  0.00    +0.001 A 
ATOM     13  C   UNL     1       2.476   1.594  -0.008  0.00  0.00    +0.009 A 
ATOM     14  C   UNL     1       1.229   2.230   0.004  0.00  0.00    -0.009 A 
ATOM     15  C   UNL     1       1.164   3.644   0.012  0.00  0.00    -0.017 A 
ATOM     16  C   UNL     1       2.358   4.386   0.007  0.00  0.00    +0.008 A 
ATOM     17  C   UNL     1      -0.090   4.279   0.025  0.00  0.00    +0.008 A 
ATOM     18  C   UNL     1      -1.238   3.547   0.031  0.00  0.00    +0.001 A 
ATOM     19  C   UNL     1      -1.223   2.160   0.017  0.00  0.00    +0.010 A 
ATOM     20  C   UNL     1      -0.018   1.466   0.010  0.00  0.00    +0.002 A 
ENDBRANCH   9  20
ENDBRANCH   1  10
BRANCH   4  21
ATOM     21  S   UNL     1       4.585  -5.939  -0.468  0.00  0.00    -0.075 S 
BRANCH  21  22
ATOM     22  C   UNL     1       6.326  -5.476  -0.636  0.00  0.00    +0.174 C 
BRANCH  22  23
ATOM     23  C   UNL     1       7.170  -6.722  -0.723  0.00  0.00    +0.239 C 
ATOM     24  O   UNL     1       6.646  -7.814  -0.676  0.00  0.00    -0.273 OA
ATOM     25  N   UNL     1       8.508  -6.622  -0.853  0.00  0.00    -0.233 N 
ATOM     26  H   UNL     1       8.984  -5.631  -0.896  0.00  0.00    +0.173 HD
BRANCH  25  27
ATOM     27  N   UNL     1       9.293  -7.779  -0.934  0.00  0.00    -0.230 N 
ATOM     28  C   UNL     1      10.630  -7.679  -1.065  0.00  0.00    +0.260 C 
ATOM     29  O   UNL     1      11.156  -6.584  -1.112  0.00  0.00    -0.269 OA
ATOM     30  H   UNL     1       8.817  -8.770  -0.892  0.00  0.00    +0.173 HD
BRANCH  28  31
ATOM     31  C   UNL     1      11.458  -8.900  -1.150  0.00  0.00    +0.038 A 
ATOM     32  C   UNL     1      10.857 -10.159  -1.090  0.00  0.00    +0.016 A 
ATOM     33  C   UNL     1      11.633 -11.295  -1.177  0.00  0.00    +0.039 A 
ATOM     34  C   UNL     1      13.009 -11.189  -1.310  0.00  0.00    +0.123 A 
ATOM     35  C   UNL     1      13.611  -9.941  -1.364  0.00  0.00    +0.039 A 
ATOM     36  C   UNL     1      12.844  -8.799  -1.285  0.00  0.00    +0.016 A 
ATOM     37  F   UNL     1      13.766 -12.306  -1.388  0.00  0.00    -0.205 F 
ENDBRANCH  28  31
ENDBRANCH  25  27
ENDBRANCH  22  23
ENDBRANCH  21  22
ENDBRANCH   4  21
TORSDOF 7
