REMARK  Name = ZINC00845879
REMARK  5 active torsions:
REMARK  status: ('A' for Active; 'I' for Inactive)
REMARK    1  A    between atoms: C_3  and  N_26
REMARK    2  A    between atoms: C_6  and  C_7
REMARK    3  A    between atoms: C_7  and  C_8
REMARK    4  A    between atoms: C_11  and  C_21
REMARK    5  A    between atoms: C_11  and  O_25
REMARK                            x       y       z     vdW  Elec       q    Type
REMARK                         _______ _______ _______ _____ _____    ______ ____
ROOT
ATOM      1  C   UNL     1       0.086  -2.497  -4.222  0.00  0.00    +0.242 C 
ATOM      2  O   UNL     1       0.782  -2.736  -5.186  0.00  0.00    -0.273 OA
ATOM      3  N   UNL     1       0.537  -1.677  -3.252  0.00  0.00    -0.152 N 
ATOM      4  C   UNL     1       1.847  -1.006  -3.237  0.00  0.00    +0.259 C 
ATOM      5  C   UNL     1       1.783  -0.126  -1.966  0.00  0.00    +0.096 C 
ATOM      6  C   UNL     1       1.775   1.322  -2.386  0.00  0.00    +0.014 C 
ATOM      7  C   UNL     1       1.967   2.359  -1.341  0.00  0.00    +0.001 C 
ATOM      8  C   UNL     1       1.337   2.143   0.001  0.00  0.00    +0.000 C 
ATOM      9  C   UNL     1      -0.018   1.510   0.010  0.00  0.00    +0.006 C 
ATOM     10  C   UNL     1       0.002  -0.004   0.002  0.00  0.00    +0.053 C 
ATOM     11  C   UNL     1       0.459  -0.518  -1.339  0.00  0.00    +0.045 C 
ATOM     12  N   UNL     1      -0.159  -1.323  -2.099  0.00  0.00    -0.183 NA
ENDROOT
BRANCH   4  13
ATOM     13  C   UNL     1       2.979  -2.028  -3.129  0.00  0.00    +0.438 C 
ATOM     14  F   UNL     1       2.760  -2.852  -2.020  0.00  0.00    -0.166 F 
ATOM     15  F   UNL     1       3.015  -2.809  -4.290  0.00  0.00    -0.166 F 
ATOM     16  F   UNL     1       4.199  -1.359  -2.980  0.00  0.00    -0.166 F 
ENDBRANCH   4  13
BRANCH   4  17
ATOM     17  O   UNL     1       2.011  -0.195  -4.403  0.00  0.00    -0.363 OA
ATOM     18  H   UNL     1       2.057  -0.698  -5.228  0.00  0.00    +0.212 HD
ENDBRANCH   4  17
BRANCH   1  19
ATOM     19  C   UNL     1      -1.282  -3.119  -4.107  0.00  0.00    +0.133 C 
BRANCH  19  25
ATOM     20  C   UNL     1      -2.141  -3.448  -6.434  0.00  0.00    +0.006 A 
ATOM     21  C   UNL     1      -2.375  -4.243  -7.541  0.00  0.00    +0.033 A 
ATOM     22  C   UNL     1      -2.021  -5.579  -7.519  0.00  0.00    +0.126 A 
ATOM     23  C   UNL     1      -1.427  -6.119  -6.394  0.00  0.00    +0.033 A 
ATOM     24  C   UNL     1      -1.188  -5.323  -5.289  0.00  0.00    +0.006 A 
ATOM     25  C   UNL     1      -1.542  -3.987  -5.311  0.00  0.00    -0.038 A 
BRANCH  22  26
ATOM     26  N   UNL     1      -2.277  -6.432  -8.702  0.00  0.00    +0.056 N 
ATOM     27  O   UNL     1      -1.964  -7.609  -8.683  0.00  0.00    -0.126 OA
ATOM     28  O   UNL     1      -2.800  -5.957  -9.694  0.00  0.00    -0.126 OA
ENDBRANCH  22  26
ENDBRANCH  19  25
ENDBRANCH   1  19
TORSDOF 5
