REMARK  Name = ZINC20745558
REMARK  5 active torsions:
REMARK  status: ('A' for Active; 'I' for Inactive)
REMARK    1  A    between atoms: C_1  and  O_2
REMARK    2  A    between atoms: O_2  and  C_3
REMARK    3  A    between atoms: C_3  and  C_5
REMARK    4  A    between atoms: C_5  and  N_6
REMARK    5  A    between atoms: C_18  and  C_20
REMARK                            x       y       z     vdW  Elec       q    Type
REMARK                         _______ _______ _______ _____ _____    ______ ____
ROOT
ATOM      1  N   UNL     1       1.093  -4.468  -1.885  0.00  0.00    -0.289 N 
ATOM      2  C   UNL     1       1.660  -3.638  -2.782  0.00  0.00    +0.303 C 
ATOM      3  O   UNL     1       1.523  -2.435  -2.668  0.00  0.00    -0.253 OA
ATOM      4  N   UNL     1       2.380  -4.140  -3.805  0.00  0.00    -0.273 N 
ATOM      5  C   UNL     1       3.112  -3.252  -4.720  0.00  0.00    +0.116 C 
ATOM      6  C   UNL     1       4.616  -3.517  -4.583  0.00  0.00    +0.076 C 
ATOM      7  C   UNL     1       4.850  -5.007  -4.579  0.00  0.00    +0.066 A 
ATOM      8  C   UNL     1       3.894  -5.928  -4.332  0.00  0.00    +0.064 A 
ATOM      9  N   UNL     1       4.483  -7.151  -4.411  0.00  0.00    -0.346 N 
ATOM     10  H   UNL     1       4.051  -8.010  -4.279  0.00  0.00    +0.167 HD
ATOM     11  C   UNL     1       5.787  -6.944  -4.708  0.00  0.00    +0.197 A 
ATOM     12  N   UNL     1       5.995  -5.657  -4.807  0.00  0.00    -0.240 NA
ATOM     13  C   UNL     1       2.458  -5.595  -4.032  0.00  0.00    +0.158 C 
ATOM     14  H   UNL     1       1.142  -5.429  -2.014  0.00  0.00    +0.151 HD
ENDROOT
BRANCH  13  15
ATOM     15  C   UNL     1       1.591  -5.979  -5.203  0.00  0.00    -0.003 A 
ATOM     16  C   UNL     1       2.168  -6.256  -6.428  0.00  0.00    +0.009 A 
ATOM     17  C   UNL     1       1.373  -6.608  -7.503  0.00  0.00    +0.020 A 
ATOM     18  C   UNL     1       0.000  -6.685  -7.352  0.00  0.00    +0.042 A 
ATOM     19  C   UNL     1      -0.578  -6.410  -6.126  0.00  0.00    +0.040 A 
ATOM     20  C   UNL     1       0.218  -6.061  -5.050  0.00  0.00    +0.048 A 
ATOM     21 CL   UNL     1      -0.505  -5.721  -3.509  0.00  0.00    -0.083 Cl
ATOM     22 CL   UNL     1      -0.998  -7.128  -8.702  0.00  0.00    -0.083 Cl
ENDBRANCH  13  15
BRANCH   1  23
ATOM     23  C   UNL     1       0.401  -3.921  -0.715  0.00  0.00    +0.226 C 
BRANCH  23  24
ATOM     24  C   UNL     1      -0.140  -5.051   0.123  0.00  0.00    +0.324 C 
ATOM     25  O   UNL     1       0.035  -6.196  -0.222  0.00  0.00    -0.249 OA
BRANCH  24  27
ATOM     26  C   UNL     1      -1.299  -5.905   1.996  0.00  0.00    +0.280 C 
ATOM     27  O   UNL     1      -0.815  -4.786   1.252  0.00  0.00    -0.467 OA
ENDBRANCH  24  27
ENDBRANCH  23  24
ENDBRANCH   1  23
TORSDOF 4
