REMARK  Name = ZINC64242787
REMARK  5 active torsions:
REMARK  status: ('A' for Active; 'I' for Inactive)
REMARK    1  A    between atoms: C_1  and  C_2
REMARK    2  A    between atoms: C_6  and  C_8
REMARK    3  A    between atoms: C_11  and  C_13
REMARK    4  A    between atoms: N_15  and  C_16
REMARK    5  A    between atoms: C_19  and  N_22
REMARK                            x       y       z     vdW  Elec       q    Type
REMARK                         _______ _______ _______ _____ _____    ______ ____
ROOT
ATOM      1  C   UNL     1       7.604  -1.844   1.321  0.00  0.00    +0.265 C 
ATOM      2  O   UNL     1       8.147  -1.907   0.233  0.00  0.00    -0.268 OA
ATOM      3  N   UNL     1       8.328  -2.007   2.446  0.00  0.00    -0.280 N 
ATOM      4  H   UNL     1       7.909  -1.891   3.313  0.00  0.00    +0.155 HD
ENDROOT
BRANCH   3   5
ATOM      5  C   UNL     1       9.684  -2.344   2.363  0.00  0.00    +0.034 A 
ATOM      6  C   UNL     1      10.249  -3.187   3.311  0.00  0.00    +0.025 A 
ATOM      7  C   UNL     1      11.586  -3.520   3.229  0.00  0.00    +0.025 A 
ATOM      8  C   UNL     1      12.366  -3.011   2.200  0.00  0.00    +0.035 A 
ATOM      9  C   UNL     1      11.802  -2.167   1.252  0.00  0.00    +0.025 A 
ATOM     10  C   UNL     1      10.463  -1.839   1.330  0.00  0.00    +0.025 A 
BRANCH   8  11
ATOM     11  N   UNL     1      13.724  -3.348   2.117  0.00  0.00    -0.270 N 
ATOM     12  C   UNL     1      14.617  -2.442   1.672  0.00  0.00    +0.301 C 
ATOM     13  O   UNL     1      14.236  -1.362   1.264  0.00  0.00    -0.253 OA
ATOM     14  N   UNL     1      15.933  -2.733   1.680  0.00  0.00    -0.313 N 
ATOM     15  H   UNL     1      14.021  -4.233   2.380  0.00  0.00    +0.156 HD
ATOM     16  H   UNL     1      16.237  -3.594   2.006  0.00  0.00    +0.146 HD
ATOM     17  H   UNL     1      16.576  -2.081   1.360  0.00  0.00    +0.146 HD
ENDBRANCH   8  11
ENDBRANCH   3   5
BRANCH   1  21
ATOM     18  C   UNL     1       3.881  -1.174   1.001  0.00  0.00    +0.083 C 
ATOM     19  N   UNL     1       4.198  -1.269   2.273  0.00  0.00    -0.152 NA
ATOM     20  N   UNL     1       5.434  -1.495   2.489  0.00  0.00    -0.148 NA
ATOM     21  C   UNL     1       6.163  -1.591   1.406  0.00  0.00    +0.131 C 
ATOM     22  C   UNL     1       5.189  -1.390   0.257  0.00  0.00    +0.121 C 
BRANCH  18  27
ATOM     23  C   UNL     1      -0.005   1.513  -0.084  0.00  0.00    +0.019 C 
ATOM     24  C   UNL     1       0.011  -0.017  -0.075  0.00  0.00    +0.052 C 
ATOM     25  C   UNL     1       0.824  -0.583  -1.268  0.00  0.00    +0.042 C 
ATOM     26  C   UNL     1       2.244  -0.833  -0.876  0.00  0.00    -0.009 C 
ATOM     27  C   UNL     1       2.559  -0.923   0.427  0.00  0.00    +0.028 C 
ATOM     28  S   UNL     1       1.030  -0.672   1.313  0.00  0.00    -0.120 S 
ENDBRANCH  18  27
ENDBRANCH   1  21
TORSDOF 4
