REMARK  Name = ZINC33574710
REMARK  7 active torsions:
REMARK  status: ('A' for Active; 'I' for Inactive)
REMARK    1  A    between atoms: C_1  and  C_2
REMARK    2  A    between atoms: N_8  and  C_9
REMARK    3  A    between atoms: C_9  and  C_10
REMARK    4  A    between atoms: C_11  and  C_21
REMARK    5  A    between atoms: N_23  and  N_24
REMARK    6  A    between atoms: C_25  and  C_26
REMARK    7  A    between atoms: C_25  and  C_27
REMARK                            x       y       z     vdW  Elec       q    Type
REMARK                         _______ _______ _______ _____ _____    ______ ____
ROOT
ATOM      1  C   UNL     1      -7.084   2.687  -0.157  0.00  0.00    +0.063 A 
ATOM      2  C   UNL     1      -7.198   4.036   0.025  0.00  0.00    +0.170 A 
ATOM      3  N   UNL     1      -7.809   4.562  -1.051  0.00  0.00    -0.124 NA
ATOM      4  N   UNL     1      -8.083   3.626  -1.892  0.00  0.00    -0.058 NA
ATOM      5  N   UNL     1      -7.631   2.409  -1.362  0.00  0.00    -0.194 N 
ATOM      6  C   UNL     1      -7.729   1.149  -1.963  0.00  0.00    +0.240 A 
ATOM      7  C   UNL     1      -8.331   0.867  -3.269  0.00  0.00    +0.206 A 
ATOM      8  N   UNL     1      -8.237  -0.415  -3.496  0.00  0.00    -0.032 NA
ATOM      9  O   UNL     1      -7.598  -1.007  -2.378  0.00  0.00    -0.239 OA
ATOM     10  N   UNL     1      -7.306   0.026  -1.455  0.00  0.00    -0.027 NA
ATOM     11  N   UNL     1      -8.902   1.804  -4.122  0.00  0.00    -0.337 N 
ATOM     12  H   UNL     1      -9.328   1.485  -5.085  0.00  0.00    +0.144 HD
ATOM     13  H   UNL     1      -8.928   2.866  -3.835  0.00  0.00    +0.144 HD
ENDROOT
BRANCH   2  14
ATOM     14  C   UNL     1      -6.730   4.789   1.204  0.00  0.00    +0.285 C 
ATOM     15  O   UNL     1      -6.188   4.204   2.123  0.00  0.00    -0.267 OA
ATOM     16  N   UNL     1      -6.902   6.124   1.263  0.00  0.00    -0.201 N 
ATOM     17  H   UNL     1      -7.392   6.653   0.432  0.00  0.00    +0.178 HD
BRANCH  16  18
ATOM     18  N   UNL     1      -6.457   6.839   2.383  0.00  0.00    -0.184 NA
ATOM     19  C   UNL     1      -6.713   8.107   2.486  0.00  0.00    +0.063 C 
ATOM     20  C   UNL     1      -6.094   8.912   3.600  0.00  0.00    +0.068 C 
BRANCH  19  21
ATOM     21  C   UNL     1      -7.609   8.761   1.514  0.00  0.00    -0.001 A 
ATOM     22  C   UNL     1      -8.729   8.083   1.027  0.00  0.00    +0.010 A 
ATOM     23  C   UNL     1      -9.563   8.700   0.118  0.00  0.00    +0.002 A 
ATOM     24  C   UNL     1      -9.293   9.987  -0.312  0.00  0.00    +0.015 A 
ATOM     25  C   UNL     1      -8.184  10.665   0.167  0.00  0.00    +0.018 A 
ATOM     26  C   UNL     1      -7.344  10.062   1.081  0.00  0.00    +0.025 A 
ATOM     27 BR   UNL     1      -7.825  12.424  -0.427  0.00  0.00    -0.050 Br
ENDBRANCH  19  21
ENDBRANCH  16  18
ENDBRANCH   2  14
BRANCH   1  28
ATOM     28  C   UNL     1      -6.463   1.700   0.797  0.00  0.00    -0.019 C 
BRANCH  28  35
ATOM     29  C   UNL     1      -4.632   1.369   2.907  0.00  0.00    -0.013 C 
ATOM     30  C   UNL     1      -4.353   0.767   1.529  0.00  0.00    -0.071 C 
ATOM     31  C   UNL     1      -2.844   0.770   1.267  0.00  0.00    -0.016 C 
ATOM     32  C   UNL     1      -2.572   0.185  -0.122  0.00  0.00    -0.003 C 
ATOM     33  C   UNL     1      -3.329   1.005  -1.170  0.00  0.00    -0.019 C 
ATOM     34  C   UNL     1      -4.822   0.996  -0.837  0.00  0.00    -0.078 C 
ATOM     35  N   UNL     1      -5.031   1.565   0.500  0.00  0.00    +0.385 N 
ATOM     36  H   UNL     1      -4.587   2.571   0.508  0.00  0.00    -0.081 HD
ENDBRANCH  28  35
ENDBRANCH   1  28
TORSDOF 5
