REMARK  Name = ZINC38596005
REMARK  9 active torsions:
REMARK  status: ('A' for Active; 'I' for Inactive)
REMARK    1  A    between atoms: C_1  and  C_2
REMARK    2  A    between atoms: C_2  and  C_4
REMARK    3  A    between atoms: C_2  and  N_24
REMARK    4  A    between atoms: C_4  and  C_6
REMARK    5  A    between atoms: C_4  and  N_11
REMARK    6  A    between atoms: N_14  and  C_17
REMARK    7  A    between atoms: C_17  and  C_18
REMARK    8  A    between atoms: C_25  and  C_27
REMARK    9  A    between atoms: N_32  and  C_34
REMARK                            x       y       z     vdW  Elec       q    Type
REMARK                         _______ _______ _______ _____ _____    ______ ____
ROOT
ATOM      1  C   UNL     1       0.719  -0.350   1.230  0.00  0.00    +0.113 C 
ENDROOT
BRANCH   1   2
ATOM      2  N   UNL     1       2.053   0.212   1.478  0.00  0.00    -0.297 NA
ATOM      3  C   UNL     1       2.006   1.680   1.526  0.00  0.00    +0.066 C 
ATOM      4  C   UNL     1       3.421   2.227   1.726  0.00  0.00    -0.063 C 
ATOM      5  N   UNL     1       3.979   1.696   2.977  0.00  0.00    +0.384 N 
ATOM      6  C   UNL     1       4.043   0.231   2.904  0.00  0.00    -0.063 C 
ATOM      7  C   UNL     1       2.633  -0.332   2.714  0.00  0.00    +0.066 C 
ATOM      8  H   UNL     1       3.390   1.969   3.749  0.00  0.00    -0.081 HD
BRANCH   5   9
ATOM      9  C   UNL     1       5.330   2.236   3.177  0.00  0.00    -0.043 C 
BRANCH   9  10
ATOM     10  C   UNL     1       5.855   1.791   4.518  0.00  0.00    -0.064 A 
ATOM     11  C   UNL     1       5.625   2.563   5.641  0.00  0.00    +0.002 A 
ATOM     12  C   UNL     1       6.106   2.154   6.871  0.00  0.00    +0.000 A 
ATOM     13  C   UNL     1       6.817   0.974   6.978  0.00  0.00    +0.000 A 
ATOM     14  C   UNL     1       7.047   0.201   5.854  0.00  0.00    +0.000 A 
ATOM     15  C   UNL     1       6.562   0.607   4.625  0.00  0.00    +0.002 A 
ENDBRANCH   9  10
ENDBRANCH   5   9
ENDBRANCH   1   2
BRANCH   1  16
ATOM     16  C   UNL     1       0.802  -1.854   1.214  0.00  0.00    +0.009 A 
ATOM     17  C   UNL     1      -0.064  -2.763   1.725  0.00  0.00    +0.013 A 
ATOM     18  C   UNL     1       0.220  -4.109   1.591  0.00  0.00    +0.008 A 
ATOM     19  C   UNL     1       1.356  -4.481   0.952  0.00  0.00    +0.045 A 
ATOM     20  S   UNL     1       2.064  -2.903   0.510  0.00  0.00    -0.100 S 
ENDBRANCH   1  16
BRANCH   1  22
ATOM     21  C   UNL     1      -1.176  -0.466  -0.395  0.00  0.00    +0.030 C 
ATOM     22  C   UNL     1       0.199   0.147  -0.121  0.00  0.00    +0.092 C 
BRANCH  22  23
ATOM     23  N   UNL     1       1.131  -0.252  -1.179  0.00  0.00    -0.311 N 
ATOM     24  C   UNL     1       1.189   0.452  -2.327  0.00  0.00    +0.218 C 
ATOM     25  O   UNL     1       0.470   1.416  -2.483  0.00  0.00    -0.275 OA
ATOM     26  H   UNL     1       1.706  -1.023  -1.054  0.00  0.00    +0.149 HD
BRANCH  24  27
ATOM     27  C   UNL     1       2.147   0.042  -3.415  0.00  0.00    +0.101 C 
ATOM     28  C   UNL     1       3.613   0.186  -2.945  0.00  0.00    +0.110 C 
ATOM     29  C   UNL     1       4.351   0.669  -4.174  0.00  0.00    +0.221 C 
ATOM     30  O   UNL     1       5.555   0.642  -4.317  0.00  0.00    -0.275 OA
ATOM     31  N   UNL     1       3.478   1.133  -5.085  0.00  0.00    -0.271 N 
ATOM     32  C   UNL     1       2.096   1.033  -4.599  0.00  0.00    +0.127 C 
BRANCH  31  33
ATOM     33  C   UNL     1       3.840   1.645  -6.337  0.00  0.00    +0.036 A 
ATOM     34  C   UNL     1       5.180   1.798  -6.664  0.00  0.00    +0.026 A 
ATOM     35  C   UNL     1       5.535   2.304  -7.900  0.00  0.00    +0.040 A 
ATOM     36  C   UNL     1       4.555   2.658  -8.812  0.00  0.00    +0.124 A 
ATOM     37  C   UNL     1       3.217   2.506  -8.487  0.00  0.00    +0.040 A 
ATOM     38  C   UNL     1       2.858   1.995  -7.255  0.00  0.00    +0.026 A 
ATOM     39  F   UNL     1       4.904   3.153 -10.019  0.00  0.00    -0.205 F 
ENDBRANCH  31  33
ENDBRANCH  24  27
ENDBRANCH  22  23
ENDBRANCH   1  22
TORSDOF 8
