REMARK  Name = ZINC39252132
REMARK  7 active torsions:
REMARK  status: ('A' for Active; 'I' for Inactive)
REMARK    1  A    between atoms: C_1  and  C_2
REMARK    2  A    between atoms: C_2  and  C_3
REMARK    3  A    between atoms: C_2  and  C_4
REMARK    4  A    between atoms: C_11  and  C_13
REMARK    5  A    between atoms: N_18  and  C_20
REMARK    6  A    between atoms: C_20  and  C_21
REMARK    7  A    between atoms: C_21  and  C_22
REMARK                            x       y       z     vdW  Elec       q    Type
REMARK                         _______ _______ _______ _____ _____    ______ ____
ROOT
ATOM      1  C   UNL     1      -2.235  -3.436  -6.214  0.00  0.00    +0.101 C 
ATOM      2  C   UNL     1      -3.687  -2.907  -6.155  0.00  0.00    +0.110 C 
ATOM      3  C   UNL     1      -4.497  -3.968  -6.867  0.00  0.00    +0.216 C 
ATOM      4  O   UNL     1      -5.625  -3.817  -7.284  0.00  0.00    -0.276 OA
ATOM      5  N   UNL     1      -3.784  -5.103  -6.969  0.00  0.00    -0.300 N 
ATOM      6  C   UNL     1      -2.458  -4.958  -6.355  0.00  0.00    +0.121 C 
ENDROOT
BRANCH   1  13
ATOM      7  C   UNL     1       0.718  -0.497  -1.257  0.00  0.00    +0.156 C 
ATOM      8  N   UNL     1       0.575  -1.962  -1.419  0.00  0.00    -0.253 N 
ATOM      9  N   UNL     1      -0.092  -2.364  -2.554  0.00  0.00    -0.163 NA
ATOM     10  C   UNL     1      -0.568  -1.537  -3.431  0.00  0.00    +0.179 C 
ATOM     11  S   UNL     1      -0.139   0.072  -2.782  0.00  0.00    -0.065 S 
ATOM     12  N   UNL     1      -1.254  -1.832  -4.606  0.00  0.00    -0.263 N 
ATOM     13  C   UNL     1      -1.492  -3.116  -4.942  0.00  0.00    +0.224 C 
ATOM     14  O   UNL     1      -1.108  -4.013  -4.222  0.00  0.00    -0.275 OA
ATOM     15  H   UNL     1       0.927  -2.593  -0.772  0.00  0.00    +0.169 HD
ATOM     16  H   UNL     1      -1.561  -1.115  -5.182  0.00  0.00    +0.157 HD
BRANCH   7  18
ATOM     17  C   UNL     1      -0.019   1.526   0.010  0.00  0.00    +0.010 C 
ATOM     18  C   UNL     1       0.002  -0.004   0.002  0.00  0.00    +0.015 C 
ATOM     19  C   UNL     1      -1.433  -0.534   0.013  0.00  0.00    +0.010 C 
ENDBRANCH   7  18
ENDBRANCH   1  13
BRANCH   5  20
ATOM     20  C   UNL     1      -4.267  -6.327  -7.612  0.00  0.00    +0.112 C 
BRANCH  20  21
ATOM     21  C   UNL     1      -3.899  -6.303  -9.097  0.00  0.00    +0.056 C 
BRANCH  21  22
ATOM     22  C   UNL     1      -4.396  -7.563  -9.758  0.00  0.00    -0.021 A 
ATOM     23  C   UNL     1      -5.740  -7.793 -10.295  0.00  0.00    +0.004 A 
ATOM     24  C   UNL     1      -6.899  -7.019 -10.374  0.00  0.00    +0.030 A 
ATOM     25  C   UNL     1      -8.031  -7.544 -10.957  0.00  0.00    +0.042 A 
ATOM     26  C   UNL     1      -8.024  -8.837 -11.464  0.00  0.00    +0.022 A 
ATOM     27  C   UNL     1      -6.888  -9.613 -11.393  0.00  0.00    +0.027 A 
ATOM     28  C   UNL     1      -5.734  -9.103 -10.809  0.00  0.00    +0.047 A 
ATOM     29  N   UNL     1      -4.474  -9.618 -10.594  0.00  0.00    -0.360 N 
ATOM     30  C   UNL     1      -3.690  -8.684  -9.973  0.00  0.00    +0.087 A 
ATOM     31 CL   UNL     1      -9.474  -6.585 -11.057  0.00  0.00    -0.084 Cl
ATOM     32  H   UNL     1      -4.185 -10.508 -10.849  0.00  0.00    +0.165 HD
ENDBRANCH  21  22
ENDBRANCH  20  21
ENDBRANCH   5  20
TORSDOF 5
