REMARK  Name = ZINC14459901
REMARK  9 active torsions:
REMARK  status: ('A' for Active; 'I' for Inactive)
REMARK    1  A    between atoms: C_1  and  C_2
REMARK    2  A    between atoms: C_2  and  C_3
REMARK    3  A    between atoms: C_2  and  C_4
REMARK    4  A    between atoms: C_4  and  O_5
REMARK    5  A    between atoms: O_5  and  C_6
REMARK    6  A    between atoms: C_19  and  C_22
REMARK    7  A    between atoms: C_26  and  O_29
REMARK    8  A    between atoms: C_27  and  O_28
REMARK    9  A    between atoms: O_29  and  C_30
REMARK                            x       y       z     vdW  Elec       q    Type
REMARK                         _______ _______ _______ _____ _____    ______ ____
ROOT
ATOM      1  C   UNL     1      -5.767   7.917   0.671  0.00  0.00    +0.121 A 
ATOM      2  C   UNL     1      -4.899   8.204  -0.372  0.00  0.00    +0.047 A 
ATOM      3  C   UNL     1      -3.841   7.357  -0.633  0.00  0.00    +0.027 A 
ATOM      4  C   UNL     1      -3.648   6.223   0.145  0.00  0.00    +0.032 A 
ATOM      5  C   UNL     1      -4.510   5.930   1.190  0.00  0.00    -0.016 A 
ATOM      6  C   UNL     1      -5.572   6.787   1.447  0.00  0.00    +0.051 A 
ATOM      7  C   UNL     1      -4.339   4.721   2.055  0.00  0.00    +0.049 C 
ATOM      8  C   UNL     1      -5.356   3.656   1.720  0.00  0.00    -0.023 C 
ATOM      9  C   UNL     1      -4.820   2.466   1.833  0.00  0.00    -0.030 C 
ATOM     10  C   UNL     1      -3.370   2.574   2.265  0.00  0.00    +0.033 C 
ATOM     11  C   UNL     1      -2.979   4.024   1.855  0.00  0.00    +0.029 C 
ATOM     12  C   UNL     1      -2.620   3.996   0.366  0.00  0.00    +0.109 C 
ATOM     13  N   UNL     1      -2.569   5.372  -0.137  0.00  0.00    -0.336 N 
ATOM     14  H   UNL     1      -1.809   5.687  -0.651  0.00  0.00    +0.147 HD
ENDROOT
BRANCH  12  15
ATOM     15  C   UNL     1      -1.274   3.342   0.184  0.00  0.00    +0.018 A 
ATOM     16  C   UNL     1      -1.192   2.061  -0.329  0.00  0.00    +0.009 A 
ATOM     17  C   UNL     1       0.041   1.458  -0.496  0.00  0.00    +0.004 A 
ATOM     18  C   UNL     1       1.197   2.134  -0.152  0.00  0.00    +0.049 A 
ATOM     19  C   UNL     1       1.121   3.418   0.363  0.00  0.00    +0.162 A 
ATOM     20  C   UNL     1      -0.121   4.022   0.538  0.00  0.00    +0.163 A 
BRANCH  20  21
ATOM     21  O   UNL     1      -0.200   5.280   1.048  0.00  0.00    -0.503 OA
ATOM     22  H   UNL     1      -0.120   5.980   0.385  0.00  0.00    +0.292 HD
ENDBRANCH  20  21
BRANCH  19  23
ATOM     23  O   UNL     1       2.257   4.084   0.703  0.00  0.00    -0.491 OA
ATOM     24  C   UNL     1       3.495   3.399   0.502  0.00  0.00    +0.277 C 
ENDBRANCH  19  23
ENDBRANCH  12  15
BRANCH   1  25
ATOM     25  O   UNL     1      -6.811   8.747   0.933  0.00  0.00    -0.492 OA
BRANCH  25  26
ATOM     26  C   UNL     1      -6.954   9.895   0.094  0.00  0.00    +0.232 C 
BRANCH  26  28
ATOM     27  C   UNL     1      -8.255  11.995  -0.278  0.00  0.00    +0.010 C 
ATOM     28  C   UNL     1      -8.175  10.703   0.538  0.00  0.00    +0.020 C 
ATOM     29  C   UNL     1      -9.443   9.877   0.311  0.00  0.00    +0.010 C 
ENDBRANCH  26  28
ENDBRANCH  25  26
ENDBRANCH   1  25
TORSDOF 6
