REMARK  Name = ZINC57935149
REMARK  5 active torsions:
REMARK  status: ('A' for Active; 'I' for Inactive)
REMARK    1  A    between atoms: C_1  and  C_2
REMARK    2  A    between atoms: C_2  and  C_3
REMARK    3  A    between atoms: C_2  and  C_4
REMARK    4  A    between atoms: N_8  and  C_19
REMARK    5  A    between atoms: C_19  and  C_20
REMARK                            x       y       z     vdW  Elec       q    Type
REMARK                         _______ _______ _______ _____ _____    ______ ____
ROOT
ATOM      1  C   UNL     1      -1.433  -0.534   0.013  0.00  0.00    +0.160 C 
ATOM      2  C   UNL     1      -1.415  -2.041   0.000  0.00  0.00    +0.241 C 
ATOM      3  O   UNL     1      -1.383  -2.649   1.049  0.00  0.00    -0.273 OA
ATOM      4  N   UNL     1      -1.433  -2.720  -1.162  0.00  0.00    -0.256 N 
ATOM      5  C   UNL     1      -1.520  -2.043  -2.386  0.00  0.00    +0.062 A 
ATOM      6  C   UNL     1      -1.247  -2.697  -3.578  0.00  0.00    +0.075 A 
ATOM      7  C   UNL     1      -1.342  -2.014  -4.780  0.00  0.00    +0.168 A 
ATOM      8  C   UNL     1      -1.712  -0.671  -4.793  0.00  0.00    +0.168 A 
ATOM      9  C   UNL     1      -1.984  -0.014  -3.603  0.00  0.00    +0.074 A 
ATOM     10  C   UNL     1      -1.887  -0.697  -2.403  0.00  0.00    +0.053 A 
ATOM     11  N   UNL     1      -2.145  -0.051  -1.180  0.00  0.00    -0.331 N 
ATOM     12  O   UNL     1      -1.732  -0.237  -6.088  0.00  0.00    -0.453 OA
ATOM     13  C   UNL     1      -0.975  -1.210  -6.832  0.00  0.00    +0.466 C 
ATOM     14  O   UNL     1      -1.129  -2.420  -6.067  0.00  0.00    -0.453 OA
ATOM     15  H   UNL     1      -2.772   0.687  -1.124  0.00  0.00    +0.147 HD
ENDROOT
BRANCH   1  17
ATOM     16  C   UNL     1      -0.019   1.526   0.010  0.00  0.00    +0.009 C 
ATOM     17  C   UNL     1       0.002  -0.004   0.002  0.00  0.00    +0.012 C 
ATOM     18  C   UNL     1       0.742  -0.511   1.242  0.00  0.00    +0.009 C 
ENDBRANCH   1  17
BRANCH   4  19
ATOM     19  C   UNL     1      -1.362  -4.183  -1.147  0.00  0.00    +0.202 C 
BRANCH  19  20
ATOM     20  C   UNL     1      -2.722  -4.741  -1.081  0.00  0.00    -0.086 C 
ATOM     21  C   UNL     1      -3.808  -5.185  -1.028  0.00  0.00    +0.005 C 
ENDBRANCH  19  20
ENDBRANCH   4  19
TORSDOF 3
