REMARK  Name = ZINC05662287
REMARK  7 active torsions:
REMARK  status: ('A' for Active; 'I' for Inactive)
REMARK    1  A    between atoms: C_1  and  C_2
REMARK    2  A    between atoms: C_2  and  C_4
REMARK    3  A    between atoms: C_2  and  N_20
REMARK    4  A    between atoms: N_6  and  N_7
REMARK    5  A    between atoms: C_8  and  C_9
REMARK    6  A    between atoms: C_18  and  O_19
REMARK    7  A    between atoms: N_20  and  C_21
REMARK                            x       y       z     vdW  Elec       q    Type
REMARK                         _______ _______ _______ _____ _____    ______ ____
ROOT
ATOM      1  C   UNL     1       0.707  -0.490  -1.238  0.00  0.00    +0.252 C 
ATOM      2  O   UNL     1       1.704  -1.175  -1.140  0.00  0.00    -0.272 OA
ATOM      3  N   UNL     1       0.231  -0.164  -2.456  0.00  0.00    -0.205 N 
ATOM      4  H   UNL     1      -0.566   0.383  -2.534  0.00  0.00    +0.177 HD
ENDROOT
BRANCH   1   6
ATOM      5  C   UNL     1      -0.019   1.526   0.010  0.00  0.00    +0.038 C 
ATOM      6  C   UNL     1       0.002  -0.004   0.002  0.00  0.00    +0.155 C 
BRANCH   6   7
ATOM      7  N   UNL     1       0.711  -0.489   1.189  0.00  0.00    -0.333 N 
ATOM      8  H   UNL     1       1.654  -0.707   1.135  0.00  0.00    +0.147 HD
BRANCH   7   9
ATOM      9  C   UNL     1       0.026  -0.639   2.399  0.00  0.00    +0.028 A 
ATOM     10  C   UNL     1      -1.326  -0.333   2.476  0.00  0.00    +0.026 A 
ATOM     11  C   UNL     1      -2.000  -0.482   3.672  0.00  0.00    +0.040 A 
ATOM     12  C   UNL     1      -1.328  -0.936   4.795  0.00  0.00    +0.124 A 
ATOM     13  C   UNL     1       0.021  -1.241   4.721  0.00  0.00    +0.040 A 
ATOM     14  C   UNL     1       0.697  -1.099   3.525  0.00  0.00    +0.026 A 
ATOM     15  F   UNL     1      -1.989  -1.080   5.964  0.00  0.00    -0.205 F 
ENDBRANCH   7   9
ENDBRANCH   6   7
ENDBRANCH   1   6
BRANCH   3  16
ATOM     16  N   UNL     1       0.887  -0.616  -3.608  0.00  0.00    -0.188 NA
ATOM     17  C   UNL     1       0.427  -0.302  -4.783  0.00  0.00    +0.142 C 
BRANCH  17  18
ATOM     18  C   UNL     1       1.115  -0.776  -5.992  0.00  0.00    +0.044 A 
ATOM     19  C   UNL     1       0.616  -0.427  -7.321  0.00  0.00    -0.006 A 
ATOM     20  C   UNL     1      -0.527   0.365  -7.487  0.00  0.00    +0.009 A 
ATOM     21  C   UNL     1      -0.960   0.668  -8.743  0.00  0.00    +0.001 A 
ATOM     22  C   UNL     1      -0.281   0.201  -9.866  0.00  0.00    +0.001 A 
ATOM     23  C   UNL     1       0.834  -0.572  -9.740  0.00  0.00    +0.008 A 
ATOM     24  C   UNL     1       1.308  -0.904  -8.460  0.00  0.00    -0.017 A 
ATOM     25  C   UNL     1       2.456  -1.698  -8.291  0.00  0.00    +0.012 A 
ATOM     26  C   UNL     1       2.908  -2.013  -7.048  0.00  0.00    +0.046 A 
ATOM     27  C   UNL     1       2.262  -1.563  -5.897  0.00  0.00    +0.126 A 
BRANCH  27  28
ATOM     28  O   UNL     1       2.751  -1.898  -4.675  0.00  0.00    -0.506 OA
ATOM     29  H   UNL     1       2.393  -2.723  -4.321  0.00  0.00    +0.292 HD
ENDBRANCH  27  28
ENDBRANCH  17  18
ENDBRANCH   3  16
TORSDOF 6
