REMARK  Name = ZINC36558532
REMARK  15 active torsions:
REMARK  status: ('A' for Active; 'I' for Inactive)
REMARK    1  A    between atoms: C_1  and  C_2
REMARK    2  A    between atoms: C_2  and  C_3
REMARK    3  A    between atoms: C_3  and  C_5
REMARK    4  A    between atoms: C_3  and  C_11
REMARK    5  A    between atoms: N_13  and  C_14
REMARK    6  A    between atoms: N_13  and  C_21
REMARK    7  A    between atoms: C_14  and  C_15
REMARK    8  A    between atoms: C_18  and  C_20
REMARK    9  A    between atoms: C_21  and  C_23
REMARK   10  A    between atoms: C_21  and  C_33
REMARK   11  A    between atoms: C_25  and  N_30
REMARK   12  A    between atoms: N_35  and  C_36
REMARK   13  A    between atoms: C_36  and  C_37
REMARK   14  A    between atoms: C_36  and  C_38
REMARK   15  A    between atoms: C_36  and  C_39
REMARK                            x       y       z     vdW  Elec       q    Type
REMARK                         _______ _______ _______ _____ _____    ______ ____
ROOT
ATOM      1  C   UNL     1      -1.339  -1.812   0.201  0.00  0.00    +0.224 C 
ATOM      2  O   UNL     1      -1.713  -2.262  -0.862  0.00  0.00    -0.275 OA
ATOM      3  N   UNL     1      -0.746  -2.619   1.103  0.00  0.00    -0.278 N 
ENDROOT
BRANCH   1   4
ATOM      4  C   UNL     1      -1.536  -0.351   0.512  0.00  0.00    +0.105 C 
BRANCH   4   5
ATOM      5  C   UNL     1      -2.795   0.139  -0.157  0.00  0.00    -0.036 A 
ATOM      6  C   UNL     1      -2.920   0.066  -1.532  0.00  0.00    +0.004 A 
ATOM      7  C   UNL     1      -4.074   0.516  -2.145  0.00  0.00    +0.000 A 
ATOM      8  C   UNL     1      -5.103   1.038  -1.384  0.00  0.00    +0.000 A 
ATOM      9  C   UNL     1      -4.978   1.111  -0.009  0.00  0.00    +0.000 A 
ATOM     10  C   UNL     1      -3.825   0.657   0.605  0.00  0.00    +0.004 A 
ENDBRANCH   4   5
BRANCH   4  12
ATOM     11  C   UNL     1      -0.451   1.899   0.465  0.00  0.00    +0.005 C 
ATOM     12  C   UNL     1      -0.339   0.447  -0.006  0.00  0.00    +0.014 C 
ENDBRANCH   4  12
ENDBRANCH   1   4
BRANCH   3  13
ATOM     13  C   UNL     1      -0.414  -2.110   2.435  0.00  0.00    +0.183 C 
BRANCH  13  14
ATOM     14  C   UNL     1      -1.514  -2.472   3.400  0.00  0.00    +0.122 A 
ATOM     15  C   UNL     1      -1.530  -3.548   4.207  0.00  0.00    +0.046 A 
ATOM     16  C   UNL     1      -2.740  -3.496   4.935  0.00  0.00    +0.045 A 
ATOM     17  C   UNL     1      -3.392  -2.392   4.529  0.00  0.00    +0.102 A 
ATOM     18  O   UNL     1      -2.642  -1.772   3.603  0.00  0.00    -0.463 OA
ATOM     19  C   UNL     1      -4.734  -1.926   5.032  0.00  0.00    +0.086 C 
ENDBRANCH  13  14
ENDBRANCH   3  13
BRANCH   3  20
ATOM     20  C   UNL     1      -0.433  -4.007   0.750  0.00  0.00    +0.194 C 
BRANCH  20  21
ATOM     21  C   UNL     1       0.343  -4.034  -0.541  0.00  0.00    +0.002 A 
ATOM     22  C   UNL     1      -0.270  -4.457  -1.707  0.00  0.00    +0.040 A 
ATOM     23  C   UNL     1       0.442  -4.483  -2.891  0.00  0.00    +0.127 A 
ATOM     24  C   UNL     1       1.766  -4.086  -2.912  0.00  0.00    +0.034 A 
ATOM     25  C   UNL     1       2.379  -3.663  -1.748  0.00  0.00    +0.022 A 
ATOM     26  C   UNL     1       1.666  -3.631  -0.563  0.00  0.00    +0.047 A 
ATOM     27 CL   UNL     1       2.433  -3.093   0.898  0.00  0.00    -0.083 Cl
BRANCH  23  28
ATOM     28  N   UNL     1      -0.214  -4.936  -4.138  0.00  0.00    +0.056 N 
ATOM     29  O   UNL     1      -1.396  -5.192  -4.141  0.00  0.00    -0.126 OA
ATOM     30  O   UNL     1       0.432  -5.051  -5.154  0.00  0.00    -0.126 OA
ENDBRANCH  23  28
ENDBRANCH  20  21
BRANCH  20  31
ATOM     31  C   UNL     1      -1.714  -4.784   0.584  0.00  0.00    +0.239 C 
ATOM     32  O   UNL     1      -2.782  -4.216   0.664  0.00  0.00    -0.273 OA
ATOM     33  N   UNL     1      -1.671  -6.110   0.346  0.00  0.00    -0.309 N 
ATOM     34  H   UNL     1      -0.821  -6.576   0.351  0.00  0.00    +0.149 HD
BRANCH  33  35
ATOM     35  C   UNL     1      -2.910  -6.846   0.081  0.00  0.00    +0.026 C 
ATOM     36  C   UNL     1      -3.590  -6.269  -1.162  0.00  0.00    +0.031 C 
ATOM     37  C   UNL     1      -2.584  -8.323  -0.154  0.00  0.00    +0.031 C 
ATOM     38  C   UNL     1      -3.848  -6.716   1.283  0.00  0.00    +0.031 C 
ENDBRANCH  33  35
ENDBRANCH  20  31
ENDBRANCH   3  20
TORSDOF 10
