REMARK  Name = ZINC21232700
REMARK  7 active torsions:
REMARK  status: ('A' for Active; 'I' for Inactive)
REMARK    1  A    between atoms: C_1  and  O_2
REMARK    2  A    between atoms: O_2  and  C_3
REMARK    3  A    between atoms: C_6  and  O_37
REMARK    4  A    between atoms: C_7  and  C_9
REMARK    5  A    between atoms: C_14  and  C_24
REMARK    6  A    between atoms: C_28  and  N_30
REMARK    7  A    between atoms: O_37  and  C_38
REMARK                            x       y       z     vdW  Elec       q    Type
REMARK                         _______ _______ _______ _____ _____    ______ ____
ROOT
ATOM      1  C   UNL     1       1.795   2.069  -0.524  0.00  0.00    +0.036 C 
ATOM      2  C   UNL     1       0.329   1.661  -0.395  0.00  0.00    +0.060 C 
ATOM      3  C   UNL     1       0.222   0.155  -0.222  0.00  0.00    +0.017 C 
ATOM      4  C   UNL     1       1.119  -0.663  -0.799  0.00  0.00    +0.036 C 
ATOM      5  C   UNL     1       1.129  -2.170  -0.710  0.00  0.00    +0.136 C 
ATOM      6  N   UNL     1      -0.075  -2.747  -0.151  0.00  0.00    -0.331 N 
ATOM      7  C   UNL     1      -0.440  -2.506   1.172  0.00  0.00    +0.049 A 
ATOM      8  C   UNL     1      -0.479  -3.526   2.110  0.00  0.00    +0.025 A 
ATOM      9  C   UNL     1      -0.801  -3.229   3.423  0.00  0.00    +0.002 A 
ATOM     10  C   UNL     1      -1.080  -1.928   3.799  0.00  0.00    +0.002 A 
ATOM     11  C   UNL     1      -1.060  -0.910   2.861  0.00  0.00    +0.025 A 
ATOM     12  C   UNL     1      -0.758  -1.209   1.543  0.00  0.00    +0.052 A 
ATOM     13  N   UNL     1      -0.829  -0.258   0.531  0.00  0.00    -0.316 N 
ATOM     14  C   UNL     1       2.179  -0.128  -1.567  0.00  0.00    +0.163 C 
ATOM     15  O   UNL     1       2.961  -0.891  -2.100  0.00  0.00    -0.292 OA
ATOM     16  C   UNL     1       2.374   1.348  -1.747  0.00  0.00    +0.088 C 
ATOM     17  H   UNL     1      -0.718  -3.387  -0.773  0.00  0.00    +0.147 HD
ATOM     18  H   UNL     1      -1.829   0.167   0.359  0.00  0.00    +0.152 HD
ENDROOT
BRANCH   5  19
ATOM     19  C   UNL     1       2.300  -2.590   0.142  0.00  0.00    -0.021 A 
ATOM     20  C   UNL     1       2.352  -2.221   1.474  0.00  0.00    +0.007 A 
ATOM     21  C   UNL     1       3.423  -2.610   2.256  0.00  0.00    +0.022 A 
ATOM     22  C   UNL     1       4.447  -3.359   1.704  0.00  0.00    +0.071 A 
ATOM     23  C   UNL     1       4.397  -3.722   0.371  0.00  0.00    +0.145 A 
ATOM     24  C   UNL     1       3.323  -3.337  -0.410  0.00  0.00    +0.040 A 
ATOM     25 CL   UNL     1       5.795  -3.842   2.686  0.00  0.00    -0.081 Cl
BRANCH  23  26
ATOM     26  N   UNL     1       5.492  -4.523  -0.220  0.00  0.00    +0.058 N 
ATOM     27  O   UNL     1       5.447  -4.843  -1.395  0.00  0.00    -0.126 OA
ATOM     28  O   UNL     1       6.438  -4.862   0.468  0.00  0.00    -0.126 OA
ENDBRANCH  23  26
ENDBRANCH   5  19
BRANCH   1  33
ATOM     29  C   UNL     1       1.385   5.532  -1.979  0.00  0.00    +0.121 A 
ATOM     30  C   UNL     1       2.085   6.303  -1.062  0.00  0.00    +0.049 A 
ATOM     31  C   UNL     1       2.689   5.704   0.026  0.00  0.00    +0.049 A 
ATOM     32  C   UNL     1       2.596   4.331   0.202  0.00  0.00    +0.124 A 
ATOM     33  C   UNL     1       1.896   3.560  -0.715  0.00  0.00    +0.002 A 
ATOM     34  C   UNL     1       1.296   4.159  -1.806  0.00  0.00    +0.053 A 
BRANCH  29  36
ATOM     35  C   UNL     1       0.927   7.540  -3.168  0.00  0.00    +0.277 C 
ATOM     36  O   UNL     1       0.790   6.122  -3.050  0.00  0.00    -0.495 OA
ENDBRANCH  29  36
BRANCH  32  37
ATOM     37  O   UNL     1       3.190   3.741   1.273  0.00  0.00    -0.495 OA
ATOM     38  C   UNL     1       3.894   4.595   2.176  0.00  0.00    +0.277 C 
ENDBRANCH  32  37
ENDBRANCH   1  33
TORSDOF 5
