REMARK  Name = ZINC35882327
REMARK  6 active torsions:
REMARK  status: ('A' for Active; 'I' for Inactive)
REMARK    1  A    between atoms: C_1  and  C_2
REMARK    2  A    between atoms: C_5  and  N_9
REMARK    3  A    between atoms: C_6  and  C_8
REMARK    4  A    between atoms: N_14  and  C_17
REMARK    5  A    between atoms: C_17  and  C_18
REMARK    6  A    between atoms: C_18  and  C_19
REMARK                            x       y       z     vdW  Elec       q    Type
REMARK                         _______ _______ _______ _____ _____    ______ ____
ROOT
ATOM      1  N   UNL     1       0.059  -4.171  -0.021  0.00  0.00    -0.244 N 
ATOM      2  C   UNL     1      -1.133  -4.879  -0.024  0.00  0.00    +0.172 A 
ATOM      3  C   UNL     1      -1.088  -6.268  -0.032  0.00  0.00    +0.149 A 
ATOM      4  C   UNL     1       0.166  -6.915  -0.037  0.00  0.00    +0.282 A 
ATOM      5  O   UNL     1       0.232  -8.131  -0.044  0.00  0.00    -0.265 OA
ATOM      6  N   UNL     1       1.292  -6.171  -0.033  0.00  0.00    -0.258 N 
ATOM      7  C   UNL     1       1.234  -4.828  -0.031  0.00  0.00    +0.338 A 
ATOM      8  O   UNL     1       2.269  -4.190  -0.033  0.00  0.00    -0.246 OA
ATOM      9  N   UNL     1      -2.400  -6.697  -0.034  0.00  0.00    -0.339 N 
ATOM     10  H   UNL     1      -2.706  -7.617  -0.039  0.00  0.00    +0.167 HD
ATOM     11  C   UNL     1      -3.175  -5.594  -0.027  0.00  0.00    +0.199 A 
ATOM     12  N   UNL     1      -2.421  -4.525  -0.021  0.00  0.00    -0.218 NA
ENDROOT
BRANCH   1  17
ATOM     13  C   UNL     1      -0.018   1.503   0.010  0.00  0.00    +0.044 C 
ATOM     14  C   UNL     1       0.002  -0.004   0.002  0.00  0.00    -0.050 A 
ATOM     15  C   UNL     1       0.006  -0.688  -1.200  0.00  0.00    +0.005 A 
ATOM     16  C   UNL     1       0.025  -2.068  -1.211  0.00  0.00    +0.027 A 
ATOM     17  C   UNL     1       0.040  -2.771  -0.013  0.00  0.00    +0.056 A 
ATOM     18  C   UNL     1       0.037  -2.082   1.192  0.00  0.00    -0.026 A 
ATOM     19  C   UNL     1       0.023  -0.700   1.196  0.00  0.00    +0.008 A 
ATOM     20  C   UNL     1       0.053  -2.840   2.494  0.00  0.00    +0.046 C 
ENDBRANCH   1  17
BRANCH   6  21
ATOM     21  C   UNL     1       2.597  -6.836  -0.037  0.00  0.00    +0.134 C 
BRANCH  21  22
ATOM     22  C   UNL     1       3.050  -7.060  -1.481  0.00  0.00    +0.057 C 
BRANCH  22  23
ATOM     23  C   UNL     1       4.393  -7.745  -1.486  0.00  0.00    -0.046 A 
ATOM     24  C   UNL     1       5.553  -6.992  -1.476  0.00  0.00    +0.004 A 
ATOM     25  C   UNL     1       6.784  -7.621  -1.480  0.00  0.00    +0.000 A 
ATOM     26  C   UNL     1       6.856  -9.001  -1.493  0.00  0.00    +0.000 A 
ATOM     27  C   UNL     1       5.696  -9.753  -1.502  0.00  0.00    +0.000 A 
ATOM     28  C   UNL     1       4.464  -9.125  -1.494  0.00  0.00    +0.004 A 
ENDBRANCH  22  23
ENDBRANCH  21  22
ENDBRANCH   6  21
TORSDOF 4
