REMARK  Name = ZINC36205670
REMARK  16 active torsions:
REMARK  status: ('A' for Active; 'I' for Inactive)
REMARK    1  A    between atoms: C_1  and  C_2
REMARK    2  A    between atoms: C_2  and  O_3
REMARK    3  A    between atoms: O_3  and  C_4
REMARK    4  A    between atoms: C_4  and  C_5
REMARK    5  A    between atoms: C_5  and  C_7
REMARK    6  A    between atoms: C_5  and  O_33
REMARK    7  A    between atoms: C_7  and  N_8
REMARK    8  A    between atoms: N_8  and  C_9
REMARK    9  A    between atoms: N_8  and  C_14
REMARK   10  A    between atoms: C_9  and  C_10
REMARK   11  A    between atoms: C_10  and  C_11
REMARK   12  A    between atoms: C_11  and  O_12
REMARK   13  A    between atoms: O_12  and  C_13
REMARK   14  A    between atoms: C_14  and  C_15
REMARK   15  A    between atoms: C_21  and  C_26
REMARK   16  A    between atoms: C_29  and  C_32
REMARK                            x       y       z     vdW  Elec       q    Type
REMARK                         _______ _______ _______ _____ _____    ______ ____
ROOT
ATOM      1  C   UNL     1       3.647  -5.688   3.107  0.00  0.00    +0.094 A 
ATOM      2  N   UNL     1       4.053  -6.984   3.094  0.00  0.00    -0.312 N 
ATOM      3  H   UNL     1       3.599  -7.630   3.656  0.00  0.00    +0.170 HD
ATOM      4  C   UNL     1       5.074  -7.388   2.315  0.00  0.00    +0.260 A 
ATOM      5  O   UNL     1       5.426  -8.555   2.314  0.00  0.00    -0.267 OA
ATOM      6  C   UNL     1       5.738  -6.427   1.488  0.00  0.00    +0.080 A 
ATOM      7  C   UNL     1       6.854  -6.616   0.569  0.00  0.00    +0.004 A 
ATOM      8  C   UNL     1       7.322  -5.545  -0.117  0.00  0.00    +0.056 A 
ATOM      9  S   UNL     1       6.279  -4.211   0.440  0.00  0.00    -0.076 S 
ATOM     10  C   UNL     1       5.249  -5.113   1.569  0.00  0.00    +0.116 A 
ATOM     11  N   UNL     1       4.230  -4.790   2.360  0.00  0.00    -0.229 NA
ENDROOT
BRANCH   7  12
ATOM     12  C   UNL     1       7.466  -7.954   0.389  0.00  0.00    -0.017 A 
ATOM     13  C   UNL     1       7.844  -8.707   1.500  0.00  0.00    +0.009 A 
ATOM     14  C   UNL     1       8.412  -9.952   1.326  0.00  0.00    +0.004 A 
ATOM     15  C   UNL     1       8.608 -10.454   0.052  0.00  0.00    -0.050 A 
ATOM     16  C   UNL     1       8.236  -9.711  -1.055  0.00  0.00    +0.004 A 
ATOM     17  C   UNL     1       7.662  -8.467  -0.893  0.00  0.00    +0.009 A 
ATOM     18  C   UNL     1       9.230 -11.814  -0.132  0.00  0.00    +0.044 C 
ENDBRANCH   7  12
BRANCH   1  19
ATOM     19  C   UNL     1       2.499  -5.281   3.995  0.00  0.00    -0.003 C 
BRANCH  19  20
ATOM     20  N   UNL     1       2.148  -3.880   3.731  0.00  0.00    +0.386 N 
ATOM     21  H   UNL     1       2.974  -3.305   3.811  0.00  0.00    -0.081 HD
BRANCH  20  22
ATOM     22  C   UNL     1       1.599  -3.760   2.374  0.00  0.00    -0.044 C 
BRANCH  22  23
ATOM     23  C   UNL     1       1.350  -2.285   2.052  0.00  0.00    +0.124 C 
BRANCH  23  24
ATOM     24  O   UNL     1       2.597  -1.588   2.018  0.00  0.00    -0.391 OA
ATOM     25  H   UNL     1       3.217  -1.923   1.356  0.00  0.00    +0.210 HD
ENDBRANCH  23  24
BRANCH  23  26
ATOM     26  C   UNL     1       0.663  -2.169   0.690  0.00  0.00    +0.189 C 
BRANCH  26  27
ATOM     27  O   UNL     1       0.326  -0.802   0.442  0.00  0.00    -0.378 OA
BRANCH  27  29
ATOM     28  C   UNL     1      -0.637   0.906  -0.970  0.00  0.00    +0.034 C 
ATOM     29  C   UNL     1      -0.324  -0.583  -0.811  0.00  0.00    +0.156 C 
ENDBRANCH  27  29
ENDBRANCH  26  27
ENDBRANCH  23  26
ENDBRANCH  22  23
ENDBRANCH  20  22
BRANCH  20  30
ATOM     30  C   UNL     1       1.145  -3.433   4.706  0.00  0.00    -0.076 C 
BRANCH  30  31
ATOM     31  C   UNL     1       1.760  -3.436   6.107  0.00  0.00    +0.009 C 
BRANCH  31  32
ATOM     32  C   UNL     1       0.761  -2.843   7.104  0.00  0.00    +0.157 C 
BRANCH  32  33
ATOM     33  O   UNL     1       1.335  -2.845   8.412  0.00  0.00    -0.383 OA
ATOM     34  C   UNL     1       0.480  -2.308   9.423  0.00  0.00    +0.193 C 
ENDBRANCH  32  33
ENDBRANCH  31  32
ENDBRANCH  30  31
ENDBRANCH  20  30
ENDBRANCH  19  20
ENDBRANCH   1  19
TORSDOF 13
