REMARK  Name = ZINC12080062
REMARK  7 active torsions:
REMARK  status: ('A' for Active; 'I' for Inactive)
REMARK    1  A    between atoms: C_1  and  C_2
REMARK    2  A    between atoms: C_5  and  C_11
REMARK    3  A    between atoms: C_11  and  C_12
REMARK    4  A    between atoms: N_14  and  C_15
REMARK    5  A    between atoms: C_15  and  C_16
REMARK    6  A    between atoms: C_23  and  C_26
REMARK    7  A    between atoms: C_28  and  C_32
REMARK                            x       y       z     vdW  Elec       q    Type
REMARK                         _______ _______ _______ _____ _____    ______ ____
ROOT
ATOM      1  C   UNL     1       1.460  -0.301  -0.422  0.00  0.00    +0.195 C 
ATOM      2  C   UNL     1       0.002  -0.004   0.002  0.00  0.00    +0.085 C 
ATOM      3  C   UNL     1      -0.018   1.512   0.010  0.00  0.00    -0.002 A 
ATOM      4  C   UNL     1      -1.053   2.423   0.020  0.00  0.00    +0.007 A 
ATOM      5  C   UNL     1      -0.787   3.781   0.023  0.00  0.00    +0.001 A 
ATOM      6  C   UNL     1       0.520   4.226   0.007  0.00  0.00    +0.012 A 
ATOM      7  C   UNL     1       1.570   3.314  -0.005  0.00  0.00    +0.026 A 
ATOM      8  C   UNL     1       1.302   1.937   0.000  0.00  0.00    +0.132 A 
ATOM      9  O   UNL     1       2.161   0.881   0.000  0.00  0.00    -0.486 OA
ENDROOT
BRANCH   7  10
ATOM     10  C   UNL     1       2.972   3.798  -0.023  0.00  0.00    +0.004 A 
ATOM     11  C   UNL     1       3.379   4.754  -0.954  0.00  0.00    +0.024 A 
ATOM     12  C   UNL     1       4.710   5.179  -0.924  0.00  0.00    +0.055 A 
ATOM     13  C   UNL     1       5.577   4.627   0.021  0.00  0.00    +0.123 A 
ATOM     14  N   UNL     1       5.152   3.722   0.879  0.00  0.00    -0.262 NA
ATOM     15  C   UNL     1       3.904   3.299   0.887  0.00  0.00    +0.119 A 
BRANCH  12  16
ATOM     16  C   UNL     1       5.195   6.195  -1.884  0.00  0.00    +0.243 C 
ATOM     17  O   UNL     1       4.433   6.670  -2.703  0.00  0.00    -0.270 OA
ATOM     18  N   UNL     1       6.482   6.594  -1.849  0.00  0.00    -0.325 N 
ATOM     19  H   UNL     1       7.090   6.215  -1.195  0.00  0.00    +0.145 HD
ATOM     20  H   UNL     1       6.800   7.260  -2.479  0.00  0.00    +0.145 HD
ENDBRANCH  12  16
ENDBRANCH   7  10
BRANCH   1  21
ATOM     21  C   UNL     1       1.993  -1.540   0.300  0.00  0.00    +0.149 C 
BRANCH  21  24
ATOM     22  C   UNL     1       4.051  -2.842   0.388  0.00  0.00    +0.215 C 
ATOM     23  O   UNL     1       3.518  -3.574   1.196  0.00  0.00    -0.276 OA
ATOM     24  N   UNL     1       3.373  -1.795  -0.121  0.00  0.00    -0.312 N 
ATOM     25  H   UNL     1       3.799  -1.210  -0.767  0.00  0.00    +0.149 HD
BRANCH  22  26
ATOM     26  C   UNL     1       5.470  -3.105  -0.045  0.00  0.00    +0.118 C 
BRANCH  26  30
ATOM     27  C   UNL     1       7.892  -5.726   2.497  0.00  0.00    +0.028 C 
ATOM     28  C   UNL     1       7.964  -5.846   0.973  0.00  0.00    +0.071 C 
ATOM     29  C   UNL     1       7.484  -4.539   0.334  0.00  0.00    +0.044 C 
ATOM     30  C   UNL     1       6.003  -4.343   0.677  0.00  0.00    +0.082 C 
ATOM     31  N   UNL     1       5.250  -5.523   0.247  0.00  0.00    -0.323 N 
ATOM     32  C   UNL     1       5.821  -6.736   0.199  0.00  0.00    +0.131 C 
ATOM     33  S   UNL     1       4.873  -8.071  -0.300  0.00  0.00    -0.019 S 
ATOM     34  N   UNL     1       7.105  -6.944   0.527  0.00  0.00    -0.324 N 
ATOM     35  H   UNL     1       4.320  -5.425  -0.008  0.00  0.00    +0.148 HD
ATOM     36  H   UNL     1       7.471  -7.840   0.468  0.00  0.00    +0.148 HD
ENDBRANCH  26  30
ENDBRANCH  22  26
ENDBRANCH  21  24
ENDBRANCH   1  21
TORSDOF 6
