REMARK  Name = ZINC38658820
REMARK  15 active torsions:
REMARK  status: ('A' for Active; 'I' for Inactive)
REMARK    1  A    between atoms: C_1  and  C_2
REMARK    2  A    between atoms: C_2  and  C_3
REMARK    3  A    between atoms: C_2  and  C_4
REMARK    4  A    between atoms: C_2  and  C_5
REMARK    5  A    between atoms: C_8  and  C_11
REMARK    6  A    between atoms: C_12  and  C_13
REMARK    7  A    between atoms: C_13  and  O_15
REMARK    8  A    between atoms: O_15  and  C_16
REMARK    9  A    between atoms: C_23  and  N_39
REMARK   10  A    between atoms: C_24  and  C_37
REMARK   11  A    between atoms: C_25  and  C_27
REMARK   12  A    between atoms: C_31  and  O_35
REMARK   13  A    between atoms: C_32  and  O_33
REMARK   14  A    between atoms: O_33  and  C_34
REMARK   15  A    between atoms: O_35  and  C_36
REMARK                            x       y       z     vdW  Elec       q    Type
REMARK                         _______ _______ _______ _____ _____    ______ ____
ROOT
ATOM      1  C   UNL     1       8.130  -1.883  -7.313  0.00  0.00    +0.135 A 
ATOM      2  C   UNL     1       7.181  -2.572  -8.054  0.00  0.00    +0.047 A 
ATOM      3  C   UNL     1       7.518  -3.106  -9.282  0.00  0.00    +0.012 A 
ATOM      4  C   UNL     1       8.802  -2.958  -9.778  0.00  0.00    +0.008 A 
ATOM      5  C   UNL     1       9.754  -2.271  -9.041  0.00  0.00    +0.138 A 
ATOM      6  C   UNL     1       9.414  -1.728  -7.809  0.00  0.00    +0.093 A 
ATOM      7  O   UNL     1      11.016  -2.115  -9.511  0.00  0.00    -0.441 OA
ATOM      8  C   UNL     1      11.476  -2.923 -10.480  0.00  0.00    +0.199 C 
ATOM      9  C   UNL     1      10.642  -3.631 -11.278  0.00  0.00    +0.098 C 
ATOM     10  C   UNL     1       9.150  -3.547 -11.119  0.00  0.00    +0.102 C 
ENDROOT
BRANCH  10  11
ATOM     11  C   UNL     1       8.579  -2.678 -12.210  0.00  0.00    +0.011 A 
ATOM     12  C   UNL     1       8.904  -1.335 -12.264  0.00  0.00    +0.008 A 
ATOM     13  C   UNL     1       8.383  -0.534 -13.263  0.00  0.00    +0.004 A 
ATOM     14  C   UNL     1       7.534  -1.073 -14.212  0.00  0.00    +0.049 A 
ATOM     15  C   UNL     1       7.205  -2.418 -14.164  0.00  0.00    +0.162 A 
ATOM     16  C   UNL     1       7.735  -3.225 -13.162  0.00  0.00    +0.166 A 
BRANCH  16  17
ATOM     17  O   UNL     1       7.420  -4.547 -13.113  0.00  0.00    -0.491 OA
ATOM     18  C   UNL     1       6.202  -4.900 -12.453  0.00  0.00    +0.277 C 
ENDBRANCH  16  17
BRANCH  15  19
ATOM     19  O   UNL     1       6.371  -2.950 -15.097  0.00  0.00    -0.491 OA
ATOM     20  C   UNL     1       5.870  -2.063 -16.100  0.00  0.00    +0.277 C 
ENDBRANCH  15  19
ENDBRANCH  10  11
BRANCH   8  21
ATOM     21  N   UNL     1      12.831  -3.034 -10.668  0.00  0.00    -0.328 N 
ATOM     22  H   UNL     1      13.441  -2.533 -10.105  0.00  0.00    +0.145 HD
ATOM     23  H   UNL     1      13.178  -3.614 -11.364  0.00  0.00    +0.145 HD
ENDBRANCH   8  21
BRANCH   9  24
ATOM     24  C   UNL     1      11.193  -4.477 -12.294  0.00  0.00    +0.101 C 
ATOM     25  N   UNL     1      11.630  -5.148 -13.100  0.00  0.00    -0.191 NA
ENDBRANCH   9  24
BRANCH   1  26
ATOM     26  O   UNL     1       7.799  -1.357  -6.104  0.00  0.00    -0.423 OA
BRANCH  26  27
ATOM     27  C   UNL     1       7.734  -2.192  -5.046  0.00  0.00    +0.337 C 
ATOM     28  O   UNL     1       7.879  -3.389  -5.206  0.00  0.00    -0.245 OA
BRANCH  27  30
ATOM     29  C   UNL     1       7.421  -2.492  -2.650  0.00  0.00    +0.015 C 
ATOM     30  C   UNL     1       7.487  -1.657  -3.708  0.00  0.00    +0.092 C 
BRANCH  29  34
ATOM     31  C   UNL     1       6.708  -0.942   1.234  0.00  0.00    -0.042 A 
ATOM     32  C   UNL     1       6.872  -2.305   1.056  0.00  0.00    +0.005 A 
ATOM     33  C   UNL     1       7.104  -2.816  -0.203  0.00  0.00    +0.008 A 
ATOM     34  C   UNL     1       7.173  -1.954  -1.302  0.00  0.00    -0.025 A 
ATOM     35  C   UNL     1       7.006  -0.579  -1.115  0.00  0.00    +0.008 A 
ATOM     36  C   UNL     1       6.769  -0.083   0.150  0.00  0.00    +0.005 A 
BRANCH  31  38
ATOM     37  C   UNL     1       5.106   0.331   2.635  0.00  0.00    +0.015 C 
ATOM     38  C   UNL     1       6.455  -0.392   2.614  0.00  0.00    -0.013 C 
ATOM     39  C   UNL     1       7.567   0.593   2.982  0.00  0.00    +0.015 C 
ATOM     40  C   UNL     1       6.434  -1.539   3.625  0.00  0.00    +0.015 C 
ENDBRANCH  31  38
ENDBRANCH  29  34
ENDBRANCH  27  30
ENDBRANCH  26  27
ENDBRANCH   1  26
TORSDOF 10
