REMARK  Name = ZINC38651091
REMARK  12 active torsions:
REMARK  status: ('A' for Active; 'I' for Inactive)
REMARK    1  A    between atoms: C_1  and  C_2
REMARK    2  A    between atoms: C_2  and  C_4
REMARK    3  A    between atoms: C_2  and  O_28
REMARK    4  A    between atoms: C_4  and  O_6
REMARK    5  A    between atoms: O_6  and  C_7
REMARK    6  A    between atoms: C_14  and  N_27
REMARK    7  A    between atoms: C_15  and  C_25
REMARK    8  A    between atoms: C_16  and  C_18
REMARK    9  A    between atoms: O_28  and  C_29
REMARK   10  A    between atoms: C_32  and  C_35
REMARK   11  A    between atoms: C_35  and  C_36
REMARK   12  A    between atoms: C_35  and  C_37
REMARK                            x       y       z     vdW  Elec       q    Type
REMARK                         _______ _______ _______ _____ _____    ______ ____
ROOT
ATOM      1  C   UNL     1       2.596  -0.497   2.746  0.00  0.00    +0.135 A 
ATOM      2  C   UNL     1       1.874  -1.337   3.582  0.00  0.00    +0.047 A 
ATOM      3  C   UNL     1       2.442  -1.801   4.752  0.00  0.00    +0.012 A 
ATOM      4  C   UNL     1       3.730  -1.432   5.096  0.00  0.00    +0.008 A 
ATOM      5  C   UNL     1       4.456  -0.594   4.264  0.00  0.00    +0.138 A 
ATOM      6  C   UNL     1       3.889  -0.131   3.084  0.00  0.00    +0.093 A 
ATOM      7  O   UNL     1       5.720  -0.222   4.584  0.00  0.00    -0.441 OA
ATOM      8  C   UNL     1       6.423  -0.936   5.479  0.00  0.00    +0.199 C 
ATOM      9  C   UNL     1       5.824  -1.774   6.357  0.00  0.00    +0.098 C 
ATOM     10  C   UNL     1       4.331  -1.949   6.376  0.00  0.00    +0.099 C 
ENDROOT
BRANCH  10  11
ATOM     11  C   UNL     1       3.754  -1.187   7.541  0.00  0.00    -0.016 A 
ATOM     12  C   UNL     1       3.915   0.184   7.618  0.00  0.00    +0.006 A 
ATOM     13  C   UNL     1       3.386   0.883   8.687  0.00  0.00    +0.000 A 
ATOM     14  C   UNL     1       2.696   0.212   9.679  0.00  0.00    +0.001 A 
ATOM     15  C   UNL     1       2.535  -1.158   9.603  0.00  0.00    +0.020 A 
ATOM     16  C   UNL     1       3.059  -1.858   8.531  0.00  0.00    +0.045 A 
ATOM     17 CL   UNL     1       2.851  -3.579   8.431  0.00  0.00    -0.083 Cl
ENDBRANCH  10  11
BRANCH   8  18
ATOM     18  N   UNL     1       7.790  -0.813   5.503  0.00  0.00    -0.328 N 
ATOM     19  H   UNL     1       8.235  -0.217   4.880  0.00  0.00    +0.145 HD
ATOM     20  H   UNL     1       8.312  -1.322   6.143  0.00  0.00    +0.145 HD
ENDBRANCH   8  18
BRANCH   9  21
ATOM     21  C   UNL     1       6.628  -2.510   7.286  0.00  0.00    +0.101 C 
ATOM     22  N   UNL     1       7.266  -3.093   8.023  0.00  0.00    -0.191 NA
ENDBRANCH   9  21
BRANCH   1  23
ATOM     23  O   UNL     1       2.039  -0.039   1.594  0.00  0.00    -0.423 OA
BRANCH  23  24
ATOM     24  C   UNL     1       1.120   0.936   1.683  0.00  0.00    +0.353 C 
ATOM     25  O   UNL     1       0.880   1.444   2.752  0.00  0.00    -0.246 OA
BRANCH  24  27
ATOM     26  C   UNL     1       1.382   2.045  -0.520  0.00  0.00    +0.064 C 
ATOM     27  C   UNL     1       0.390   1.398   0.448  0.00  0.00    +0.279 C 
BRANCH  27  28
ATOM     28  O   UNL     1      -0.609   2.352   0.815  0.00  0.00    -0.478 OA
BRANCH  28  29
ATOM     29  C   UNL     1      -1.672   2.484  -0.021  0.00  0.00    +0.122 A 
ATOM     30  C   UNL     1      -1.702   1.792  -1.223  0.00  0.00    +0.046 A 
ATOM     31  C   UNL     1      -2.784   1.927  -2.071  0.00  0.00    +0.007 A 
ATOM     32  C   UNL     1      -3.837   2.753  -1.723  0.00  0.00    -0.045 A 
ATOM     33  C   UNL     1      -3.810   3.445  -0.526  0.00  0.00    +0.007 A 
ATOM     34  C   UNL     1      -2.733   3.308   0.328  0.00  0.00    +0.046 A 
BRANCH  32  35
ATOM     35  C   UNL     1      -5.016   2.899  -2.650  0.00  0.00    +0.013 C 
ATOM     36  C   UNL     1      -6.289   2.446  -1.932  0.00  0.00    +0.012 C 
ATOM     37  C   UNL     1      -5.159   4.365  -3.066  0.00  0.00    +0.012 C 
ENDBRANCH  32  35
ENDBRANCH  28  29
ENDBRANCH  27  28
ENDBRANCH  24  27
ENDBRANCH  23  24
ENDBRANCH   1  23
TORSDOF 9
