REMARK  Name = ZINC14539547
REMARK  7 active torsions:
REMARK  status: ('A' for Active; 'I' for Inactive)
REMARK    1  A    between atoms: C_4  and  C_7
REMARK    2  A    between atoms: C_7  and  C_8
REMARK    3  A    between atoms: C_8  and  N_9
REMARK    4  A    between atoms: N_12  and  C_31
REMARK    5  A    between atoms: C_20  and  C_21
REMARK    6  A    between atoms: C_20  and  N_68
REMARK    7  A    between atoms: C_31  and  C_32
REMARK                            x       y       z     vdW  Elec       q    Type
REMARK                         _______ _______ _______ _____ _____    ______ ____
ROOT
ATOM      1  N   UNL     1      -0.914   3.098   1.497  0.00  0.00    -0.271 N 
ATOM      2  C   UNL     1      -0.376   3.246   2.723  0.00  0.00    +0.312 C 
ATOM      3  O   UNL     1      -0.040   4.317   3.189  0.00  0.00    -0.252 OA
ATOM      4  N   UNL     1      -0.253   2.081   3.371  0.00  0.00    -0.218 N 
ATOM      5  C   UNL     1      -0.702   1.049   2.627  0.00  0.00    +0.247 C 
ATOM      6  O   UNL     1      -0.724  -0.123   2.935  0.00  0.00    -0.273 OA
ATOM      7  C   UNL     1      -1.171   1.663   1.329  0.00  0.00    +0.112 C 
ATOM      8  C   UNL     1      -0.369   1.109   0.155  0.00  0.00    +0.017 C 
ATOM      9  C   UNL     1      -0.883   1.727  -1.148  0.00  0.00    -0.076 C 
ATOM     10  C   UNL     1      -3.102   2.015  -0.211  0.00  0.00    -0.076 C 
ATOM     11  C   UNL     1      -2.662   1.406   1.123  0.00  0.00    +0.017 C 
ATOM     12  N   UNL     1      -2.317   1.396  -1.301  0.00  0.00    +0.383 N 
ATOM     13  H   UNL     1      -2.429   0.376  -1.254  0.00  0.00    -0.081 HD
ENDROOT
BRANCH   1  14
ATOM     14  C   UNL     1      -1.188   4.159   0.525  0.00  0.00    +0.115 C 
BRANCH  14  15
ATOM     15  C   UNL     1       0.133   4.761   0.042  0.00  0.00    +0.054 C 
BRANCH  15  19
ATOM     16  C   UNL     1      -0.670   8.074  -2.533  0.00  0.00    +0.000 A 
ATOM     17  C   UNL     1      -0.632   8.257  -1.163  0.00  0.00    +0.000 A 
ATOM     18  C   UNL     1      -0.372   7.185  -0.330  0.00  0.00    +0.004 A 
ATOM     19  C   UNL     1      -0.150   5.930  -0.866  0.00  0.00    -0.046 A 
ATOM     20  C   UNL     1      -0.183   5.749  -2.236  0.00  0.00    +0.004 A 
ATOM     21  C   UNL     1      -0.448   6.820  -3.069  0.00  0.00    +0.000 A 
ENDBRANCH  15  19
ENDBRANCH  14  15
ENDBRANCH   1  14
BRANCH  12  22
ATOM     22  C   UNL     1      -2.808   1.873  -2.610  0.00  0.00    -0.041 C 
BRANCH  22  23
ATOM     23  C   UNL     1      -4.133   1.217  -2.896  0.00  0.00    -0.039 A 
ATOM     24  C   UNL     1      -4.337   0.119  -3.642  0.00  0.00    +0.085 A 
ATOM     25  N   UNL     1      -5.671  -0.182  -3.675  0.00  0.00    -0.360 N 
ATOM     26  H   UNL     1      -6.061  -0.933  -4.149  0.00  0.00    +0.165 HD
ATOM     27  C   UNL     1      -6.378   0.742  -2.939  0.00  0.00    +0.047 A 
ATOM     28  C   UNL     1      -5.446   1.659  -2.420  0.00  0.00    +0.001 A 
ATOM     29  C   UNL     1      -5.882   2.720  -1.623  0.00  0.00    +0.010 A 
ATOM     30  C   UNL     1      -7.214   2.862  -1.353  0.00  0.00    +0.001 A 
ATOM     31  C   UNL     1      -8.137   1.961  -1.863  0.00  0.00    +0.002 A 
ATOM     32  C   UNL     1      -7.729   0.906  -2.651  0.00  0.00    +0.026 A 
ENDBRANCH  22  23
ENDBRANCH  12  22
BRANCH   4  33
ATOM     33  C   UNL     1       0.300   1.944   4.721  0.00  0.00    +0.173 C 
BRANCH  33  34
ATOM     34  C   UNL     1       1.789   1.728   4.635  0.00  0.00    +0.059 A 
ATOM     35  C   UNL     1       2.643   2.809   4.749  0.00  0.00    +0.025 A 
ATOM     36  C   UNL     1       4.011   2.599   4.668  0.00  0.00    +0.003 A 
ATOM     37  C   UNL     1       4.471   1.305   4.475  0.00  0.00    +0.020 A 
ATOM     38  C   UNL     1       3.556   0.275   4.370  0.00  0.00    +0.111 A 
ATOM     39  N   UNL     1       2.261   0.510   4.456  0.00  0.00    -0.258 NA
ENDBRANCH  33  34
ENDBRANCH   4  33
TORSDOF 7
