REMARK  Name = ZINC15236685
REMARK  6 active torsions:
REMARK  status: ('A' for Active; 'I' for Inactive)
REMARK    1  A    between atoms: C_1  and  C_2
REMARK    2  A    between atoms: C_2  and  C_19
REMARK    3  A    between atoms: N_5  and  C_9
REMARK    4  A    between atoms: C_9  and  C_10
REMARK    5  A    between atoms: C_10  and  C_12
REMARK    6  A    between atoms: C_10  and  O_18
REMARK                            x       y       z     vdW  Elec       q    Type
REMARK                         _______ _______ _______ _____ _____    ______ ____
ROOT
ATOM      1  C   UNL     1      -2.079   1.882  -1.237  0.00  0.00    +0.047 C 
ATOM      2  C   UNL     1      -1.235   2.107   0.018  0.00  0.00    +0.135 C 
ATOM      3  C   UNL     1      -0.014   1.208   0.009  0.00  0.00    +0.251 C 
ATOM      4  O   UNL     1       0.002  -0.004   0.002  0.00  0.00    -0.272 OA
ATOM      5  N   UNL     1       1.048   2.037   0.003  0.00  0.00    -0.221 N 
ATOM      6  C   UNL     1       0.673   3.321   0.013  0.00  0.00    +0.310 C 
ATOM      7  O   UNL     1       1.453   4.253   0.010  0.00  0.00    -0.252 OA
ATOM      8  N   UNL     1      -0.664   3.465   0.026  0.00  0.00    -0.281 N 
ATOM      9  H   UNL     1      -1.157   4.301   0.034  0.00  0.00    +0.152 HD
ENDROOT
BRANCH   2  10
ATOM     10  C   UNL     1      -2.056   1.873   1.260  0.00  0.00    -0.015 A 
ATOM     11  C   UNL     1      -2.059   0.612   1.854  0.00  0.00    +0.007 A 
ATOM     12  C   UNL     1      -2.789   0.367   2.976  0.00  0.00    +0.009 A 
ATOM     13  C   UNL     1      -3.553   1.399   3.547  0.00  0.00    -0.018 A 
ATOM     14  C   UNL     1      -4.319   1.185   4.706  0.00  0.00    +0.008 A 
ATOM     15  C   UNL     1      -5.046   2.208   5.231  0.00  0.00    +0.001 A 
ATOM     16  C   UNL     1      -5.043   3.469   4.638  0.00  0.00    +0.001 A 
ATOM     17  C   UNL     1      -4.313   3.714   3.515  0.00  0.00    +0.008 A 
ATOM     18  C   UNL     1      -3.550   2.682   2.944  0.00  0.00    -0.018 A 
ATOM     19  C   UNL     1      -2.779   2.898   1.789  0.00  0.00    +0.014 A 
ENDBRANCH   2  10
BRANCH   5  20
ATOM     20  C   UNL     1       2.443   1.587  -0.011  0.00  0.00    +0.154 C 
BRANCH  20  21
ATOM     21  C   UNL     1       2.915   1.437  -1.459  0.00  0.00    +0.162 C 
BRANCH  21  22
ATOM     22  C   UNL     1       4.306   0.857  -1.475  0.00  0.00    -0.018 A 
ATOM     23  C   UNL     1       5.398   1.674  -1.246  0.00  0.00    +0.006 A 
ATOM     24  C   UNL     1       6.674   1.142  -1.256  0.00  0.00    +0.000 A 
ATOM     25  C   UNL     1       6.859  -0.205  -1.506  0.00  0.00    +0.000 A 
ATOM     26  C   UNL     1       5.768  -1.020  -1.741  0.00  0.00    +0.000 A 
ATOM     27  C   UNL     1       4.492  -0.489  -1.726  0.00  0.00    +0.006 A 
ENDBRANCH  21  22
BRANCH  21  28
ATOM     28  O   UNL     1       2.925   2.717  -2.092  0.00  0.00    -0.386 OA
ATOM     29  H   UNL     1       3.507   3.362  -1.667  0.00  0.00    +0.210 HD
ENDBRANCH  21  28
ENDBRANCH  20  21
ENDBRANCH   5  20
TORSDOF 5
