REMARK  Name = ZINC64538267
REMARK  7 active torsions:
REMARK  status: ('A' for Active; 'I' for Inactive)
REMARK    1  A    between atoms: C_1  and  C_2
REMARK    2  A    between atoms: C_2  and  C_4
REMARK    3  A    between atoms: C_2  and  N_18
REMARK    4  A    between atoms: N_6  and  C_7
REMARK    5  A    between atoms: C_7  and  C_8
REMARK    6  A    between atoms: C_8  and  C_9
REMARK    7  A    between atoms: C_26  and  C_30
REMARK                            x       y       z     vdW  Elec       q    Type
REMARK                         _______ _______ _______ _____ _____    ______ ____
ROOT
ATOM      1  C   UNL     1      -0.019   1.526   0.010  0.00  0.00    +0.038 C 
ATOM      2  C   UNL     1       0.002  -0.004   0.002  0.00  0.00    +0.164 C 
ENDROOT
BRANCH   2   3
ATOM      3  N   UNL     1      -1.372  -0.511   0.012  0.00  0.00    -0.256 N 
ATOM      4  C   UNL     1      -1.820  -1.321  -1.038  0.00  0.00    +0.058 A 
ATOM      5  C   UNL     1      -0.922  -1.888  -1.928  0.00  0.00    +0.025 A 
ATOM      6  C   UNL     1      -1.385  -2.681  -2.962  0.00  0.00    +0.002 A 
ATOM      7  C   UNL     1      -2.740  -2.911  -3.114  0.00  0.00    +0.002 A 
ATOM      8  C   UNL     1      -3.644  -2.350  -2.229  0.00  0.00    +0.025 A 
ATOM      9  C   UNL     1      -3.187  -1.558  -1.191  0.00  0.00    +0.050 A 
ATOM     10  N   UNL     1      -4.077  -0.985  -0.271  0.00  0.00    -0.325 N 
ATOM     11  C   UNL     1      -3.593  -0.746   1.097  0.00  0.00    +0.262 C 
ATOM     12  C   UNL     1      -2.190  -0.198   1.035  0.00  0.00    +0.250 C 
ATOM     13  O   UNL     1      -1.795   0.536   1.916  0.00  0.00    -0.273 OA
ATOM     14  H   UNL     1      -4.983  -0.754  -0.529  0.00  0.00    +0.147 HD
BRANCH  11  15
ATOM     15  C   UNL     1      -3.592  -2.062   1.877  0.00  0.00    +0.416 C 
ATOM     16  F   UNL     1      -2.751  -2.981   1.240  0.00  0.00    -0.168 F 
ATOM     17  F   UNL     1      -3.131  -1.832   3.178  0.00  0.00    -0.168 F 
ATOM     18  F   UNL     1      -4.892  -2.576   1.927  0.00  0.00    -0.168 F 
ENDBRANCH  11  15
ENDBRANCH   2   3
BRANCH   2  19
ATOM     19  C   UNL     1       0.731  -0.503   1.223  0.00  0.00    +0.234 C 
ATOM     20  O   UNL     1       0.159  -1.213   2.023  0.00  0.00    -0.274 OA
ATOM     21  N   UNL     1       2.019  -0.161   1.426  0.00  0.00    -0.313 N 
ATOM     22  H   UNL     1       2.476   0.406   0.786  0.00  0.00    +0.149 HD
BRANCH  21  23
ATOM     23  C   UNL     1       2.727  -0.647   2.613  0.00  0.00    +0.108 C 
BRANCH  23  24
ATOM     24  C   UNL     1       4.163  -0.117   2.602  0.00  0.00    +0.052 C 
BRANCH  24  25
ATOM     25  C   UNL     1       4.891  -0.616   3.823  0.00  0.00    -0.040 C 
ATOM     26  C   UNL     1       5.684  -1.709   3.906  0.00  0.00    -0.001 A 
ATOM     27  C   UNL     1       6.089  -2.721   2.924  0.00  0.00    +0.010 A 
ATOM     28  C   UNL     1       6.911  -3.722   3.313  0.00  0.00    +0.001 A 
ATOM     29  C   UNL     1       7.385  -3.816   4.629  0.00  0.00    +0.002 A 
ATOM     30  C   UNL     1       7.058  -2.924   5.588  0.00  0.00    +0.026 A 
ATOM     31  C   UNL     1       6.199  -1.831   5.289  0.00  0.00    +0.043 A 
ATOM     32  N   UNL     1       5.742  -0.851   6.031  0.00  0.00    -0.380 N 
ATOM     33  C   UNL     1       4.890   0.007   5.201  0.00  0.00    +0.144 C 
ATOM     34  H   UNL     1       5.938  -0.715   6.971  0.00  0.00    +0.160 HD
ENDBRANCH  24  25
ENDBRANCH  23  24
ENDBRANCH  21  23
ENDBRANCH   2  19
TORSDOF 6
