REMARK  Name = ZINC63919956
REMARK  5 active torsions:
REMARK  status: ('A' for Active; 'I' for Inactive)
REMARK    1  A    between atoms: C_7  and  C_10
REMARK    2  A    between atoms: C_16  and  C_18
REMARK    3  A    between atoms: C_18  and  C_19
REMARK    4  A    between atoms: C_19  and  N_20
REMARK    5  A    between atoms: N_23  and  C_24
REMARK                            x       y       z     vdW  Elec       q    Type
REMARK                         _______ _______ _______ _____ _____    ______ ____
ROOT
ATOM      1  C   UNL     1       0.691  -3.186  -0.024  0.00  0.00    +0.020 C 
ATOM      2  C   UNL     1       0.947  -4.041   1.219  0.00  0.00    +0.027 C 
ATOM      3  C   UNL     1      -0.035  -5.218   1.235  0.00  0.00    +0.108 C 
ATOM      4  N   UNL     1       0.081  -5.948  -0.035  0.00  0.00    -0.301 N 
ATOM      5  C   UNL     1      -0.058  -5.202  -1.293  0.00  0.00    +0.108 C 
ATOM      6  C   UNL     1       0.924  -4.026  -1.281  0.00  0.00    +0.027 C 
ATOM      7  C   UNL     1       0.311  -7.276  -0.045  0.00  0.00    +0.217 C 
ATOM      8  O   UNL     1       0.425  -7.879   1.001  0.00  0.00    -0.276 OA
ENDROOT
BRANCH   1  15
ATOM      9  C   UNL     1      -0.016   1.348   0.009  0.00  0.00    +0.001 A 
ATOM     10  C   UNL     1       1.166   2.101   0.002  0.00  0.00    +0.002 A 
ATOM     11  C   UNL     1       2.391   1.535  -0.013  0.00  0.00    +0.026 A 
ATOM     12  C   UNL     1       2.529   0.120  -0.022  0.00  0.00    +0.043 A 
ATOM     13  N   UNL     1       3.587  -0.654  -0.037  0.00  0.00    -0.380 N 
ATOM     14  C   UNL     1       3.143  -2.053  -0.041  0.00  0.00    +0.145 C 
ATOM     15  C   UNL     1       1.631  -2.008  -0.025  0.00  0.00    -0.038 C 
ATOM     16  C   UNL     1       1.295  -0.698  -0.014  0.00  0.00    -0.001 A 
ATOM     17  C   UNL     1       0.002  -0.004   0.002  0.00  0.00    +0.010 A 
ATOM     18  H   UNL     1       4.509  -0.353  -0.045  0.00  0.00    +0.160 HD
ENDBRANCH   1  15
BRANCH   7  19
ATOM     19  C   UNL     1       0.428  -8.010  -1.355  0.00  0.00    +0.114 C 
BRANCH  19  20
ATOM     20  C   UNL     1       0.687  -9.494  -1.087  0.00  0.00    +0.115 C 
BRANCH  20  21
ATOM     21  N   UNL     1       0.800 -10.208  -2.361  0.00  0.00    -0.299 N 
ATOM     22  C   UNL     1       1.031 -11.536  -2.371  0.00  0.00    +0.300 C 
ATOM     23  O   UNL     1       1.144 -12.141  -1.322  0.00  0.00    -0.253 OA
ATOM     24  N   UNL     1       1.135 -12.193  -3.543  0.00  0.00    -0.297 N 
ATOM     25  H   UNL     1       0.710  -9.726  -3.197  0.00  0.00    +0.150 HD
ATOM     26  H   UNL     1       1.044 -11.710  -4.379  0.00  0.00    +0.151 HD
BRANCH  24  27
ATOM     27  C   UNL     1       1.385 -13.637  -3.554  0.00  0.00    +0.074 C 
ATOM     28  C   UNL     1       2.889 -13.895  -3.443  0.00  0.00    +0.022 C 
ATOM     29  C   UNL     1       3.150 -15.402  -3.455  0.00  0.00    +0.002 C 
ATOM     30  C   UNL     1       2.624 -16.001  -4.761  0.00  0.00    +0.000 C 
ATOM     31  C   UNL     1       1.120 -15.743  -4.871  0.00  0.00    +0.002 C 
ATOM     32  C   UNL     1       0.859 -14.236  -4.860  0.00  0.00    +0.022 C 
ENDBRANCH  24  27
ENDBRANCH  20  21
ENDBRANCH  19  20
ENDBRANCH   7  19
TORSDOF 5
