REMARK  Name = ZINC09953324
REMARK  13 active torsions:
REMARK  status: ('A' for Active; 'I' for Inactive)
REMARK    1  A    between atoms: C_1  and  C_2
REMARK    2  A    between atoms: C_7  and  N_12
REMARK    3  A    between atoms: C_9  and  C_11
REMARK    4  A    between atoms: C_13  and  C_15
REMARK    5  A    between atoms: C_15  and  C_17
REMARK    6  A    between atoms: C_15  and  S_18
REMARK    7  A    between atoms: S_18  and  C_19
REMARK    8  A    between atoms: C_22  and  C_31
REMARK    9  A    between atoms: N_23  and  C_24
REMARK   10  A    between atoms: C_31  and  C_33
REMARK   11  A    between atoms: C_31  and  N_65
REMARK   12  A    between atoms: C_34  and  N_65
REMARK   13  A    between atoms: C_35  and  N_65
REMARK                            x       y       z     vdW  Elec       q    Type
REMARK                         _______ _______ _______ _____ _____    ______ ____
ROOT
ATOM      1  C   UNL     1       7.184  -0.677   1.946  0.00  0.00    +0.197 A 
ATOM      2  N   UNL     1       7.345   0.594   1.661  0.00  0.00    -0.122 NA
ATOM      3  N   UNL     1       8.597   0.871   1.585  0.00  0.00    -0.135 NA
ATOM      4  C   UNL     1       9.307  -0.199   1.806  0.00  0.00    +0.125 A 
ATOM      5  N   UNL     1       8.433  -1.226   2.044  0.00  0.00    -0.275 N 
ENDROOT
BRANCH   5   6
ATOM      6  C   UNL     1       8.752  -2.562   2.329  0.00  0.00    +0.050 A 
ATOM      7  C   UNL     1       9.427  -2.881   3.499  0.00  0.00    +0.029 A 
ATOM      8  C   UNL     1       9.735  -4.198   3.781  0.00  0.00    +0.040 A 
ATOM      9  C   UNL     1       9.381  -5.198   2.891  0.00  0.00    +0.124 A 
ATOM     10  C   UNL     1       8.713  -4.881   1.721  0.00  0.00    +0.040 A 
ATOM     11  C   UNL     1       8.398  -3.566   1.438  0.00  0.00    +0.029 A 
ATOM     12  F   UNL     1       9.688  -6.485   3.166  0.00  0.00    -0.205 F 
ENDBRANCH   5   6
BRANCH   4  13
ATOM     13  C   UNL     1      10.812  -0.290   1.800  0.00  0.00    -0.003 C 
ATOM     14  C   UNL     1      11.319  -0.252   0.357  0.00  0.00    -0.005 C 
BRANCH  13  17
ATOM     15  C   UNL     1      12.833   0.726   2.663  0.00  0.00    -0.096 C 
ATOM     16  C   UNL     1      10.997   2.121   1.926  0.00  0.00    -0.096 C 
ATOM     17  N   UNL     1      11.362   0.843   2.573  0.00  0.00    +0.382 N 
ATOM     18  H   UNL     1      10.967   0.824   3.521  0.00  0.00    -0.082 HD
ENDBRANCH  13  17
ENDBRANCH   4  13
BRANCH   1  19
ATOM     19  S   UNL     1       5.650  -1.519   2.155  0.00  0.00    -0.073 S 
BRANCH  19  20
ATOM     20  C   UNL     1       4.500  -0.149   1.877  0.00  0.00    +0.137 C 
ATOM     21  C   UNL     1       4.668   0.891   2.986  0.00  0.00    +0.029 C 
BRANCH  20  23
ATOM     22  N   UNL     1       2.116  -0.004   1.231  0.00  0.00    -0.311 N 
ATOM     23  C   UNL     1       3.086  -0.671   1.888  0.00  0.00    +0.226 C 
ATOM     24  O   UNL     1       2.821  -1.692   2.487  0.00  0.00    -0.275 OA
ATOM     25  H   UNL     1       2.329   0.812   0.752  0.00  0.00    +0.149 HD
BRANCH  22  31
ATOM     26  C   UNL     1      -2.173  -0.027  -1.227  0.00  0.00    +0.008 C 
ATOM     27  C   UNL     1      -1.433  -0.534   0.013  0.00  0.00    -0.009 C 
ATOM     28  C   UNL     1      -2.149  -0.040   1.272  0.00  0.00    +0.003 C 
ATOM     29  C   UNL     1      -1.409  -0.547   2.511  0.00  0.00    +0.002 C 
ATOM     30  C   UNL     1       0.026  -0.018   2.500  0.00  0.00    +0.022 C 
ATOM     31  C   UNL     1       0.742  -0.511   1.242  0.00  0.00    +0.076 C 
ATOM     32  C   UNL     1       0.002  -0.004   0.002  0.00  0.00    +0.009 C 
ATOM     33  C   UNL     1      -0.019   1.526   0.010  0.00  0.00    +0.009 C 
ENDBRANCH  22  31
ENDBRANCH  20  23
ENDBRANCH  19  20
ENDBRANCH   1  19
TORSDOF 7
