REMARK  Name = ZINC03130758
REMARK  8 active torsions:
REMARK  status: ('A' for Active; 'I' for Inactive)
REMARK    1  A    between atoms: C_1  and  N_2
REMARK    2  A    between atoms: N_2  and  C_3
REMARK    3  A    between atoms: N_6  and  C_7
REMARK    4  A    between atoms: C_7  and  C_9
REMARK    5  A    between atoms: C_7  and  N_13
REMARK    6  A    between atoms: N_13  and  C_14
REMARK    7  A    between atoms: C_14  and  N_16
REMARK    8  A    between atoms: N_16  and  C_17
REMARK                            x       y       z     vdW  Elec       q    Type
REMARK                         _______ _______ _______ _____ _____    ______ ____
ROOT
ATOM      1  N   UNL     1      -3.396   1.042  -1.192  0.00  0.00    -0.305 N 
ATOM      2  H   UNL     1      -3.557   1.934  -1.538  0.00  0.00    +0.150 HD
ENDROOT
BRANCH   1   3
ATOM      3  C   UNL     1      -3.373  -0.013  -2.030  0.00  0.00    +0.136 C 
ATOM      4  S   UNL     1      -3.089  -1.587  -1.418  0.00  0.00    -0.019 S 
BRANCH   3   5
ATOM      5  N   UNL     1      -3.573   0.171  -3.350  0.00  0.00    -0.296 N 
ATOM      6  H   UNL     1      -3.812   1.048  -3.687  0.00  0.00    +0.154 HD
BRANCH   5   7
ATOM      7  C   UNL     1      -3.436  -0.905  -4.235  0.00  0.00    +0.051 A 
ATOM      8  C   UNL     1      -2.358  -1.772  -4.115  0.00  0.00    +0.026 A 
ATOM      9  C   UNL     1      -2.226  -2.833  -4.989  0.00  0.00    +0.022 A 
ATOM     10  C   UNL     1      -3.166  -3.033  -5.985  0.00  0.00    +0.042 A 
ATOM     11  C   UNL     1      -4.241  -2.171  -6.108  0.00  0.00    +0.041 A 
ATOM     12  C   UNL     1      -4.382  -1.111  -5.232  0.00  0.00    +0.063 A 
ATOM     13 CL   UNL     1      -5.735  -0.033  -5.383  0.00  0.00    -0.082 Cl
ATOM     14 CL   UNL     1      -2.996  -4.368  -7.082  0.00  0.00    -0.083 Cl
ENDBRANCH   5   7
ENDBRANCH   3   5
ENDBRANCH   1   3
BRANCH   1  15
ATOM     15  C   UNL     1      -3.178   0.842   0.243  0.00  0.00    +0.212 C 
BRANCH  15  21
ATOM     16  C   UNL     1       1.436  -0.170   1.434  0.00  0.00    +0.133 C 
ATOM     17  N   UNL     1       0.380   0.810   1.171  0.00  0.00    -0.292 N 
ATOM     18  C   UNL     1       0.671   2.243   1.260  0.00  0.00    +0.133 C 
ATOM     19  C   UNL     1      -0.861   0.394   0.848  0.00  0.00    +0.303 C 
ATOM     20  O   UNL     1      -1.103  -0.796   0.774  0.00  0.00    -0.253 OA
ATOM     21  N   UNL     1      -1.831   1.295   0.601  0.00  0.00    -0.277 N 
ATOM     22  H   UNL     1      -1.638   2.244   0.659  0.00  0.00    +0.152 HD
ENDBRANCH  15  21
BRANCH  15  23
ATOM     23  C   UNL     1      -4.213   1.646   1.033  0.00  0.00    +0.225 C 
ATOM     24 CL   UNL     1      -4.043   3.397   0.637  0.00  0.00    -0.080 Cl
ATOM     25 CL   UNL     1      -5.870   1.089   0.594  0.00  0.00    -0.080 Cl
ATOM     26 CL   UNL     1      -3.945   1.401   2.799  0.00  0.00    -0.080 Cl
ENDBRANCH  15  23
ENDBRANCH   1  15
TORSDOF 6
