REMARK  Name = ZINC35816441
REMARK  6 active torsions:
REMARK  status: ('A' for Active; 'I' for Inactive)
REMARK    1  A    between atoms: C_1  and  C_2
REMARK    2  A    between atoms: C_2  and  C_3
REMARK    3  A    between atoms: C_2  and  C_4
REMARK    4  A    between atoms: C_7  and  N_10
REMARK    5  A    between atoms: N_13  and  C_14
REMARK    6  A    between atoms: C_26  and  C_28
REMARK                            x       y       z     vdW  Elec       q    Type
REMARK                         _______ _______ _______ _____ _____    ______ ____
ROOT
ATOM      1  C   UNL     1      -7.935  -3.245  -2.665  0.00  0.00    +0.051 A 
ATOM      2  C   UNL     1      -7.125  -3.578  -3.750  0.00  0.00    +0.028 A 
ATOM      3  C   UNL     1      -7.591  -4.512  -4.658  0.00  0.00    +0.043 A 
ATOM      4  C   UNL     1      -8.844  -5.084  -4.459  0.00  0.00    +0.099 A 
ATOM      5  N   UNL     1      -9.585  -4.743  -3.418  0.00  0.00    -0.348 N 
ATOM      6  C   UNL     1      -9.170  -3.860  -2.530  0.00  0.00    +0.107 A 
ATOM      7  N   UNL     1      -9.322  -6.024  -5.367  0.00  0.00    -0.314 N 
ATOM      8  C   UNL     1      -8.465  -6.520  -6.453  0.00  0.00    +0.125 C 
ATOM      9  C   UNL     1      -8.408  -8.050  -6.373  0.00  0.00    +0.127 C 
ATOM     10  N   UNL     1      -9.780  -8.566  -6.263  0.00  0.00    -0.295 N 
ATOM     11  C   UNL     1     -10.638  -8.070  -5.177  0.00  0.00    +0.127 C 
ATOM     12  C   UNL     1     -10.692  -6.544  -5.254  0.00  0.00    +0.125 C 
ATOM     13  C   UNL     1     -10.243  -9.476  -7.142  0.00  0.00    +0.247 C 
ATOM     14  O   UNL     1     -11.407  -9.827  -7.098  0.00  0.00    -0.270 OA
ATOM     15  H   UNL     1     -10.455  -5.156  -3.302  0.00  0.00    +0.167 HD
ENDROOT
BRANCH  13  16
ATOM     16  C   UNL     1      -9.338 -10.049  -8.158  0.00  0.00    +0.041 A 
ATOM     17  C   UNL     1      -8.044 -10.438  -7.804  0.00  0.00    +0.017 A 
ATOM     18  C   UNL     1      -7.201 -10.972  -8.753  0.00  0.00    +0.050 A 
ATOM     19  C   UNL     1      -7.633 -11.126 -10.064  0.00  0.00    +0.166 A 
ATOM     20  C   UNL     1      -8.924 -10.739 -10.424  0.00  0.00    +0.167 A 
ATOM     21  C   UNL     1      -9.776 -10.207  -9.475  0.00  0.00    +0.062 A 
ATOM     22  O   UNL     1      -9.099 -10.991 -11.755  0.00  0.00    -0.453 OA
ATOM     23  C   UNL     1      -7.773 -11.155 -12.292  0.00  0.00    +0.466 C 
ATOM     24  O   UNL     1      -7.003 -11.620 -11.168  0.00  0.00    -0.453 OA
ENDBRANCH  13  16
BRANCH   1  28
ATOM     25  N   UNL     1      -6.197  -0.449  -1.172  0.00  0.00    -0.269 N 
ATOM     26  C   UNL     1      -6.695  -1.293  -2.096  0.00  0.00    +0.308 C 
ATOM     27  O   UNL     1      -6.416  -1.142  -3.270  0.00  0.00    -0.252 OA
ATOM     28  N   UNL     1      -7.503  -2.304  -1.720  0.00  0.00    -0.268 N 
ATOM     29  H   UNL     1      -6.355  -0.613  -0.229  0.00  0.00    +0.156 HD
ATOM     30  H   UNL     1      -7.786  -2.380  -0.795  0.00  0.00    +0.156 HD
BRANCH  25  34
ATOM     31  C   UNL     1      -3.974   2.869  -2.361  0.00  0.00    -0.045 A 
ATOM     32  C   UNL     1      -5.000   2.401  -3.163  0.00  0.00    +0.006 A 
ATOM     33  C   UNL     1      -5.738   1.302  -2.771  0.00  0.00    +0.023 A 
ATOM     34  C   UNL     1      -5.450   0.665  -1.571  0.00  0.00    +0.035 A 
ATOM     35  C   UNL     1      -4.420   1.137  -0.768  0.00  0.00    +0.023 A 
ATOM     36  C   UNL     1      -3.682   2.234  -1.168  0.00  0.00    +0.006 A 
BRANCH  31  38
ATOM     37  C   UNL     1      -2.495   3.775  -4.133  0.00  0.00    +0.012 C 
ATOM     38  C   UNL     1      -3.171   4.068  -2.792  0.00  0.00    +0.013 C 
ATOM     39  C   UNL     1      -4.097   5.277  -2.941  0.00  0.00    +0.012 C 
ENDBRANCH  31  38
ENDBRANCH  25  34
ENDBRANCH   1  28
TORSDOF 4
