REMARK  Name = ZINC45925107
REMARK  8 active torsions:
REMARK  status: ('A' for Active; 'I' for Inactive)
REMARK    1  A    between atoms: C_6  and  C_7
REMARK    2  A    between atoms: C_7  and  N_8
REMARK    3  A    between atoms: C_9  and  C_11
REMARK    4  A    between atoms: C_11  and  S_12
REMARK    5  A    between atoms: S_12  and  C_13
REMARK    6  A    between atoms: C_16  and  S_20
REMARK    7  A    between atoms: C_17  and  N_19
REMARK    8  A    between atoms: S_20  and  C_23
REMARK                            x       y       z     vdW  Elec       q    Type
REMARK                         _______ _______ _______ _____ _____    ______ ____
ROOT
ATOM      1  C   UNL     1      -5.255  -3.080  -4.721  0.00  0.00    +0.190 A 
ATOM      2  N   UNL     1      -4.430  -2.585  -5.633  0.00  0.00    -0.228 NA
ATOM      3  C   UNL     1      -4.684  -2.723  -6.926  0.00  0.00    +0.144 A 
ATOM      4  C   UNL     1      -5.826  -3.392  -7.323  0.00  0.00    +0.152 A 
ATOM      5  C   UNL     1      -6.676  -3.902  -6.340  0.00  0.00    +0.146 A 
ATOM      6  N   UNL     1      -6.357  -3.732  -5.060  0.00  0.00    -0.205 NA
ENDROOT
BRANCH   5   7
ATOM      7  N   UNL     1      -7.832  -4.580  -6.692  0.00  0.00    -0.342 N 
ATOM      8  H   UNL     1      -8.056  -4.702  -7.627  0.00  0.00    +0.144 HD
ATOM      9  H   UNL     1      -8.417  -4.931  -6.003  0.00  0.00    +0.144 HD
ENDBRANCH   5   7
BRANCH   4  10
ATOM     10  S   UNL     1      -6.202  -3.596  -9.033  0.00  0.00    +0.036 S 
ATOM     11  O   UNL     1      -7.557  -3.203  -9.200  0.00  0.00    -0.164 OA
ATOM     12  O   UNL     1      -5.138  -2.994  -9.757  0.00  0.00    -0.164 OA
BRANCH  10  13
ATOM     13  C   UNL     1      -6.132  -5.323  -9.379  0.00  0.00    +0.132 A 
ATOM     14  C   UNL     1      -7.122  -6.246  -9.316  0.00  0.00    +0.036 A 
ATOM     15  C   UNL     1      -6.834  -7.560  -9.636  0.00  0.00    +0.029 A 
ATOM     16  C   UNL     1      -5.569  -7.886 -10.003  0.00  0.00    +0.080 A 
ATOM     17  S   UNL     1      -4.740  -6.307  -9.910  0.00  0.00    -0.058 S 
ATOM     18 CL   UNL     1      -4.925  -9.434 -10.452  0.00  0.00    -0.076 Cl
ENDBRANCH  10  13
ENDBRANCH   4  10
BRANCH   1  19
ATOM     19  S   UNL     1      -4.871  -2.871  -3.014  0.00  0.00    -0.077 S 
BRANCH  19  20
ATOM     20  C   UNL     1      -3.313  -1.943  -3.024  0.00  0.00    +0.173 C 
BRANCH  20  22
ATOM     21  N   UNL     1      -1.726  -1.017  -1.368  0.00  0.00    -0.311 N 
ATOM     22  C   UNL     1      -2.867  -1.694  -1.606  0.00  0.00    +0.224 C 
ATOM     23  O   UNL     1      -3.535  -2.102  -0.680  0.00  0.00    -0.275 OA
ATOM     24  H   UNL     1      -1.192  -0.691  -2.108  0.00  0.00    +0.149 HD
BRANCH  21  25
ATOM     25  C   UNL     1      -1.293  -0.775   0.011  0.00  0.00    +0.139 C 
BRANCH  25  31
ATOM     26  C   UNL     1      -0.017   1.378   0.010  0.00  0.00    +0.006 A 
ATOM     27  C   UNL     1       1.171   2.086   0.002  0.00  0.00    +0.020 A 
ATOM     28  C   UNL     1       2.378   1.410  -0.013  0.00  0.00    +0.041 A 
ATOM     29  C   UNL     1       2.396   0.027  -0.021  0.00  0.00    +0.020 A 
ATOM     30  C   UNL     1       1.208  -0.679  -0.013  0.00  0.00    +0.006 A 
ATOM     31  C   UNL     1       0.002  -0.004   0.002  0.00  0.00    -0.030 A 
ATOM     32 CL   UNL     1       3.870   2.298  -0.023  0.00  0.00    -0.084 Cl
ENDBRANCH  25  31
ENDBRANCH  21  25
ENDBRANCH  20  22
ENDBRANCH  19  20
ENDBRANCH   1  19
TORSDOF 8
