REMARK  Name = ZINC28198870
REMARK  9 active torsions:
REMARK  status: ('A' for Active; 'I' for Inactive)
REMARK    1  A    between atoms: C_1  and  C_2
REMARK    2  A    between atoms: C_6  and  C_8
REMARK    3  A    between atoms: N_10  and  C_11
REMARK    4  A    between atoms: C_11  and  C_13
REMARK    5  A    between atoms: C_11  and  C_16
REMARK    6  A    between atoms: C_13  and  C_14
REMARK    7  A    between atoms: C_13  and  C_15
REMARK    8  A    between atoms: N_18  and  N_19
REMARK    9  A    between atoms: C_20  and  C_22
REMARK                            x       y       z     vdW  Elec       q    Type
REMARK                         _______ _______ _______ _____ _____    ______ ____
ROOT
ATOM      1  C   UNL     1       2.380   8.220  -0.202  0.00  0.00    +0.250 C 
ATOM      2  O   UNL     1       3.398   7.623  -0.479  0.00  0.00    -0.272 OA
ATOM      3  N   UNL     1       2.399   9.562  -0.075  0.00  0.00    -0.233 N 
ATOM      4  H   UNL     1       1.496  10.096   0.257  0.00  0.00    +0.173 HD
ENDROOT
BRANCH   3   5
ATOM      5  N   UNL     1       3.569  10.276  -0.366  0.00  0.00    -0.234 N 
ATOM      6  C   UNL     1       3.588  11.618  -0.239  0.00  0.00    +0.235 C 
ATOM      7  O   UNL     1       2.593  12.207   0.127  0.00  0.00    -0.274 OA
ATOM      8  H   UNL     1       4.471   9.742  -0.697  0.00  0.00    +0.173 HD
BRANCH   6   9
ATOM      9  C   UNL     1       4.846  12.386  -0.551  0.00  0.00    +0.049 C 
ATOM     10  C   UNL     1       5.974  11.912   0.367  0.00  0.00    +0.019 C 
ATOM     11  C   UNL     1       7.252  12.692   0.049  0.00  0.00    -0.009 C 
ATOM     12  C   UNL     1       7.006  14.186   0.273  0.00  0.00    +0.007 C 
ATOM     13  C   UNL     1       5.878  14.660  -0.645  0.00  0.00    -0.009 C 
ATOM     14  C   UNL     1       4.600  13.880  -0.327  0.00  0.00    +0.019 C 
ATOM     15  C   UNL     1       6.272  14.421  -2.103  0.00  0.00    +0.007 C 
ATOM     16  C   UNL     1       6.518  12.928  -2.327  0.00  0.00    -0.009 C 
ATOM     17  C   UNL     1       7.646  12.454  -1.409  0.00  0.00    +0.007 C 
ATOM     18  C   UNL     1       5.240  12.148  -2.010  0.00  0.00    +0.019 C 
ENDBRANCH   6   9
ENDBRANCH   3   5
BRANCH   1  19
ATOM     19  C   UNL     1       1.093   7.463   0.000  0.00  0.00    +0.163 C 
BRANCH  19  22
ATOM     20  C   UNL     1      -0.034   5.657  -1.187  0.00  0.00    +0.245 C 
ATOM     21  O   UNL     1      -1.098   6.160  -0.881  0.00  0.00    -0.270 OA
ATOM     22  N   UNL     1       1.120   6.232  -0.795  0.00  0.00    -0.300 N 
ATOM     23  H   UNL     1       2.083   5.778  -1.072  0.00  0.00    +0.150 HD
BRANCH  20  29
ATOM     24  C   UNL     1      -2.454   2.019  -3.595  0.00  0.00    +0.044 C 
ATOM     25  C   UNL     1      -1.167   2.662  -3.150  0.00  0.00    -0.050 A 
ATOM     26  C   UNL     1       0.046   2.090  -3.491  0.00  0.00    +0.003 A 
ATOM     27  C   UNL     1       1.232   2.678  -3.091  0.00  0.00    +0.001 A 
ATOM     28  C   UNL     1       1.214   3.837  -2.342  0.00  0.00    +0.013 A 
ATOM     29  C   UNL     1      -0.006   4.416  -1.989  0.00  0.00    +0.037 A 
ATOM     30  C   UNL     1      -1.200   3.818  -2.397  0.00  0.00    +0.016 A 
ENDBRANCH  20  29
ENDBRANCH  19  22
BRANCH  19  31
ATOM     31  C   UNL     1       0.936   7.110   1.481  0.00  0.00    +0.012 C 
ATOM     32  C   UNL     1       0.858   8.396   2.306  0.00  0.00    +0.009 C 
ATOM     33  C   UNL     1      -0.346   6.298   1.679  0.00  0.00    +0.009 C 
ENDBRANCH  19  31
ENDBRANCH   1  19
TORSDOF 6
