REMARK  Name = ZINC40461162
REMARK  7 active torsions:
REMARK  status: ('A' for Active; 'I' for Inactive)
REMARK    1  A    between atoms: C_7  and  C_17
REMARK    2  A    between atoms: C_8  and  C_11
REMARK    3  A    between atoms: C_17  and  C_18
REMARK    4  A    between atoms: C_18  and  C_19
REMARK    5  A    between atoms: C_19  and  C_20
REMARK    6  A    between atoms: N_22  and  C_23
REMARK    7  A    between atoms: C_28  and  N_29
REMARK                            x       y       z     vdW  Elec       q    Type
REMARK                         _______ _______ _______ _____ _____    ______ ____
ROOT
ATOM      1  C   UNL     1       0.321  -3.661  -1.461  0.00  0.00    +0.014 C 
ENDROOT
BRANCH   1   2
ATOM      2  C   UNL     1       0.643  -3.262  -0.020  0.00  0.00    +0.038 C 
BRANCH   2   9
ATOM      3  C   UNL     1      -0.006   1.375  -0.029  0.00  0.00    +0.001 A 
ATOM      4  C   UNL     1       1.184   2.090  -0.031  0.00  0.00    +0.002 A 
ATOM      5  C   UNL     1       2.397   1.437  -0.030  0.00  0.00    +0.026 A 
ATOM      6  C   UNL     1       2.433   0.046  -0.027  0.00  0.00    +0.047 A 
ATOM      7  C   UNL     1       1.224  -0.675  -0.025  0.00  0.00    +0.003 A 
ATOM      8  C   UNL     1       0.005   0.009  -0.026  0.00  0.00    +0.010 A 
ATOM      9  C   UNL     1       1.591  -2.090  -0.023  0.00  0.00    -0.013 A 
ATOM     10  C   UNL     1       2.946  -2.147  -0.023  0.00  0.00    +0.069 A 
ATOM     11  N   UNL     1       3.460  -0.871  -0.026  0.00  0.00    -0.353 N 
ATOM     12  H   UNL     1       4.405  -0.650  -0.027  0.00  0.00    +0.166 HD
BRANCH  10  13
ATOM     13  C   UNL     1       3.747  -3.389  -0.021  0.00  0.00    +0.087 A 
ATOM     14  C   UNL     1       5.047  -3.376  -0.528  0.00  0.00    +0.030 A 
ATOM     15  C   UNL     1       5.783  -4.547  -0.519  0.00  0.00    +0.004 A 
ATOM     16  C   UNL     1       5.197  -5.695  -0.004  0.00  0.00    +0.020 A 
ATOM     17  C   UNL     1       3.905  -5.638   0.483  0.00  0.00    +0.111 A 
ATOM     18  N   UNL     1       3.225  -4.509   0.469  0.00  0.00    -0.254 NA
ENDBRANCH  10  13
ENDBRANCH   2   9
ENDBRANCH   1   2
BRANCH   1  19
ATOM     19  C   UNL     1      -0.641  -4.851  -1.458  0.00  0.00    +0.096 C 
BRANCH  19  20
ATOM     20  C   UNL     1      -0.958  -5.245  -2.877  0.00  0.00    +0.217 C 
ATOM     21  O   UNL     1      -0.463  -4.633  -3.801  0.00  0.00    -0.275 OA
ATOM     22  N   UNL     1      -1.791  -6.276  -3.121  0.00  0.00    -0.284 N 
ATOM     23  H   UNL     1      -2.123  -6.815  -2.386  0.00  0.00    +0.155 HD
BRANCH  22  24
ATOM     24  C   UNL     1      -2.178  -6.568  -4.435  0.00  0.00    +0.068 A 
ATOM     25  C   UNL     1      -2.170  -5.570  -5.400  0.00  0.00    +0.075 A 
ATOM     26  C   UNL     1      -2.552  -5.860  -6.699  0.00  0.00    +0.168 A 
ATOM     27  C   UNL     1      -2.945  -7.154  -7.035  0.00  0.00    +0.169 A 
ATOM     28  C   UNL     1      -2.951  -8.147  -6.069  0.00  0.00    +0.084 A 
ATOM     29  C   UNL     1      -2.564  -7.858  -4.774  0.00  0.00    +0.151 A 
ATOM     30  O   UNL     1      -3.270  -7.180  -8.361  0.00  0.00    -0.453 OA
ATOM     31  C   UNL     1      -3.465  -5.804  -8.736  0.00  0.00    +0.466 C 
ATOM     32  O   UNL     1      -2.631  -5.077  -7.814  0.00  0.00    -0.453 OA
BRANCH  29  33
ATOM     33  N   UNL     1      -2.567  -8.923  -3.746  0.00  0.00    +0.058 N 
ATOM     34  O   UNL     1      -2.816 -10.064  -4.059  0.00  0.00    -0.126 OA
ATOM     35  O   UNL     1      -2.319  -8.652  -2.594  0.00  0.00    -0.126 OA
ENDBRANCH  29  33
ENDBRANCH  22  24
ENDBRANCH  19  20
ENDBRANCH   1  19
TORSDOF 7
