REMARK  Name = ZINC09066232
REMARK  4 active torsions:
REMARK  status: ('A' for Active; 'I' for Inactive)
REMARK    1  A    between atoms: C_13  and  N_17
REMARK    2  A    between atoms: C_18  and  C_20
REMARK    3  A    between atoms: N_25  and  S_26
REMARK    4  A    between atoms: S_26  and  C_29
REMARK                            x       y       z     vdW  Elec       q    Type
REMARK                         _______ _______ _______ _____ _____    ______ ____
ROOT
ATOM      1  N   UNL     1      -4.994  -0.358   0.051  0.00  0.00    -0.284 N 
ATOM      2  C   UNL     1      -6.156  -1.032   0.160  0.00  0.00    +0.236 C 
ATOM      3  O   UNL     1      -7.208  -0.428   0.173  0.00  0.00    -0.274 OA
ATOM      4  H   UNL     1      -4.159  -0.843  -0.040  0.00  0.00    +0.155 HD
ENDROOT
BRANCH   1  17
ATOM      5  C   UNL     1       0.285   3.206  -3.080  0.00  0.00    +0.001 A 
ATOM      6  C   UNL     1       0.292   1.823  -3.104  0.00  0.00    +0.001 A 
ATOM      7  C   UNL     1      -0.726   1.107  -2.501  0.00  0.00    +0.012 A 
ATOM      8  C   UNL     1      -1.769   1.780  -1.870  0.00  0.00    +0.033 A 
ATOM      9  C   UNL     1      -1.773   3.186  -1.841  0.00  0.00    +0.033 A 
ATOM     10  C   UNL     1      -0.740   3.891  -2.453  0.00  0.00    +0.012 A 
ATOM     11  C   UNL     1      -2.872   3.908  -1.167  0.00  0.00    +0.195 C 
ATOM     12  O   UNL     1      -2.879   5.123  -1.145  0.00  0.00    -0.287 OA
ATOM     13  C   UNL     1      -3.963   3.149  -0.520  0.00  0.00    +0.035 A 
ATOM     14  C   UNL     1      -5.003   3.820   0.116  0.00  0.00    +0.012 A 
ATOM     15  C   UNL     1      -6.024   3.105   0.721  0.00  0.00    +0.003 A 
ATOM     16  C   UNL     1      -6.023   1.726   0.700  0.00  0.00    +0.024 A 
ATOM     17  C   UNL     1      -4.991   1.032   0.070  0.00  0.00    +0.045 A 
ATOM     18  C   UNL     1      -3.954   1.742  -0.546  0.00  0.00    +0.054 A 
ATOM     19  C   UNL     1      -2.857   1.022  -1.217  0.00  0.00    +0.196 C 
ATOM     20  O   UNL     1      -2.851  -0.193  -1.238  0.00  0.00    -0.287 OA
ENDBRANCH   1  17
BRANCH   2  21
ATOM     21  C   UNL     1      -6.149  -2.535   0.266  0.00  0.00    +0.166 C 
ATOM     22  C   UNL     1      -5.392  -2.968   1.540  0.00  0.00    +0.031 C 
ATOM     23  C   UNL     1      -6.228  -4.172   2.048  0.00  0.00    +0.019 C 
ATOM     24  C   UNL     1      -7.666  -3.731   1.678  0.00  0.00    +0.110 C 
ATOM     25  N   UNL     1      -7.526  -3.035   0.382  0.00  0.00    -0.165 NA
BRANCH  25  26
ATOM     26  S   UNL     1      -8.720  -2.846  -0.750  0.00  0.00    +0.062 S 
ATOM     27  O   UNL     1      -9.957  -2.950  -0.058  0.00  0.00    -0.153 OA
ATOM     28  O   UNL     1      -8.372  -1.704  -1.521  0.00  0.00    -0.153 OA
BRANCH  26  29
ATOM     29  C   UNL     1      -8.633  -4.232  -1.835  0.00  0.00    +0.106 A 
ATOM     30  C   UNL     1      -7.841  -4.174  -2.967  0.00  0.00    +0.031 A 
ATOM     31  C   UNL     1      -7.768  -5.262  -3.816  0.00  0.00    +0.040 A 
ATOM     32  C   UNL     1      -8.496  -6.406  -3.538  0.00  0.00    +0.124 A 
ATOM     33  C   UNL     1      -9.293  -6.461  -2.407  0.00  0.00    +0.040 A 
ATOM     34  C   UNL     1      -9.361  -5.374  -1.557  0.00  0.00    +0.031 A 
ATOM     35  F   UNL     1      -8.430  -7.468  -4.370  0.00  0.00    -0.205 F 
ENDBRANCH  26  29
ENDBRANCH  25  26
ENDBRANCH   2  21
TORSDOF 4
