REMARK  Name = ZINC18129523
REMARK  4 active torsions:
REMARK  status: ('A' for Active; 'I' for Inactive)
REMARK    1  A    between atoms: C_4  and  O_26
REMARK    2  A    between atoms: C_5  and  C_7
REMARK    3  A    between atoms: N_9  and  N_10
REMARK    4  A    between atoms: C_11  and  C_13
REMARK                            x       y       z     vdW  Elec       q    Type
REMARK                         _______ _______ _______ _____ _____    ______ ____
ROOT
ATOM      1  N   UNL     1       0.121  -4.255  -0.024  0.00  0.00    -0.234 N 
ATOM      2  C   UNL     1      -1.033  -4.951  -0.017  0.00  0.00    +0.235 C 
ATOM      3  O   UNL     1      -2.095  -4.364  -0.003  0.00  0.00    -0.274 OA
ATOM      4  H   UNL     1       0.970  -4.725  -0.036  0.00  0.00    +0.173 HD
ENDROOT
BRANCH   2   5
ATOM      5  C   UNL     1      -1.006  -6.457  -0.026  0.00  0.00    +0.050 C 
ATOM      6  C   UNL     1      -0.263  -6.962   1.212  0.00  0.00    +0.020 C 
ATOM      7  C   UNL     1      -0.234  -8.491   1.203  0.00  0.00    -0.008 C 
ATOM      8  C   UNL     1      -1.667  -9.028   1.214  0.00  0.00    +0.007 C 
ATOM      9  C   UNL     1      -2.410  -8.524  -0.025  0.00  0.00    -0.008 C 
ATOM     10  C   UNL     1      -2.438  -6.994  -0.015  0.00  0.00    +0.020 C 
ATOM     11  C   UNL     1      -1.692  -9.013  -1.284  0.00  0.00    +0.021 C 
ATOM     12  C   UNL     1      -0.259  -8.476  -1.295  0.00  0.00    +0.028 C 
ATOM     13  C   UNL     1       0.484  -8.980  -0.057  0.00  0.00    +0.021 C 
ATOM     14  C   UNL     1      -0.287  -6.946  -1.286  0.00  0.00    +0.034 C 
ATOM     15 BR   UNL     1       0.664  -9.104  -2.914  0.00  0.00    -0.084 Br
ENDBRANCH   2   5
BRANCH   1  18
ATOM     16  C   UNL     1       1.250  -2.159  -0.023  0.00  0.00    +0.264 C 
ATOM     17  O   UNL     1       2.314  -2.748  -0.037  0.00  0.00    -0.269 OA
ATOM     18  N   UNL     1       0.095  -2.855  -0.016  0.00  0.00    -0.230 N 
ATOM     19  H   UNL     1      -0.754  -2.385  -0.004  0.00  0.00    +0.173 HD
BRANCH  16  24
ATOM     20  C   UNL     1      -0.017   1.374   0.010  0.00  0.00    +0.001 A 
ATOM     21  C   UNL     1       1.170   2.089   0.002  0.00  0.00    +0.004 A 
ATOM     22  C   UNL     1       2.383   1.429  -0.013  0.00  0.00    +0.046 A 
ATOM     23  C   UNL     1       2.420   0.043  -0.021  0.00  0.00    +0.129 A 
ATOM     24  C   UNL     1       1.222  -0.684  -0.014  0.00  0.00    +0.079 A 
ATOM     25  C   UNL     1       0.002  -0.004   0.002  0.00  0.00    +0.017 A 
BRANCH  23  26
ATOM     26  O   UNL     1       3.611  -0.606  -0.037  0.00  0.00    -0.506 OA
ATOM     27  H   UNL     1       3.966  -0.799   0.842  0.00  0.00    +0.292 HD
ENDBRANCH  23  26
ENDBRANCH  16  24
ENDBRANCH   1  18
TORSDOF 4
