REMARK  Name = ZINC36032851
REMARK  12 active torsions:
REMARK  status: ('A' for Active; 'I' for Inactive)
REMARK    1  A    between atoms: C_1  and  C_2
REMARK    2  A    between atoms: N_16  and  N_17
REMARK    3  A    between atoms: C_18  and  C_19
REMARK    4  A    between atoms: C_21  and  C_30
REMARK    5  A    between atoms: C_22  and  O_29
REMARK    6  A    between atoms: C_23  and  C_25
REMARK    7  A    between atoms: C_25  and  C_26
REMARK    8  A    between atoms: C_25  and  C_27
REMARK    9  A    between atoms: C_25  and  C_28
REMARK   10  A    between atoms: C_30  and  C_31
REMARK   11  A    between atoms: C_30  and  C_32
REMARK   12  A    between atoms: C_30  and  C_33
REMARK                            x       y       z     vdW  Elec       q    Type
REMARK                         _______ _______ _______ _____ _____    ______ ____
ROOT
ATOM      1  N   UNL     1      -0.052  -5.417   9.027  0.00  0.00    -0.187 NA
ATOM      2  C   UNL     1      -0.002  -4.239   8.484  0.00  0.00    +0.138 C 
ENDROOT
BRANCH   1  18
ATOM      3  C   UNL     1      -1.899 -10.340  16.473  0.00  0.00    +0.046 C 
ATOM      4  C   UNL     1      -1.237 -10.805  15.202  0.00  0.00    -0.026 A 
ATOM      5  C   UNL     1      -0.834 -12.118  15.075  0.00  0.00    +0.005 A 
ATOM      6  C   UNL     1      -0.224 -12.558  13.911  0.00  0.00    +0.001 A 
ATOM      7  C   UNL     1      -0.013 -11.686  12.864  0.00  0.00    +0.012 A 
ATOM      8  C   UNL     1      -0.415 -10.357  12.979  0.00  0.00    +0.029 A 
ATOM      9  C   UNL     1      -1.038  -9.911  14.155  0.00  0.00    +0.053 A 
ATOM     10  N   UNL     1      -1.340  -8.567  14.008  0.00  0.00    -0.337 N 
ATOM     11  H   UNL     1      -1.771  -8.020  14.682  0.00  0.00    +0.167 HD
ATOM     12  C   UNL     1      -0.941  -8.119  12.773  0.00  0.00    +0.163 A 
ATOM     13  C   UNL     1      -0.344  -9.193  12.080  0.00  0.00    +0.138 A 
ATOM     14  N   UNL     1       0.123  -8.998  10.855  0.00  0.00    -0.142 NA
ATOM     15  N   UNL     1       0.044  -7.832  10.312  0.00  0.00    -0.111 NA
ATOM     16  C   UNL     1      -0.501  -6.802  10.950  0.00  0.00    +0.256 A 
ATOM     17  N   UNL     1      -1.006  -6.937  12.170  0.00  0.00    -0.192 NA
ATOM     18  N   UNL     1      -0.562  -5.569  10.323  0.00  0.00    -0.204 N 
ATOM     19  H   UNL     1      -0.958  -4.811  10.781  0.00  0.00    +0.177 HD
ENDBRANCH   1  18
BRANCH   2  20
ATOM     20  C   UNL     1      -0.014  -3.034   9.334  0.00  0.00    -0.005 A 
ATOM     21  C   UNL     1      -0.248  -1.779   8.766  0.00  0.00    +0.017 A 
ATOM     22  C   UNL     1      -0.259  -0.655   9.565  0.00  0.00    +0.000 A 
ATOM     23  C   UNL     1      -0.037  -0.770  10.931  0.00  0.00    +0.124 A 
ATOM     24  C   UNL     1       0.196  -2.015  11.499  0.00  0.00    +0.000 A 
ATOM     25  C   UNL     1       0.203  -3.145  10.710  0.00  0.00    +0.017 A 
BRANCH  24  26
ATOM     26  C   UNL     1       0.436  -2.133  12.982  0.00  0.00    -0.009 C 
ATOM     27  C   UNL     1       0.665  -3.601  13.347  0.00  0.00    +0.015 C 
ATOM     28  C   UNL     1       1.671  -1.314  13.366  0.00  0.00    +0.015 C 
ATOM     29  C   UNL     1      -0.783  -1.603  13.740  0.00  0.00    +0.015 C 
ENDBRANCH  24  26
BRANCH  22  30
ATOM     30  C   UNL     1      -0.511   0.699   8.954  0.00  0.00    -0.009 C 
ATOM     31  C   UNL     1      -0.723   0.547   7.446  0.00  0.00    +0.015 C 
ATOM     32  C   UNL     1      -1.760   1.318   9.585  0.00  0.00    +0.015 C 
ATOM     33  C   UNL     1       0.694   1.607   9.211  0.00  0.00    +0.015 C 
ENDBRANCH  22  30
BRANCH  23  34
ATOM     34  O   UNL     1      -0.048   0.341  11.714  0.00  0.00    -0.506 OA
ATOM     35  H   UNL     1      -0.919   0.560  12.073  0.00  0.00    +0.292 HD
ENDBRANCH  23  34
ENDBRANCH   2  20
TORSDOF 5
