REMARK  Name = ZINC38206510
REMARK  12 active torsions:
REMARK  status: ('A' for Active; 'I' for Inactive)
REMARK    1  A    between atoms: C_1  and  C_2
REMARK    2  A    between atoms: C_2  and  O_3
REMARK    3  A    between atoms: O_3  and  C_4
REMARK    4  A    between atoms: C_7  and  C_13
REMARK    5  A    between atoms: C_9  and  O_10
REMARK    6  A    between atoms: O_10  and  C_11
REMARK    7  A    between atoms: C_11  and  C_12
REMARK    8  A    between atoms: C_15  and  C_24
REMARK    9  A    between atoms: C_16  and  C_23
REMARK   10  A    between atoms: N_26  and  C_27
REMARK   11  A    between atoms: C_30  and  C_34
REMARK   12  A    between atoms: C_32  and  C_33
REMARK                            x       y       z     vdW  Elec       q    Type
REMARK                         _______ _______ _______ _____ _____    ______ ____
ROOT
ATOM      1  C   UNL     1       1.170  -5.205  -1.918  0.00  0.00    +0.179 C 
ATOM      2  C   UNL     1      -0.020  -6.107  -2.114  0.00  0.00    +0.060 C 
ATOM      3  C   UNL     1      -0.339  -7.094  -1.264  0.00  0.00    +0.018 C 
ATOM      4  N   UNL     1       0.409  -7.368  -0.144  0.00  0.00    -0.286 N 
ATOM      5  C   UNL     1       1.654  -6.765  -0.046  0.00  0.00    +0.240 A 
ATOM      6  N   UNL     1       2.027  -5.753  -0.873  0.00  0.00    -0.201 N 
ATOM      7  N   UNL     1       3.322  -5.413  -0.488  0.00  0.00    -0.042 NA
ATOM      8  N   UNL     1       3.630  -6.194   0.496  0.00  0.00    -0.021 NA
ATOM      9  N   UNL     1       2.651  -6.991   0.761  0.00  0.00    -0.092 NA
ATOM     10  C   UNL     1      -1.560  -7.930  -1.546  0.00  0.00    +0.061 C 
ATOM     11  H   UNL     1       0.079  -7.960   0.550  0.00  0.00    +0.155 HD
ENDROOT
BRANCH   1  15
ATOM     12  C   UNL     1      -0.169  -1.311  -0.763  0.00  0.00    +0.162 A 
ATOM     13  C   UNL     1      -0.502  -2.417   0.002  0.00  0.00    +0.050 A 
ATOM     14  C   UNL     1      -0.068  -3.675  -0.374  0.00  0.00    +0.010 A 
ATOM     15  C   UNL     1       0.699  -3.832  -1.513  0.00  0.00    -0.015 A 
ATOM     16  C   UNL     1       1.036  -2.733  -2.281  0.00  0.00    +0.055 A 
ATOM     17  C   UNL     1       0.599  -1.471  -1.913  0.00  0.00    +0.162 A 
BRANCH  12  18
ATOM     18  O   UNL     1      -0.596  -0.074  -0.395  0.00  0.00    -0.489 OA
BRANCH  18  20
ATOM     19  C   UNL     1      -1.764   1.474   1.047  0.00  0.00    +0.048 C 
ATOM     20  C   UNL     1      -1.379   0.014   0.797  0.00  0.00    +0.226 C 
ENDBRANCH  18  20
ENDBRANCH  12  18
BRANCH  17  21
ATOM     21  O   UNL     1       0.924  -0.389  -2.671  0.00  0.00    -0.489 OA
BRANCH  21  22
ATOM     22  C   UNL     1       1.619  -0.639  -3.894  0.00  0.00    +0.226 C 
ATOM     23  C   UNL     1       1.931   0.690  -4.584  0.00  0.00    +0.048 C 
ENDBRANCH  21  22
ENDBRANCH  17  21
ENDBRANCH   1  15
BRANCH   2  24
ATOM     24  C   UNL     1      -0.841  -5.903  -3.248  0.00  0.00    +0.248 C 
ATOM     25  O   UNL     1      -0.520  -6.374  -4.324  0.00  0.00    -0.270 OA
ATOM     26  N   UNL     1      -1.978  -5.188  -3.137  0.00  0.00    -0.281 N 
ATOM     27  H   UNL     1      -2.198  -4.754  -2.298  0.00  0.00    +0.155 HD
BRANCH  26  28
ATOM     28  C   UNL     1      -2.839  -5.071  -4.232  0.00  0.00    +0.037 A 
ATOM     29  C   UNL     1      -2.761  -5.980  -5.280  0.00  0.00    +0.024 A 
ATOM     30  C   UNL     1      -3.614  -5.862  -6.360  0.00  0.00    +0.005 A 
ATOM     31  C   UNL     1      -4.545  -4.841  -6.399  0.00  0.00    -0.050 A 
ATOM     32  C   UNL     1      -4.626  -3.934  -5.358  0.00  0.00    +0.008 A 
ATOM     33  C   UNL     1      -3.779  -4.050  -4.272  0.00  0.00    -0.029 A 
ATOM     34  C   UNL     1      -3.872  -3.065  -3.135  0.00  0.00    +0.045 C 
ATOM     35  C   UNL     1      -5.474  -4.715  -7.579  0.00  0.00    +0.044 C 
ENDBRANCH  26  28
ENDBRANCH   2  24
TORSDOF 7
