REMARK  Name = ZINC12593871
REMARK  9 active torsions:
REMARK  status: ('A' for Active; 'I' for Inactive)
REMARK    1  A    between atoms: C_1  and  C_2
REMARK    2  A    between atoms: C_4  and  C_30
REMARK    3  A    between atoms: N_5  and  C_7
REMARK    4  A    between atoms: C_7  and  C_8
REMARK    5  A    between atoms: C_8  and  N_55
REMARK    6  A    between atoms: C_9  and  C_10
REMARK    7  A    between atoms: C_9  and  N_55
REMARK    8  A    between atoms: N_12  and  C_24
REMARK    9  A    between atoms: C_14  and  C_15
REMARK                            x       y       z     vdW  Elec       q    Type
REMARK                         _______ _______ _______ _____ _____    ______ ____
ROOT
ATOM      1  C   UNL     1      -1.115   1.856   0.017  0.00  0.00    -0.019 A 
ATOM      2  C   UNL     1      -0.013   1.076   0.008  0.00  0.00    +0.116 A 
ATOM      3  N   UNL     1       1.075   1.891   0.002  0.00  0.00    -0.239 N 
ATOM      4  N   UNL     1       0.623   3.216   0.013  0.00  0.00    -0.166 NA
ATOM      5  C   UNL     1      -0.694   3.201   0.025  0.00  0.00    +0.095 A 
ENDROOT
BRANCH   5   6
ATOM      6  C   UNL     1      -1.579   4.391   0.038  0.00  0.00    +0.006 A 
ATOM      7  C   UNL     1      -2.795   4.365  -0.643  0.00  0.00    +0.014 A 
ATOM      8  C   UNL     1      -3.618   5.472  -0.630  0.00  0.00    +0.050 A 
ATOM      9  C   UNL     1      -3.239   6.614   0.059  0.00  0.00    +0.166 A 
ATOM     10  C   UNL     1      -2.025   6.646   0.742  0.00  0.00    +0.167 A 
ATOM     11  C   UNL     1      -1.200   5.535   0.737  0.00  0.00    +0.059 A 
ATOM     12  O   UNL     1      -1.888   7.870   1.332  0.00  0.00    -0.453 OA
ATOM     13  C   UNL     1      -3.210   8.440   1.345  0.00  0.00    +0.466 C 
ATOM     14  O   UNL     1      -3.862   7.818   0.222  0.00  0.00    -0.453 OA
ENDBRANCH   5   6
BRANCH   3  15
ATOM     15  C   UNL     1       2.413   1.477  -0.013  0.00  0.00    +0.065 A 
ATOM     16  C   UNL     1       2.723   0.124  -0.017  0.00  0.00    +0.028 A 
ATOM     17  C   UNL     1       4.044  -0.281  -0.037  0.00  0.00    +0.002 A 
ATOM     18  C   UNL     1       5.057   0.661  -0.041  0.00  0.00    +0.000 A 
ATOM     19  C   UNL     1       4.751   2.010  -0.032  0.00  0.00    +0.002 A 
ATOM     20  C   UNL     1       3.433   2.420  -0.017  0.00  0.00    +0.028 A 
ENDBRANCH   3  15
BRANCH   1  21
ATOM     21  C   UNL     1      -2.543   1.374   0.020  0.00  0.00    -0.043 C 
BRANCH  21  22
ATOM     22  N   UNL     1      -3.084   1.456  -1.350  0.00  0.00    +0.383 N 
ATOM     23  H   UNL     1      -3.046   2.430  -1.672  0.00  0.00    -0.085 HD
ATOM     24  H   UNL     1      -2.518   0.867  -1.973  0.00  0.00    -0.085 HD
BRANCH  22  25
ATOM     25  C   UNL     1      -4.483   0.989  -1.377  0.00  0.00    -0.059 C 
BRANCH  25  26
ATOM     26  C   UNL     1      -5.016   1.085  -2.807  0.00  0.00    +0.125 C 
BRANCH  26  31
ATOM     27  C   UNL     1     -10.033   1.101  -2.631  0.00  0.00    +0.067 C 
ATOM     28  C   UNL     1      -8.600   0.653  -2.761  0.00  0.00    +0.060 A 
ATOM     29  C   UNL     1      -8.168  -0.654  -3.012  0.00  0.00    +0.047 A 
ATOM     30  C   UNL     1      -6.816  -0.644  -3.063  0.00  0.00    +0.036 A 
ATOM     31  N   UNL     1      -6.406   0.623  -2.843  0.00  0.00    -0.270 N 
ATOM     32  N   UNL     1      -7.544   1.419  -2.659  0.00  0.00    -0.176 NA
ATOM     33  C   UNL     1      -5.928  -1.834  -3.317  0.00  0.00    +0.065 C 
ENDBRANCH  26  31
ENDBRANCH  25  26
ENDBRANCH  22  25
ENDBRANCH  21  22
ENDBRANCH   1  21
TORSDOF 7
