REMARK  Name = ZINC38517556
REMARK  8 active torsions:
REMARK  status: ('A' for Active; 'I' for Inactive)
REMARK    1  A    between atoms: C_1  and  N_2
REMARK    2  A    between atoms: C_10  and  C_12
REMARK    3  A    between atoms: C_12  and  C_14
REMARK    4  A    between atoms: C_12  and  N_32
REMARK    5  A    between atoms: C_14  and  N_15
REMARK    6  A    between atoms: N_18  and  C_19
REMARK    7  A    between atoms: C_19  and  C_20
REMARK    8  A    between atoms: C_19  and  C_26
REMARK                            x       y       z     vdW  Elec       q    Type
REMARK                         _______ _______ _______ _____ _____    ______ ____
ROOT
ATOM      1  C   UNL     1       5.880  -2.624   0.731  0.00  0.00    +0.095 C 
ENDROOT
BRANCH   1   2
ATOM      2  N   UNL     1       5.284  -3.322   1.873  0.00  0.00    -0.301 N 
ATOM      3  C   UNL     1       5.969  -3.429   3.029  0.00  0.00    +0.300 C 
ATOM      4  O   UNL     1       7.081  -2.946   3.123  0.00  0.00    -0.253 OA
ATOM      5  N   UNL     1       5.422  -4.070   4.080  0.00  0.00    -0.289 N 
ATOM      6  H   UNL     1       4.397  -3.707   1.798  0.00  0.00    +0.150 HD
ATOM      7  H   UNL     1       4.535  -4.455   4.005  0.00  0.00    +0.151 HD
BRANCH   5   8
ATOM      8  C   UNL     1       6.167  -4.186   5.337  0.00  0.00    +0.135 C 
BRANCH   8   9
ATOM      9  C   UNL     1       5.950  -2.946   6.165  0.00  0.00    -0.023 A 
ATOM     10  C   UNL     1       4.697  -2.366   6.226  0.00  0.00    +0.006 A 
ATOM     11  C   UNL     1       4.498  -1.229   6.986  0.00  0.00    +0.000 A 
ATOM     12  C   UNL     1       5.552  -0.672   7.686  0.00  0.00    +0.000 A 
ATOM     13  C   UNL     1       6.805  -1.253   7.626  0.00  0.00    +0.000 A 
ATOM     14  C   UNL     1       7.003  -2.393   6.869  0.00  0.00    +0.006 A 
ENDBRANCH   8   9
BRANCH   8  15
ATOM     15  C   UNL     1       5.680  -5.392   6.099  0.00  0.00    -0.023 A 
ATOM     16  C   UNL     1       4.332  -5.694   6.127  0.00  0.00    +0.006 A 
ATOM     17  C   UNL     1       3.885  -6.800   6.827  0.00  0.00    +0.000 A 
ATOM     18  C   UNL     1       4.788  -7.603   7.498  0.00  0.00    +0.000 A 
ATOM     19  C   UNL     1       6.136  -7.301   7.470  0.00  0.00    +0.000 A 
ATOM     20  C   UNL     1       6.583  -6.198   6.766  0.00  0.00    +0.006 A 
ENDBRANCH   8  15
ENDBRANCH   5   8
ENDBRANCH   1   2
BRANCH   1  21
ATOM     21  C   UNL     1       4.947  -2.736  -0.477  0.00  0.00    -0.020 C 
BRANCH  21  31
ATOM     22  C   UNL     1       0.165   1.535   0.731  0.00  0.00    +0.129 C 
ATOM     23  N   UNL     1       0.139   0.077   0.589  0.00  0.00    -0.333 N 
ATOM     24  C   UNL     1      -1.124  -0.663   0.713  0.00  0.00    +0.105 C 
ATOM     25  C   UNL     1      -0.862  -1.892   1.593  0.00  0.00    +0.024 C 
ATOM     26  C   UNL     1       0.146  -2.799   0.887  0.00  0.00    +0.038 C 
ATOM     27  C   UNL     1       1.359  -2.012   0.468  0.00  0.00    -0.026 A 
ATOM     28  C   UNL     1       1.316  -0.632   0.327  0.00  0.00    +0.033 A 
ATOM     29  C   UNL     1       2.452   0.064  -0.072  0.00  0.00    +0.023 A 
ATOM     30  C   UNL     1       3.624  -0.618  -0.332  0.00  0.00    +0.004 A 
ATOM     31  C   UNL     1       3.667  -1.993  -0.195  0.00  0.00    -0.059 A 
ATOM     32  C   UNL     1       2.541  -2.688   0.212  0.00  0.00    +0.007 A 
ENDBRANCH  21  31
BRANCH  21  33
ATOM     33  N   UNL     1       5.602  -2.154  -1.657  0.00  0.00    +0.385 N 
ATOM     34  C   UNL     1       6.832  -2.917  -1.988  0.00  0.00    -0.078 C 
ATOM     35  C   UNL     1       7.067  -2.580  -3.482  0.00  0.00    -0.020 C 
ATOM     36  C   UNL     1       5.632  -2.531  -4.055  0.00  0.00    -0.020 C 
ATOM     37  C   UNL     1       4.722  -2.275  -2.839  0.00  0.00    -0.078 C 
ATOM     38  H   UNL     1       5.827  -1.185  -1.487  0.00  0.00    -0.081 HD
ENDBRANCH  21  33
ENDBRANCH   1  21
TORSDOF 7
