REMARK  Name = ZINC38655737
REMARK  9 active torsions:
REMARK  status: ('A' for Active; 'I' for Inactive)
REMARK    1  A    between atoms: C_4  and  O_10
REMARK    2  A    between atoms: C_5  and  N_7
REMARK    3  A    between atoms: O_10  and  C_11
REMARK    4  A    between atoms: C_11  and  C_12
REMARK    5  A    between atoms: C_12  and  O_14
REMARK    6  A    between atoms: O_14  and  C_15
REMARK    7  A    between atoms: C_22  and  N_36
REMARK    8  A    between atoms: C_23  and  C_34
REMARK    9  A    between atoms: C_24  and  C_26
REMARK                            x       y       z     vdW  Elec       q    Type
REMARK                         _______ _______ _______ _____ _____    ______ ____
ROOT
ATOM      1  C   UNL     1       8.334  -0.976  -0.054  0.00  0.00    +0.135 A 
ATOM      2  C   UNL     1       8.227  -2.359  -0.103  0.00  0.00    +0.047 A 
ATOM      3  C   UNL     1       9.366  -3.140  -0.085  0.00  0.00    +0.012 A 
ATOM      4  C   UNL     1      10.615  -2.549  -0.017  0.00  0.00    +0.008 A 
ATOM      5  C   UNL     1      10.727  -1.168   0.033  0.00  0.00    +0.138 A 
ATOM      6  C   UNL     1       9.583  -0.381   0.008  0.00  0.00    +0.093 A 
ATOM      7  O   UNL     1      11.943  -0.571   0.100  0.00  0.00    -0.441 OA
ATOM      8  C   UNL     1      13.044  -1.251  -0.262  0.00  0.00    +0.199 C 
ATOM      9  C   UNL     1      13.063  -2.603  -0.328  0.00  0.00    +0.098 C 
ATOM     10  C   UNL     1      11.845  -3.418   0.004  0.00  0.00    +0.098 C 
ENDROOT
BRANCH  10  11
ATOM     11  C   UNL     1      12.006  -4.023   1.374  0.00  0.00    -0.033 A 
ATOM     12  C   UNL     1      12.150  -3.203   2.478  0.00  0.00    +0.006 A 
ATOM     13  C   UNL     1      12.299  -3.756   3.736  0.00  0.00    +0.022 A 
ATOM     14  C   UNL     1      12.303  -5.131   3.891  0.00  0.00    +0.059 A 
ATOM     15  C   UNL     1      12.159  -5.952   2.786  0.00  0.00    +0.060 A 
ATOM     16  C   UNL     1      12.005  -5.396   1.528  0.00  0.00    +0.026 A 
ATOM     17 CL   UNL     1      12.164  -7.677   2.979  0.00  0.00    -0.082 Cl
ATOM     18 CL   UNL     1      12.491  -5.826   5.471  0.00  0.00    -0.082 Cl
ENDBRANCH  10  11
BRANCH   8  19
ATOM     19  N   UNL     1      14.184  -0.553  -0.575  0.00  0.00    -0.328 N 
ATOM     20  H   UNL     1      14.187   0.416  -0.533  0.00  0.00    +0.145 HD
ATOM     21  H   UNL     1      14.987  -1.029  -0.838  0.00  0.00    +0.145 HD
ENDBRANCH   8  19
BRANCH   9  22
ATOM     22  C   UNL     1      14.267  -3.270  -0.722  0.00  0.00    +0.101 C 
ATOM     23  N   UNL     1      15.223  -3.799  -1.034  0.00  0.00    -0.191 NA
ENDBRANCH   9  22
BRANCH   1  24
ATOM     24  O   UNL     1       7.214  -0.206  -0.072  0.00  0.00    -0.423 OA
BRANCH  24  25
ATOM     25  C   UNL     1       6.501  -0.102   1.061  0.00  0.00    +0.350 C 
ATOM     26  O   UNL     1       6.811  -0.754   2.031  0.00  0.00    -0.247 OA
BRANCH  25  27
ATOM     27  C   UNL     1       5.316   0.826   1.124  0.00  0.00    +0.349 C 
BRANCH  27  28
ATOM     28  O   UNL     1       4.728   0.760   2.425  0.00  0.00    -0.478 OA
BRANCH  28  32
ATOM     29  C   UNL     1       1.424   3.134   3.109  0.00  0.00    +0.002 A 
ATOM     30  C   UNL     1       2.042   3.151   1.873  0.00  0.00    +0.004 A 
ATOM     31  C   UNL     1       3.148   2.357   1.641  0.00  0.00    +0.048 A 
ATOM     32  C   UNL     1       3.640   1.542   2.651  0.00  0.00    +0.151 A 
ATOM     33  C   UNL     1       3.018   1.527   3.891  0.00  0.00    +0.168 A 
ATOM     34  C   UNL     1       1.912   2.323   4.117  0.00  0.00    +0.036 A 
BRANCH  33  35
ATOM     35  N   UNL     1       3.539   0.659   4.970  0.00  0.00    +0.060 N 
ATOM     36  O   UNL     1       2.997   0.646   6.050  0.00  0.00    -0.126 OA
ATOM     37  O   UNL     1       4.507  -0.038   4.771  0.00  0.00    -0.126 OA
ENDBRANCH  33  35
ENDBRANCH  28  32
ENDBRANCH  27  28
ENDBRANCH  25  27
ENDBRANCH  24  25
ENDBRANCH   1  24
TORSDOF 9
