REMARK  Name = ZINC11997624
REMARK  8 active torsions:
REMARK  status: ('A' for Active; 'I' for Inactive)
REMARK    1  A    between atoms: C_1  and  C_2
REMARK    2  A    between atoms: C_5  and  C_8
REMARK    3  A    between atoms: C_8  and  C_10
REMARK    4  A    between atoms: C_8  and  N_62
REMARK    5  A    between atoms: C_10  and  N_11
REMARK    6  A    between atoms: N_11  and  S_12
REMARK    7  A    between atoms: S_12  and  C_15
REMARK    8  A    between atoms: C_18  and  N_21
REMARK                            x       y       z     vdW  Elec       q    Type
REMARK                         _______ _______ _______ _____ _____    ______ ____
ROOT
ATOM      1  N   UNL     1       8.641  -1.007   0.548  0.00  0.00    -0.191 NA
ATOM      2  H   UNL     1       9.372  -1.641   0.486  0.00  0.00    +0.148 HD
ENDROOT
BRANCH   1   3
ATOM      3  S   UNL     1       7.235  -1.435   1.312  0.00  0.00    +0.058 S 
ATOM      4  O   UNL     1       6.927  -0.383   2.215  0.00  0.00    -0.153 OA
ATOM      5  O   UNL     1       7.398  -2.781   1.738  0.00  0.00    -0.153 OA
BRANCH   3   6
ATOM      6  C   UNL     1       5.963  -1.443   0.093  0.00  0.00    +0.105 A 
ATOM      7  C   UNL     1       5.691  -2.600  -0.613  0.00  0.00    +0.030 A 
ATOM      8  C   UNL     1       4.694  -2.610  -1.569  0.00  0.00    +0.027 A 
ATOM      9  C   UNL     1       3.963  -1.455  -1.819  0.00  0.00    +0.059 A 
ATOM     10  C   UNL     1       4.242  -0.293  -1.112  0.00  0.00    +0.027 A 
ATOM     11  C   UNL     1       5.237  -0.292  -0.154  0.00  0.00    +0.030 A 
BRANCH   9  12
ATOM     12  N   UNL     1       2.953  -1.462  -2.787  0.00  0.00    -0.144 N 
ATOM     13  C   UNL     1       2.264  -2.535  -3.202  0.00  0.00    +0.240 C 
ATOM     14  O   UNL     1       2.466  -3.628  -2.716  0.00  0.00    -0.274 OA
ATOM     15  C   UNL     1       1.239  -2.354  -4.281  0.00  0.00    +0.122 C 
ATOM     16  C   UNL     1       0.861  -0.852  -4.358  0.00  0.00    +0.198 C 
ATOM     17  S   UNL     1       2.389  -0.130  -3.631  0.00  0.00    +0.052 S 
ATOM     18  O   UNL     1       3.358   0.126  -4.638  0.00  0.00    -0.155 OA
ATOM     19  O   UNL     1       2.071   0.843  -2.646  0.00  0.00    -0.155 OA
ENDBRANCH   9  12
ENDBRANCH   3   6
ENDBRANCH   1   3
BRANCH   1  20
ATOM     20  C   UNL     1       8.781   0.330  -0.034  0.00  0.00    +0.095 C 
BRANCH  20  21
ATOM     21  C   UNL     1      10.255   0.604  -0.335  0.00  0.00    -0.022 C 
BRANCH  21  26
ATOM     22  C   UNL     1      10.867   6.044  -2.187  0.00  0.00    +0.044 C 
ATOM     23  C   UNL     1      10.707   4.625  -1.704  0.00  0.00    -0.050 A 
ATOM     24  C   UNL     1      10.004   4.365  -0.543  0.00  0.00    +0.003 A 
ATOM     25  C   UNL     1       9.858   3.064  -0.100  0.00  0.00    +0.002 A 
ATOM     26  C   UNL     1      10.414   2.023  -0.818  0.00  0.00    -0.060 A 
ATOM     27  C   UNL     1      11.122   2.283  -1.977  0.00  0.00    +0.002 A 
ATOM     28  C   UNL     1      11.263   3.584  -2.423  0.00  0.00    +0.003 A 
ENDBRANCH  21  26
BRANCH  21  34
ATOM     29  C   UNL     1      10.638   1.353   1.935  0.00  0.00    -0.078 C 
ATOM     30  C   UNL     1      11.380   1.029   3.233  0.00  0.00    -0.019 C 
ATOM     31  C   UNL     1      12.889   1.131   2.992  0.00  0.00    -0.004 C 
ATOM     32  C   UNL     1      13.283   0.175   1.863  0.00  0.00    -0.019 C 
ATOM     33  C   UNL     1      12.485   0.524   0.604  0.00  0.00    -0.078 C 
ATOM     34  N   UNL     1      11.043   0.383   0.896  0.00  0.00    +0.385 N 
ATOM     35  H   UNL     1      10.864  -0.568   1.240  0.00  0.00    -0.081 HD
ENDBRANCH  21  34
ENDBRANCH  20  21
ENDBRANCH   1  20
TORSDOF 7
