REMARK  Name = ZINC20721876
REMARK  2 active torsions:
REMARK  status: ('A' for Active; 'I' for Inactive)
REMARK    1  A    between atoms: N_20  and  C_21
REMARK    2  A    between atoms: C_21  and  C_22
REMARK                            x       y       z     vdW  Elec       q    Type
REMARK                         _______ _______ _______ _____ _____    ______ ____
ROOT
ATOM      1  C   UNL     1      -0.017   1.387   0.010  0.00  0.00    +0.000 A 
ATOM      2  C   UNL     1       1.152   2.121   0.002  0.00  0.00    +0.002 A 
ATOM      3  C   UNL     1       2.399   1.516  -0.013  0.00  0.00    +0.024 A 
ATOM      4  C   UNL     1       2.431   0.120  -0.021  0.00  0.00    +0.041 A 
ATOM      5  C   UNL     1       1.238  -0.614  -0.013  0.00  0.00    -0.006 A 
ATOM      6  C   UNL     1       0.002  -0.004   0.002  0.00  0.00    +0.007 A 
ATOM      7  C   UNL     1       1.635  -2.055  -0.023  0.00  0.00    +0.112 C 
ATOM      8  C   UNL     1       1.132  -2.776   1.225  0.00  0.00    +0.122 C 
ATOM      9  C   UNL     1      -0.316  -3.157   1.088  0.00  0.00    +0.220 C 
ATOM     10  O   UNL     1      -1.037  -3.087   2.061  0.00  0.00    -0.275 OA
ATOM     11  N   UNL     1      -0.839  -3.577  -0.084  0.00  0.00    -0.270 N 
ATOM     12  C   UNL     1      -0.060  -3.466  -1.235  0.00  0.00    +0.125 A 
ATOM     13  C   UNL     1       1.115  -2.758  -1.246  0.00  0.00    +0.032 A 
ATOM     14  C   UNL     1       1.649  -2.838  -2.524  0.00  0.00    +0.141 A 
ATOM     15  N   UNL     1       0.834  -3.554  -3.263  0.00  0.00    -0.180 NA
ATOM     16  N   UNL     1      -0.254  -3.951  -2.470  0.00  0.00    -0.264 N 
ATOM     17  H   UNL     1      -1.012  -4.481  -2.763  0.00  0.00    +0.190 HD
ATOM     18  C   UNL     1       3.148  -2.030  -0.038  0.00  0.00    +0.236 C 
ATOM     19  O   UNL     1       3.885  -2.993  -0.050  0.00  0.00    -0.274 OA
ATOM     20  N   UNL     1       3.521  -0.733  -0.036  0.00  0.00    -0.266 N 
ATOM     21  H   UNL     1      -1.735  -3.945  -0.124  0.00  0.00    +0.156 HD
ENDROOT
BRANCH  20  22
ATOM     22  C   UNL     1       4.914  -0.281  -0.049  0.00  0.00    +0.149 C 
BRANCH  22  23
ATOM     23  C   UNL     1       5.407  -0.133   1.368  0.00  0.00    -0.027 A 
ATOM     24  C   UNL     1       5.259   1.072   2.029  0.00  0.00    +0.005 A 
ATOM     25  C   UNL     1       5.710   1.210   3.328  0.00  0.00    +0.003 A 
ATOM     26  C   UNL     1       6.311   0.142   3.968  0.00  0.00    +0.038 A 
ATOM     27  C   UNL     1       6.460  -1.065   3.308  0.00  0.00    +0.124 A 
ATOM     28  C   UNL     1       6.002  -1.204   2.008  0.00  0.00    +0.043 A 
ATOM     29  F   UNL     1       7.047  -2.110   3.932  0.00  0.00    -0.205 F 
ENDBRANCH  22  23
ENDBRANCH  20  22
TORSDOF 2
