REMARK  Name = ZINC54371058
REMARK  4 active torsions:
REMARK  status: ('A' for Active; 'I' for Inactive)
REMARK    1  A    between atoms: C_1  and  C_2
REMARK    2  A    between atoms: N_8  and  S_9
REMARK    3  A    between atoms: S_9  and  C_12
REMARK    4  A    between atoms: C_15  and  N_19
REMARK                            x       y       z     vdW  Elec       q    Type
REMARK                         _______ _______ _______ _____ _____    ______ ____
ROOT
ATOM      1  S   UNL     1       1.358   0.539   2.299  0.00  0.00    +0.062 S 
ATOM      2  O   UNL     1       0.292   1.147   3.017  0.00  0.00    -0.153 OA
ATOM      3  O   UNL     1       2.337  -0.274   2.933  0.00  0.00    -0.153 OA
ENDROOT
BRANCH   1  10
ATOM      4  C   UNL     1      -0.933   1.457   0.879  0.00  0.00    +0.024 C 
ATOM      5  C   UNL     1      -0.591   0.023   0.470  0.00  0.00    +0.060 C 
ATOM      6  C   UNL     1      -0.405  -0.049  -1.049  0.00  0.00    -0.062 C 
ATOM      7  N   UNL     1       0.056  -1.392  -1.422  0.00  0.00    +0.381 N 
ATOM      8  C   UNL     1       1.384  -1.642  -0.850  0.00  0.00    -0.065 C 
ATOM      9  C   UNL     1       1.287  -1.649   0.679  0.00  0.00    +0.091 C 
ATOM     10  N   UNL     1       0.664  -0.390   1.117  0.00  0.00    -0.177 NA
ATOM     11  H   UNL     1      -0.595  -2.079  -1.072  0.00  0.00    -0.086 HD
ATOM     12  H   UNL     1       0.105  -1.462  -2.428  0.00  0.00    -0.086 HD
ENDBRANCH   1  10
BRANCH   1  13
ATOM     13  C   UNL     1       2.229   1.842   1.494  0.00  0.00    +0.124 A 
ATOM     14  C   UNL     1       1.806   3.150   1.638  0.00  0.00    +0.032 A 
ATOM     15  C   UNL     1       2.489   4.171   1.006  0.00  0.00    +0.035 A 
ATOM     16  C   UNL     1       3.597   3.886   0.229  0.00  0.00    +0.128 A 
ATOM     17  C   UNL     1       4.021   2.579   0.085  0.00  0.00    +0.054 A 
ATOM     18  C   UNL     1       3.341   1.556   0.722  0.00  0.00    +0.069 A 
ATOM     19 CL   UNL     1       3.879  -0.085   0.547  0.00  0.00    -0.081 Cl
BRANCH  16  20
ATOM     20  N   UNL     1       4.327   4.980  -0.449  0.00  0.00    +0.056 N 
ATOM     21  O   UNL     1       3.955   6.124  -0.323  0.00  0.00    -0.126 OA
ATOM     22  O   UNL     1       5.296   4.731  -1.128  0.00  0.00    -0.126 OA
ENDBRANCH  16  20
ENDBRANCH   1  13
TORSDOF 3
