REMARK  Name = ZINC36065054
REMARK  16 active torsions:
REMARK  status: ('A' for Active; 'I' for Inactive)
REMARK    1  A    between atoms: C_1  and  C_2
REMARK    2  A    between atoms: C_2  and  C_3
REMARK    3  A    between atoms: C_2  and  O_4
REMARK    4  A    between atoms: O_4  and  C_5
REMARK    5  A    between atoms: C_5  and  C_7
REMARK    6  A    between atoms: C_8  and  C_34
REMARK    7  A    between atoms: C_12  and  C_14
REMARK    8  A    between atoms: C_19  and  O_20
REMARK    9  A    between atoms: O_20  and  C_21
REMARK   10  A    between atoms: C_22  and  C_25
REMARK   11  A    between atoms: C_26  and  N_28
REMARK   12  A    between atoms: N_28  and  C_29
REMARK   13  A    between atoms: C_29  and  C_30
REMARK   14  A    between atoms: C_30  and  N_31
REMARK   15  A    between atoms: N_31  and  C_32
REMARK   16  A    between atoms: N_31  and  C_33
REMARK                            x       y       z     vdW  Elec       q    Type
REMARK                         _______ _______ _______ _____ _____    ______ ____
ROOT
ATOM      1  C   UNL     1      -2.935  -2.690  -0.809  0.00  0.00    +0.092 C 
ATOM      2  C   UNL     1      -3.432  -3.883  -1.298  0.00  0.00    +0.158 C 
ATOM      3  N   UNL     1      -4.686  -4.233  -1.065  0.00  0.00    -0.220 NA
ATOM      4  C   UNL     1      -5.551  -3.517  -0.376  0.00  0.00    +0.166 C 
ATOM      5  N   UNL     1      -5.259  -2.308   0.192  0.00  0.00    -0.267 N 
ATOM      6  C   UNL     1      -3.869  -1.816  -0.002  0.00  0.00    +0.153 C 
ATOM      7  C   UNL     1      -6.274  -1.680   0.885  0.00  0.00    +0.048 C 
ATOM      8  C   UNL     1      -7.471  -2.304   0.947  0.00  0.00    +0.072 C 
ATOM      9  S   UNL     1      -7.159  -3.793   0.019  0.00  0.00    -0.060 S 
ENDROOT
BRANCH   6  10
ATOM     10  C   UNL     1      -3.948  -0.472  -0.680  0.00  0.00    +0.020 A 
ATOM     11  C   UNL     1      -4.941  -0.224  -1.608  0.00  0.00    +0.009 A 
ATOM     12  C   UNL     1      -5.014   1.008  -2.231  0.00  0.00    +0.001 A 
ATOM     13  C   UNL     1      -4.094   1.995  -1.926  0.00  0.00    +0.004 A 
ATOM     14  C   UNL     1      -3.100   1.752  -0.999  0.00  0.00    +0.046 A 
ATOM     15  C   UNL     1      -3.028   0.518  -0.369  0.00  0.00    +0.125 A 
BRANCH  15  16
ATOM     16  O   UNL     1      -2.054   0.278   0.548  0.00  0.00    -0.495 OA
ATOM     17  C   UNL     1      -1.208   1.375   0.899  0.00  0.00    +0.277 C 
ENDBRANCH  15  16
ENDBRANCH   6  10
BRANCH   2  18
ATOM     18  C   UNL     1      -2.538  -4.792  -2.103  0.00  0.00    +0.435 C 
ATOM     19  F   UNL     1      -1.237  -4.278  -2.112  0.00  0.00    -0.164 F 
ATOM     20  F   UNL     1      -2.532  -6.067  -1.528  0.00  0.00    -0.164 F 
ATOM     21  F   UNL     1      -3.017  -4.873  -3.415  0.00  0.00    -0.164 F 
ENDBRANCH   2  18
BRANCH   7  22
ATOM     22  C   UNL     1      -6.061  -0.377   1.532  0.00  0.00    +0.091 C 
ATOM     23  C   UNL     1      -7.019   0.148   2.320  0.00  0.00    +0.239 C 
ATOM     24  O   UNL     1      -8.119  -0.582   2.627  0.00  0.00    -0.271 OA
BRANCH  23  25
ATOM     25  N   UNL     1      -6.879   1.432   2.818  0.00  0.00    -0.314 N 
ATOM     26  H   UNL     1      -6.091   1.954   2.598  0.00  0.00    +0.149 HD
BRANCH  25  27
ATOM     27  C   UNL     1      -7.920   2.003   3.675  0.00  0.00    +0.086 C 
BRANCH  27  28
ATOM     28  C   UNL     1      -7.522   3.423   4.085  0.00  0.00    -0.061 C 
BRANCH  28  29
ATOM     29  N   UNL     1      -8.566   3.995   4.945  0.00  0.00    +0.377 N 
ATOM     30  C   UNL     1      -8.131   5.310   5.435  0.00  0.00    -0.097 C 
ATOM     31  C   UNL     1      -9.807   4.147   4.174  0.00  0.00    -0.097 C 
ATOM     32  H   UNL     1      -8.730   3.381   5.729  0.00  0.00    -0.083 HD
ENDBRANCH  28  29
ENDBRANCH  27  28
ENDBRANCH  25  27
ENDBRANCH  23  25
ENDBRANCH   7  22
BRANCH   1  33
ATOM     33  C   UNL     1      -1.610  -2.306  -1.047  0.00  0.00    +0.340 C 
ATOM     34  O   UNL     1      -1.352  -1.540  -1.960  0.00  0.00    -0.245 OA
BRANCH  33  35
ATOM     35  O   UNL     1      -0.617  -2.785  -0.266  0.00  0.00    -0.459 OA
BRANCH  35  37
ATOM     36  C   UNL     1       1.523  -2.391   0.786  0.00  0.00    +0.052 C 
ATOM     37  C   UNL     1       0.695  -2.268  -0.495  0.00  0.00    +0.171 C 
ATOM     38  C   UNL     1       1.368  -3.063  -1.616  0.00  0.00    +0.052 C 
ENDBRANCH  35  37
ENDBRANCH  33  35
ENDBRANCH   1  33
TORSDOF 11
