REMARK  Name = ZINC38649432
REMARK  10 active torsions:
REMARK  status: ('A' for Active; 'I' for Inactive)
REMARK    1  A    between atoms: C_1  and  C_2
REMARK    2  A    between atoms: C_2  and  C_3
REMARK    3  A    between atoms: C_2  and  C_4
REMARK    4  A    between atoms: C_7  and  C_10
REMARK    5  A    between atoms: C_15  and  O_24
REMARK    6  A    between atoms: C_19  and  N_23
REMARK    7  A    between atoms: C_20  and  C_21
REMARK    8  A    between atoms: O_24  and  C_25
REMARK    9  A    between atoms: C_25  and  C_27
REMARK   10  A    between atoms: C_28  and  C_29
REMARK                            x       y       z     vdW  Elec       q    Type
REMARK                         _______ _______ _______ _____ _____    ______ ____
ROOT
ATOM      1  C   UNL     1      -5.377  -2.004   0.093  0.00  0.00    +0.098 C 
ATOM      2  C   UNL     1      -5.364  -3.509   0.085  0.00  0.00    +0.008 A 
ATOM      3  C   UNL     1      -4.976  -4.193   1.224  0.00  0.00    +0.012 A 
ATOM      4  C   UNL     1      -4.958  -5.573   1.235  0.00  0.00    +0.047 A 
ATOM      5  C   UNL     1      -5.332  -6.281   0.101  0.00  0.00    +0.135 A 
ATOM      6  C   UNL     1      -5.721  -5.600  -1.041  0.00  0.00    +0.093 A 
ATOM      7  C   UNL     1      -5.737  -4.211  -1.050  0.00  0.00    +0.138 A 
ATOM      8  O   UNL     1      -6.121  -3.559  -2.176  0.00  0.00    -0.441 OA
ATOM      9  C   UNL     1      -6.515  -2.277  -2.106  0.00  0.00    +0.199 C 
ATOM     10  C   UNL     1      -6.194  -1.488  -1.058  0.00  0.00    +0.098 C 
ENDROOT
BRANCH   1  14
ATOM     11  C   UNL     1      -1.373  -0.556  -0.253  0.00  0.00    -0.045 A 
ATOM     12  C   UNL     1      -2.130  -0.236   0.859  0.00  0.00    +0.004 A 
ATOM     13  C   UNL     1      -3.425  -0.705   0.971  0.00  0.00    +0.005 A 
ATOM     14  C   UNL     1      -3.964  -1.492  -0.029  0.00  0.00    -0.035 A 
ATOM     15  C   UNL     1      -3.208  -1.811  -1.141  0.00  0.00    +0.005 A 
ATOM     16  C   UNL     1      -1.913  -1.339  -1.255  0.00  0.00    +0.004 A 
BRANCH  11  18
ATOM     17  C   UNL     1       0.033   1.484  -0.353  0.00  0.00    +0.012 C 
ATOM     18  C   UNL     1       0.040  -0.045  -0.375  0.00  0.00    +0.013 C 
ATOM     19  C   UNL     1       0.874  -0.568   0.797  0.00  0.00    +0.012 C 
ENDBRANCH  11  18
ENDBRANCH   1  14
BRANCH   9  20
ATOM     20  N   UNL     1      -7.264  -1.754  -3.131  0.00  0.00    -0.328 N 
ATOM     21  H   UNL     1      -7.501  -2.309  -3.890  0.00  0.00    +0.145 HD
ATOM     22  H   UNL     1      -7.557  -0.830  -3.095  0.00  0.00    +0.145 HD
ENDBRANCH   9  20
BRANCH  10  23
ATOM     23  C   UNL     1      -6.645  -0.129  -1.044  0.00  0.00    +0.101 C 
ATOM     24  N   UNL     1      -7.002   0.950  -1.034  0.00  0.00    -0.191 NA
ENDBRANCH  10  23
BRANCH   5  25
ATOM     25  O   UNL     1      -5.314  -7.640   0.110  0.00  0.00    -0.423 OA
BRANCH  25  26
ATOM     26  C   UNL     1      -6.229  -8.280   0.868  0.00  0.00    +0.337 C 
ATOM     27  O   UNL     1      -7.101  -7.647   1.433  0.00  0.00    -0.245 OA
BRANCH  26  28
ATOM     28  C   UNL     1      -6.173  -9.733   1.010  0.00  0.00    +0.092 C 
ATOM     29  C   UNL     1      -7.088 -10.373   1.768  0.00  0.00    +0.015 C 
BRANCH  29  30
ATOM     30  C   UNL     1      -7.031 -11.836   1.912  0.00  0.00    -0.025 A 
ATOM     31  C   UNL     1      -6.026 -12.567   1.268  0.00  0.00    +0.009 A 
ATOM     32  C   UNL     1      -5.979 -13.937   1.407  0.00  0.00    +0.020 A 
ATOM     33  C   UNL     1      -6.924 -14.592   2.181  0.00  0.00    +0.041 A 
ATOM     34  C   UNL     1      -7.922 -13.875   2.821  0.00  0.00    +0.020 A 
ATOM     35  C   UNL     1      -7.978 -12.503   2.697  0.00  0.00    +0.009 A 
ATOM     36 CL   UNL     1      -6.857 -16.318   2.349  0.00  0.00    -0.084 Cl
ENDBRANCH  29  30
ENDBRANCH  26  28
ENDBRANCH  25  26
ENDBRANCH   5  25
TORSDOF 8
