REMARK  Name = ZINC24144699
REMARK  10 active torsions:
REMARK  status: ('A' for Active; 'I' for Inactive)
REMARK    1  A    between atoms: C_1  and  C_2
REMARK    2  A    between atoms: C_2  and  C_3
REMARK    3  A    between atoms: C_4  and  C_35
REMARK    4  A    between atoms: N_10  and  C_27
REMARK    5  A    between atoms: C_11  and  S_13
REMARK    6  A    between atoms: S_13  and  C_14
REMARK    7  A    between atoms: C_14  and  C_15
REMARK    8  A    between atoms: C_21  and  C_24
REMARK    9  A    between atoms: C_30  and  C_34
REMARK   10  A    between atoms: C_31  and  C_33
REMARK                            x       y       z     vdW  Elec       q    Type
REMARK                         _______ _______ _______ _____ _____    ______ ____
ROOT
ATOM      1  C   UNL     1      -3.260   3.762  -8.964  0.00  0.00    -0.023 A 
ATOM      2  C   UNL     1      -4.535   3.462  -8.676  0.00  0.00    -0.007 A 
ATOM      3  S   UNL     1      -4.617   3.657  -6.906  0.00  0.00    -0.073 S 
ATOM      4  C   UNL     1      -2.935   4.136  -6.604  0.00  0.00    +0.117 A 
ATOM      5  C   UNL     1      -2.357   4.131  -7.888  0.00  0.00    +0.076 A 
ATOM      6  C   UNL     1      -0.974   4.487  -7.949  0.00  0.00    +0.268 A 
ATOM      7  O   UNL     1      -0.389   4.510  -9.019  0.00  0.00    -0.267 OA
ATOM      8  N   UNL     1      -0.325   4.796  -6.811  0.00  0.00    -0.255 N 
ATOM      9  C   UNL     1      -0.964   4.775  -5.603  0.00  0.00    +0.178 A 
ATOM     10  N   UNL     1      -2.237   4.446  -5.518  0.00  0.00    -0.215 NA
ATOM     11  C   UNL     1      -5.636   3.057  -9.622  0.00  0.00    +0.052 C 
ENDROOT
BRANCH   8  12
ATOM     12  C   UNL     1       1.031   5.144  -6.866  0.00  0.00    +0.052 A 
ATOM     13  C   UNL     1       1.401   6.472  -7.036  0.00  0.00    +0.026 A 
ATOM     14  C   UNL     1       2.739   6.813  -7.084  0.00  0.00    +0.005 A 
ATOM     15  C   UNL     1       3.708   5.833  -6.974  0.00  0.00    -0.047 A 
ATOM     16  C   UNL     1       3.342   4.510  -6.809  0.00  0.00    -0.046 A 
ATOM     17  C   UNL     1       2.007   4.163  -6.755  0.00  0.00    +0.030 A 
ATOM     18  C   UNL     1       4.402   3.446  -6.689  0.00  0.00    +0.044 C 
ATOM     19  C   UNL     1       5.167   6.208  -7.033  0.00  0.00    +0.044 C 
ENDBRANCH   8  12
BRANCH   1  21
ATOM     20  C   UNL     1      -2.240   2.317 -10.702  0.00  0.00    +0.009 C 
ATOM     21  C   UNL     1      -2.770   3.717 -10.389  0.00  0.00    +0.033 C 
ENDBRANCH   1  21
BRANCH   9  22
ATOM     22  S   UNL     1      -0.073   5.188  -4.140  0.00  0.00    -0.078 S 
BRANCH  22  23
ATOM     23  C   UNL     1      -1.384   4.994  -2.908  0.00  0.00    +0.173 C 
BRANCH  23  24
ATOM     24  C   UNL     1      -0.837   5.304  -1.539  0.00  0.00    +0.226 C 
ATOM     25  O   UNL     1       0.325   5.625  -1.409  0.00  0.00    -0.275 OA
ATOM     26  N   UNL     1      -1.639   5.226  -0.459  0.00  0.00    -0.300 N 
ATOM     27  C   UNL     1      -3.049   4.839  -0.600  0.00  0.00    +0.108 C 
ATOM     28  C   UNL     1      -3.923   5.906   0.066  0.00  0.00    +0.020 C 
ATOM     29  C   UNL     1      -3.467   6.102   1.514  0.00  0.00    +0.016 C 
ATOM     30  C   UNL     1      -2.012   6.587   1.534  0.00  0.00    +0.092 C 
ATOM     31  C   UNL     1      -1.120   5.526   0.883  0.00  0.00    +0.120 C 
BRANCH  30  32
ATOM     32  C   UNL     1      -1.571   6.810   2.958  0.00  0.00    +0.215 C 
ATOM     33  O   UNL     1      -2.344   6.607   3.871  0.00  0.00    -0.276 OA
ATOM     34  N   UNL     1      -0.319   7.235   3.217  0.00  0.00    -0.329 N 
ATOM     35  H   UNL     1       0.003   7.397   4.256  0.00  0.00    +0.145 HD
ATOM     36  H   UNL     1       0.382   7.419   2.389  0.00  0.00    +0.145 HD
ENDBRANCH  30  32
ENDBRANCH  23  24
ENDBRANCH  22  23
ENDBRANCH   9  22
TORSDOF 6
