REMARK  Name = ZINC39960428
REMARK  5 active torsions:
REMARK  status: ('A' for Active; 'I' for Inactive)
REMARK    1  A    between atoms: C_7  and  C_10
REMARK    2  A    between atoms: C_10  and  C_11
REMARK    3  A    between atoms: C_15  and  N_18
REMARK    4  A    between atoms: C_19  and  C_21
REMARK    5  A    between atoms: C_26  and  N_27
REMARK                            x       y       z     vdW  Elec       q    Type
REMARK                         _______ _______ _______ _____ _____    ______ ____
ROOT
ATOM      1  C   UNL     1      -4.617   5.639  -0.989  0.00  0.00    +0.192 C 
ATOM      2  N   UNL     1      -5.400   6.826  -1.405  0.00  0.00    -0.175 NA
ATOM      3  N   UNL     1      -6.262   6.733  -2.257  0.00  0.00    -0.157 NA
ATOM      4  C   UNL     1      -6.551   5.432  -2.901  0.00  0.00    +0.275 C 
ATOM      5  S   UNL     1      -5.650   4.304  -1.743  0.00  0.00    -0.085 S 
ENDROOT
BRANCH   4   6
ATOM      6  N   UNL     1      -5.990   5.369  -4.253  0.00  0.00    -0.280 N 
ATOM      7  C   UNL     1      -6.598   6.016  -5.266  0.00  0.00    +0.248 C 
ATOM      8  O   UNL     1      -7.613   6.652  -5.058  0.00  0.00    -0.270 OA
ATOM      9  H   UNL     1      -5.180   4.861  -4.418  0.00  0.00    +0.152 HD
BRANCH   7  10
ATOM     10  C   UNL     1      -6.032   5.952  -6.630  0.00  0.00    +0.067 A 
ATOM     11  C   UNL     1      -4.705   6.321  -6.856  0.00  0.00    +0.015 A 
ATOM     12  C   UNL     1      -4.182   6.259  -8.131  0.00  0.00    +0.001 A 
ATOM     13  C   UNL     1      -4.971   5.832  -9.185  0.00  0.00    +0.002 A 
ATOM     14  C   UNL     1      -6.287   5.466  -8.968  0.00  0.00    +0.033 A 
ATOM     15  C   UNL     1      -6.820   5.517  -7.697  0.00  0.00    +0.138 A 
BRANCH  15  16
ATOM     16  N   UNL     1      -8.227   5.119  -7.465  0.00  0.00    +0.057 N 
ATOM     17  O   UNL     1      -8.944   4.861  -8.404  0.00  0.00    -0.126 OA
ATOM     18  O   UNL     1      -8.658   5.051  -6.338  0.00  0.00    -0.126 OA
ENDBRANCH  15  16
ENDBRANCH   7  10
ENDBRANCH   4   6
BRANCH   1  19
ATOM     19  C   UNL     1      -4.566   5.511   0.535  0.00  0.00    +0.077 C 
BRANCH  19  26
ATOM     20  C   UNL     1       0.017   4.709   1.105  0.00  0.00    +0.001 A 
ATOM     21  C   UNL     1       0.296   3.397   1.460  0.00  0.00    +0.002 A 
ATOM     22  C   UNL     1      -0.720   2.478   1.612  0.00  0.00    +0.026 A 
ATOM     23  C   UNL     1      -2.039   2.868   1.408  0.00  0.00    +0.047 A 
ATOM     24  N   UNL     1      -3.245   2.207   1.479  0.00  0.00    -0.360 N 
ATOM     25  C   UNL     1      -4.266   3.067   1.179  0.00  0.00    +0.087 A 
ATOM     26  C   UNL     1      -3.773   4.286   0.909  0.00  0.00    -0.019 A 
ATOM     27  C   UNL     1      -2.317   4.200   1.048  0.00  0.00    +0.003 A 
ATOM     28  C   UNL     1      -1.273   5.115   0.905  0.00  0.00    +0.010 A 
ATOM     29  H   UNL     1      -3.354   1.270   1.707  0.00  0.00    +0.165 HD
ENDBRANCH  19  26
ENDBRANCH   1  19
TORSDOF 5
