REMARK  Name = ZINC59795287
REMARK  11 active torsions:
REMARK  status: ('A' for Active; 'I' for Inactive)
REMARK    1  A    between atoms: C_1  and  C_2
REMARK    2  A    between atoms: C_2  and  C_3
REMARK    3  A    between atoms: C_2  and  C_4
REMARK    4  A    between atoms: C_2  and  N_5
REMARK    5  A    between atoms: N_5  and  S_6
REMARK    6  A    between atoms: S_6  and  C_9
REMARK    7  A    between atoms: C_12  and  N_15
REMARK    8  A    between atoms: C_16  and  C_18
REMARK    9  A    between atoms: C_18  and  S_19
REMARK   10  A    between atoms: S_19  and  C_20
REMARK   11  A    between atoms: C_23  and  C_26
REMARK                            x       y       z     vdW  Elec       q    Type
REMARK                         _______ _______ _______ _____ _____    ______ ____
ROOT
ATOM      1  N   UNL     1       5.215  -1.121   3.540  0.00  0.00    -0.285 N 
ATOM      2  C   UNL     1       4.672  -0.945   4.762  0.00  0.00    +0.227 C 
ATOM      3  O   UNL     1       3.517  -0.590   4.867  0.00  0.00    -0.275 OA
ATOM      4  H   UNL     1       6.115  -1.472   3.455  0.00  0.00    +0.155 HD
ENDROOT
BRANCH   1   8
ATOM      5  C   UNL     1       3.026  -0.155   0.130  0.00  0.00    +0.105 A 
ATOM      6  C   UNL     1       2.850   0.574   1.292  0.00  0.00    +0.030 A 
ATOM      7  C   UNL     1       3.574   0.256   2.424  0.00  0.00    +0.025 A 
ATOM      8  C   UNL     1       4.479  -0.797   2.395  0.00  0.00    +0.034 A 
ATOM      9  C   UNL     1       4.653  -1.527   1.227  0.00  0.00    +0.025 A 
ATOM     10  C   UNL     1       3.922  -1.207   0.099  0.00  0.00    +0.030 A 
BRANCH   5  11
ATOM     11  S   UNL     1       2.100   0.254  -1.312  0.00  0.00    +0.059 S 
ATOM     12  O   UNL     1       2.720  -0.422  -2.398  0.00  0.00    -0.153 OA
ATOM     13  O   UNL     1       1.921   1.663  -1.295  0.00  0.00    -0.153 OA
BRANCH  11  14
ATOM     14  N   UNL     1       0.596  -0.416  -1.135  0.00  0.00    -0.185 NA
ATOM     15  H   UNL     1      -0.179   0.155  -1.014  0.00  0.00    +0.149 HD
BRANCH  14  17
ATOM     16  C   UNL     1       1.423  -2.512  -0.183  0.00  0.00    +0.029 C 
ATOM     17  C   UNL     1       0.435  -1.872  -1.161  0.00  0.00    +0.032 C 
ATOM     18  C   UNL     1       0.708  -2.391  -2.574  0.00  0.00    +0.029 C 
ATOM     19  C   UNL     1      -0.994  -2.235  -0.752  0.00  0.00    +0.029 C 
ENDBRANCH  14  17
ENDBRANCH  11  14
ENDBRANCH   5  11
ENDBRANCH   1   8
BRANCH   2  20
ATOM     20  C   UNL     1       5.502  -1.188   5.996  0.00  0.00    +0.173 C 
BRANCH  20  21
ATOM     21  S   UNL     1       4.497  -0.868   7.472  0.00  0.00    -0.077 S 
BRANCH  21  22
ATOM     22  C   UNL     1       5.593  -1.193   8.813  0.00  0.00    +0.185 A 
ATOM     23  N   UNL     1       6.846  -1.577   8.710  0.00  0.00    -0.201 NA
ATOM     24  H   UNL     1       4.444  -0.817  10.509  0.00  0.00    +0.191 HD
ATOM     25  C   UNL     1       7.373  -1.728   9.934  0.00  0.00    +0.182 A 
ATOM     26  N   UNL     1       6.456  -1.440  10.830  0.00  0.00    -0.152 NA
ATOM     27  N   UNL     1       5.294  -1.085  10.127  0.00  0.00    -0.253 N 
BRANCH  25  28
ATOM     28  C   UNL     1       8.765  -2.151  10.229  0.00  0.00    +0.021 A 
ATOM     29  C   UNL     1       9.648  -2.424   9.186  0.00  0.00    +0.013 A 
ATOM     30  C   UNL     1      10.941  -2.817   9.464  0.00  0.00    +0.021 A 
ATOM     31  C   UNL     1      11.361  -2.941  10.778  0.00  0.00    +0.041 A 
ATOM     32  C   UNL     1      10.487  -2.672  11.817  0.00  0.00    +0.021 A 
ATOM     33  C   UNL     1       9.194  -2.272  11.549  0.00  0.00    +0.013 A 
ATOM     34 CL   UNL     1      12.989  -3.436  11.122  0.00  0.00    -0.084 Cl
ENDBRANCH  25  28
ENDBRANCH  21  22
ENDBRANCH  20  21
ENDBRANCH   2  20
TORSDOF 8
