REMARK  Name = ZINC11981014
REMARK  9 active torsions:
REMARK  status: ('A' for Active; 'I' for Inactive)
REMARK    1  A    between atoms: C_1  and  C_2
REMARK    2  A    between atoms: C_2  and  C_4
REMARK    3  A    between atoms: C_2  and  C_14
REMARK    4  A    between atoms: C_4  and  C_5
REMARK    5  A    between atoms: C_14  and  N_64
REMARK    6  A    between atoms: C_21  and  C_23
REMARK    7  A    between atoms: N_25  and  C_26
REMARK    8  A    between atoms: C_29  and  S_32
REMARK    9  A    between atoms: S_32  and  C_33
REMARK                            x       y       z     vdW  Elec       q    Type
REMARK                         _______ _______ _______ _____ _____    ______ ____
ROOT
ATOM      1  C   UNL     1      -1.949   2.295  -0.428  0.00  0.00    -0.078 C 
ATOM      2  C   UNL     1      -0.499   2.034  -0.850  0.00  0.00    -0.011 C 
ATOM      3  C   UNL     1       0.129   1.049   0.141  0.00  0.00    -0.021 C 
ATOM      4  C   UNL     1      -0.024   1.438   1.615  0.00  0.00    -0.011 C 
ATOM      5  C   UNL     1      -1.502   1.735   1.892  0.00  0.00    -0.078 C 
ATOM      6  C   UNL     1       0.093  -0.437  -0.211  0.00  0.00    +0.020 C 
ATOM      7  C   UNL     1       1.413   0.336  -0.278  0.00  0.00    +0.082 C 
ATOM      8  N   UNL     1      -1.958   2.794   0.965  0.00  0.00    +0.380 N 
ATOM      9  H   UNL     1      -1.318   3.594   1.035  0.00  0.00    -0.082 HD
ENDROOT
BRANCH   7  10
ATOM     10  C   UNL     1       2.437   0.059   0.792  0.00  0.00    +0.221 C 
ATOM     11  O   UNL     1       2.226   0.400   1.937  0.00  0.00    -0.275 OA
ATOM     12  N   UNL     1       3.588  -0.568   0.477  0.00  0.00    -0.285 N 
ATOM     13  H   UNL     1       3.725  -0.908  -0.421  0.00  0.00    +0.155 HD
BRANCH  12  14
ATOM     14  C   UNL     1       4.586  -0.729   1.448  0.00  0.00    +0.033 A 
ATOM     15  C   UNL     1       4.771   0.243   2.422  0.00  0.00    +0.024 A 
ATOM     16  C   UNL     1       5.750   0.083   3.381  0.00  0.00    +0.016 A 
ATOM     17  C   UNL     1       6.558  -1.048   3.366  0.00  0.00    +0.008 A 
ATOM     18  C   UNL     1       6.377  -2.018   2.388  0.00  0.00    +0.016 A 
ATOM     19  C   UNL     1       5.393  -1.859   1.432  0.00  0.00    +0.024 A 
BRANCH  17  20
ATOM     20  S   UNL     1       7.814  -1.250   4.586  0.00  0.00    -0.129 S 
ATOM     21  C   UNL     1       7.668   0.236   5.616  0.00  0.00    +0.090 C 
ENDBRANCH  17  20
ENDBRANCH  12  14
ENDBRANCH   7  10
BRANCH   8  22
ATOM     22  C   UNL     1      -3.318   3.235   1.333  0.00  0.00    -0.075 C 
BRANCH  22  24
ATOM     23  C   UNL     1      -2.345   4.787   3.032  0.00  0.00    +0.006 C 
ATOM     24  C   UNL     1      -3.328   3.636   2.809  0.00  0.00    -0.026 C 
BRANCH  24  25
ATOM     25  C   UNL     1      -4.736   4.084   3.207  0.00  0.00    +0.036 C 
BRANCH  25  26
ATOM     26  C   UNL     1      -4.775   4.362   4.688  0.00  0.00    -0.043 A 
ATOM     27  C   UNL     1      -5.104   3.350   5.571  0.00  0.00    +0.007 A 
ATOM     28  C   UNL     1      -5.137   3.599   6.930  0.00  0.00    +0.050 A 
ATOM     29  C   UNL     1      -4.851   4.866   7.410  0.00  0.00    +0.166 A 
ATOM     30  C   UNL     1      -4.525   5.887   6.520  0.00  0.00    +0.166 A 
ATOM     31  C   UNL     1      -4.489   5.629   5.159  0.00  0.00    +0.053 A 
ATOM     32  O   UNL     1      -4.290   7.028   7.231  0.00  0.00    -0.453 OA
ATOM     33  C   UNL     1      -4.074   6.597   8.588  0.00  0.00    +0.466 C 
ATOM     34  O   UNL     1      -4.819   5.368   8.679  0.00  0.00    -0.453 OA
ENDBRANCH  25  26
ENDBRANCH  24  25
ENDBRANCH  22  24
ENDBRANCH   8  22
TORSDOF 7
