REMARK  Name = ZINC40172738
REMARK  12 active torsions:
REMARK  status: ('A' for Active; 'I' for Inactive)
REMARK    1  A    between atoms: C_1  and  C_2
REMARK    2  A    between atoms: C_2  and  C_3
REMARK    3  A    between atoms: C_3  and  C_5
REMARK    4  A    between atoms: C_3  and  N_21
REMARK    5  A    between atoms: N_7  and  C_8
REMARK    6  A    between atoms: C_9  and  C_17
REMARK    7  A    between atoms: C_17  and  O_19
REMARK    8  A    between atoms: O_19  and  C_20
REMARK    9  A    between atoms: C_25  and  S_26
REMARK   10  A    between atoms: S_26  and  C_27
REMARK   11  A    between atoms: C_27  and  C_28
REMARK   12  A    between atoms: C_28  and  C_29
REMARK                            x       y       z     vdW  Elec       q    Type
REMARK                         _______ _______ _______ _____ _____    ______ ____
ROOT
ATOM      1  C   UNL     1       0.737  -0.607  -1.198  0.00  0.00    +0.178 C 
ENDROOT
BRANCH   1   2
ATOM      2  N   UNL     1       0.545  -2.059  -1.234  0.00  0.00    -0.279 N 
ATOM      3  C   UNL     1       0.916  -2.942  -0.260  0.00  0.00    +0.216 A 
ATOM      4  N   UNL     1       0.578  -4.145  -0.653  0.00  0.00    -0.113 NA
ATOM      5  N   UNL     1      -0.026  -4.035  -1.913  0.00  0.00    -0.121 NA
ATOM      6  C   UNL     1      -0.041  -2.767  -2.245  0.00  0.00    +0.194 A 
ATOM      7  N   UNL     1       1.542  -2.621   0.938  0.00  0.00    -0.328 N 
ATOM      8  H   UNL     1       1.754  -1.696   1.142  0.00  0.00    +0.145 HD
ATOM      9  H   UNL     1       1.768  -3.321   1.570  0.00  0.00    +0.145 HD
BRANCH   6  10
ATOM     10  S   UNL     1      -0.700  -2.094  -3.734  0.00  0.00    -0.086 S 
BRANCH  10  11
ATOM     11  C   UNL     1      -1.320  -3.542  -4.633  0.00  0.00    +0.082 C 
BRANCH  11  12
ATOM     12  C   UNL     1      -1.927  -3.094  -5.965  0.00  0.00    +0.046 C 
BRANCH  12  13
ATOM     13  C   UNL     1      -2.442  -4.297  -6.712  0.00  0.00    -0.047 A 
ATOM     14  C   UNL     1      -1.610  -4.980  -7.579  0.00  0.00    +0.003 A 
ATOM     15  C   UNL     1      -2.083  -6.084  -8.265  0.00  0.00    +0.000 A 
ATOM     16  C   UNL     1      -3.387  -6.505  -8.082  0.00  0.00    +0.000 A 
ATOM     17  C   UNL     1      -4.218  -5.822  -7.214  0.00  0.00    +0.000 A 
ATOM     18  C   UNL     1      -3.744  -4.721  -6.526  0.00  0.00    +0.003 A 
ENDBRANCH  12  13
ENDBRANCH  11  12
ENDBRANCH  10  11
ENDBRANCH   6  10
ENDBRANCH   1   2
BRANCH   1  19
ATOM     19  C   UNL     1       2.208  -0.296  -1.092  0.00  0.00    +0.241 C 
ATOM     20  O   UNL     1       3.021  -1.196  -1.124  0.00  0.00    -0.273 OA
ATOM     21  N   UNL     1       2.620   0.980  -0.963  0.00  0.00    -0.278 N 
ATOM     22  H   UNL     1       1.977   1.704  -1.010  0.00  0.00    +0.155 HD
BRANCH  21  23
ATOM     23  C   UNL     1       3.963   1.258  -0.762  0.00  0.00    +0.086 A 
ATOM     24  C   UNL     1       4.563   2.498  -0.603  0.00  0.00    +0.091 A 
ATOM     25  C   UNL     1       6.002   2.519  -0.405  0.00  0.00    -0.021 A 
ATOM     26  C   UNL     1       6.577   1.298  -0.403  0.00  0.00    -0.004 A 
ATOM     27  S   UNL     1       5.237   0.170  -0.649  0.00  0.00    -0.077 S 
ATOM     28  C   UNL     1       8.032   0.988  -0.226  0.00  0.00    +0.043 C 
ATOM     29  C   UNL     1       8.828   2.287  -0.422  0.00  0.00    +0.005 C 
ATOM     30  C   UNL     1       8.175   3.398   0.404  0.00  0.00    +0.005 C 
ATOM     31  C   UNL     1       6.828   3.783  -0.213  0.00  0.00    +0.037 C 
BRANCH  24  32
ATOM     32  C   UNL     1       3.779   3.735  -0.634  0.00  0.00    +0.342 C 
ATOM     33  O   UNL     1       3.311   4.184   0.396  0.00  0.00    -0.245 OA
BRANCH  32  34
ATOM     34  O   UNL     1       3.575   4.376  -1.803  0.00  0.00    -0.464 OA
ATOM     35  C   UNL     1       2.801   5.576  -1.759  0.00  0.00    +0.280 C 
ENDBRANCH  32  34
ENDBRANCH  24  32
ENDBRANCH  21  23
ENDBRANCH   1  19
BRANCH   1  37
ATOM     36  C   UNL     1      -1.502  -0.218  -0.161  0.00  0.00    +0.006 C 
ATOM     37  C   UNL     1       0.005  -0.025   0.014  0.00  0.00    +0.031 C 
ENDBRANCH   1  37
TORSDOF 10
