REMARK  Name = ZINC64403262
REMARK  10 active torsions:
REMARK  status: ('A' for Active; 'I' for Inactive)
REMARK    1  A    between atoms: C_1  and  C_2
REMARK    2  A    between atoms: C_4  and  N_8
REMARK    3  A    between atoms: C_9  and  C_11
REMARK    4  A    between atoms: C_11  and  S_12
REMARK    5  A    between atoms: S_12  and  C_13
REMARK    6  A    between atoms: C_17  and  O_35
REMARK    7  A    between atoms: C_18  and  O_33
REMARK    8  A    between atoms: C_25  and  C_27
REMARK    9  A    between atoms: O_33  and  C_34
REMARK   10  A    between atoms: O_35  and  C_36
REMARK                            x       y       z     vdW  Elec       q    Type
REMARK                         _______ _______ _______ _____ _____    ______ ____
ROOT
ATOM      1  C   UNL     1      -2.847  -7.332   3.398  0.00  0.00    +0.176 C 
ATOM      2  N   UNL     1      -2.746  -6.674   4.541  0.00  0.00    -0.224 NA
ATOM      3  C   UNL     1      -3.060  -7.275   5.733  0.00  0.00    +0.077 A 
ATOM      4  C   UNL     1      -2.600  -6.711   6.927  0.00  0.00    +0.077 A 
ATOM      5  C   UNL     1      -2.914  -7.302   8.137  0.00  0.00    +0.164 A 
ATOM      6  C   UNL     1      -3.688  -8.459   8.172  0.00  0.00    +0.162 A 
ATOM      7  C   UNL     1      -4.144  -9.023   6.990  0.00  0.00    +0.058 A 
ATOM      8  C   UNL     1      -3.832  -8.441   5.783  0.00  0.00    +0.023 A 
ATOM      9  C   UNL     1      -4.306  -9.050   4.486  0.00  0.00    +0.223 C 
ATOM     10  N   UNL     1      -3.329  -8.611   3.463  0.00  0.00    -0.203 N 
ATOM     11  N   UNL     1      -3.023  -9.760   2.743  0.00  0.00    -0.245 N 
ATOM     12  C   UNL     1      -3.443 -10.851   3.473  0.00  0.00    +0.118 C 
ATOM     13  N   UNL     1      -4.173 -10.510   4.500  0.00  0.00    -0.348 N 
ATOM     14  H   UNL     1      -2.589  -9.788   1.876  0.00  0.00    +0.172 HD
ATOM     15  H   UNL     1      -4.564 -11.109   5.154  0.00  0.00    +0.163 HD
ENDROOT
BRANCH  12  16
ATOM     16  C   UNL     1      -3.105 -12.252   3.134  0.00  0.00    +0.014 A 
ATOM     17  C   UNL     1      -3.989 -13.282   3.456  0.00  0.00    +0.011 A 
ATOM     18  C   UNL     1      -3.668 -14.586   3.138  0.00  0.00    +0.001 A 
ATOM     19  C   UNL     1      -2.474 -14.873   2.501  0.00  0.00    +0.000 A 
ATOM     20  C   UNL     1      -1.593 -13.855   2.180  0.00  0.00    +0.001 A 
ATOM     21  C   UNL     1      -1.905 -12.547   2.487  0.00  0.00    +0.011 A 
ENDBRANCH  12  16
BRANCH   6  22
ATOM     22  O   UNL     1      -3.996  -9.036   9.366  0.00  0.00    -0.491 OA
ATOM     23  C   UNL     1      -4.793 -10.221   9.327  0.00  0.00    +0.277 C 
ENDBRANCH   6  22
BRANCH   5  24
ATOM     24  O   UNL     1      -2.464  -6.752   9.296  0.00  0.00    -0.491 OA
ATOM     25  C   UNL     1      -1.675  -5.566   9.188  0.00  0.00    +0.277 C 
ENDBRANCH   5  24
BRANCH   1  26
ATOM     26  S   UNL     1      -2.389  -6.593   1.865  0.00  0.00    -0.080 S 
BRANCH  26  27
ATOM     27  C   UNL     1      -1.828  -4.931   2.329  0.00  0.00    +0.173 C 
BRANCH  27  29
ATOM     28  N   UNL     1      -0.946  -2.918   1.194  0.00  0.00    -0.288 N 
ATOM     29  C   UNL     1      -1.402  -4.182   1.093  0.00  0.00    +0.225 C 
ATOM     30  O   UNL     1      -1.470  -4.717   0.006  0.00  0.00    -0.275 OA
ATOM     31  H   UNL     1      -0.891  -2.491   2.063  0.00  0.00    +0.151 HD
BRANCH  28  35
ATOM     32  C   UNL     1      -0.018   1.503   0.010  0.00  0.00    +0.067 C 
ATOM     33  C   UNL     1       0.002  -0.004   0.002  0.00  0.00    +0.060 C 
ATOM     34  C   UNL     1      -1.086  -0.777   0.003  0.00  0.00    +0.045 C 
ATOM     35  C   UNL     1      -0.531  -2.190  -0.007  0.00  0.00    +0.239 C 
ATOM     36  N   UNL     1       0.926  -1.973  -0.013  0.00  0.00    -0.160 NA
ATOM     37  N   UNL     1       1.125  -0.756  -0.013  0.00  0.00    -0.157 NA
ENDBRANCH  28  35
ENDBRANCH  27  29
ENDBRANCH  26  27
ENDBRANCH   1  26
TORSDOF 7
