REMARK  Name = ZINC39272487
REMARK  3 active torsions:
REMARK  status: ('A' for Active; 'I' for Inactive)
REMARK    1  A    between atoms: C_6  and  C_7
REMARK    2  A    between atoms: N_12  and  C_13
REMARK    3  A    between atoms: N_15  and  C_16
REMARK                            x       y       z     vdW  Elec       q    Type
REMARK                         _______ _______ _______ _____ _____    ______ ____
ROOT
ATOM      1  C   UNL     1      -1.296  -0.776   0.012  0.00  0.00    +0.193 C 
ATOM      2  N   UNL     1      -1.109  -2.124   0.597  0.00  0.00    -0.289 N 
ATOM      3  N   UNL     1      -1.314  -3.090  -0.104  0.00  0.00    -0.153 NA
ATOM      4  C   UNL     1      -1.713  -3.030  -1.421  0.00  0.00    +0.203 C 
ATOM      5  N   UNL     1      -1.962  -4.016  -2.263  0.00  0.00    -0.136 NA
ATOM      6  S   UNL     1      -1.809  -1.259  -1.692  0.00  0.00    -0.056 S 
ATOM      7  H   UNL     1      -0.828  -2.231   1.519  0.00  0.00    +0.184 HD
ENDROOT
BRANCH   1  13
ATOM      8  C   UNL     1      -0.032   1.385   0.009  0.00  0.00    +0.008 A 
ATOM      9  C   UNL     1       1.151   2.100  -0.003  0.00  0.00    +0.020 A 
ATOM     10  C   UNL     1       2.362   1.431  -0.025  0.00  0.00    +0.041 A 
ATOM     11  C   UNL     1       2.388   0.048  -0.035  0.00  0.00    +0.020 A 
ATOM     12  C   UNL     1       1.205  -0.665  -0.023  0.00  0.00    +0.008 A 
ATOM     13  C   UNL     1      -0.005   0.003  -0.001  0.00  0.00    -0.013 A 
ATOM     14 CL   UNL     1       3.849   2.328  -0.040  0.00  0.00    -0.084 Cl
ENDBRANCH   1  13
BRANCH   5  15
ATOM     15  C   UNL     1      -2.345  -3.745  -3.522  0.00  0.00    +0.330 C 
ATOM     16  O   UNL     1      -2.464  -2.589  -3.887  0.00  0.00    -0.250 OA
ATOM     17  N   UNL     1      -2.599  -4.752  -4.381  0.00  0.00    -0.268 N 
ATOM     18  H   UNL     1      -2.440  -5.670  -4.112  0.00  0.00    +0.156 HD
BRANCH  17  19
ATOM     19  C   UNL     1      -3.091  -4.473  -5.661  0.00  0.00    +0.036 A 
ATOM     20  C   UNL     1      -4.001  -5.334  -6.260  0.00  0.00    +0.025 A 
ATOM     21  C   UNL     1      -4.485  -5.057  -7.523  0.00  0.00    +0.023 A 
ATOM     22  C   UNL     1      -4.064  -3.922  -8.193  0.00  0.00    +0.059 A 
ATOM     23  C   UNL     1      -3.157  -3.061  -7.599  0.00  0.00    +0.061 A 
ATOM     24  C   UNL     1      -2.674  -3.331  -6.332  0.00  0.00    +0.044 A 
ATOM     25 CL   UNL     1      -2.631  -1.638  -8.443  0.00  0.00    -0.082 Cl
ATOM     26 CL   UNL     1      -4.675  -3.576  -9.781  0.00  0.00    -0.082 Cl
ENDBRANCH  17  19
ENDBRANCH   5  15
TORSDOF 3
