REMARK  Name = ZINC06410017
REMARK  13 active torsions:
REMARK  status: ('A' for Active; 'I' for Inactive)
REMARK    1  A    between atoms: C_1  and  C_2
REMARK    2  A    between atoms: C_7  and  C_14
REMARK    3  A    between atoms: C_14  and  C_16
REMARK    4  A    between atoms: C_14  and  N_70
REMARK    5  A    between atoms: N_20  and  C_21
REMARK    6  A    between atoms: C_21  and  C_22
REMARK    7  A    between atoms: C_22  and  O_23
REMARK    8  A    between atoms: O_23  and  C_24
REMARK    9  A    between atoms: C_25  and  C_26
REMARK   10  A    between atoms: C_25  and  N_70
REMARK   11  A    between atoms: C_26  and  C_27
REMARK   12  A    between atoms: C_33  and  C_34
REMARK   13  A    between atoms: C_33  and  N_70
REMARK                            x       y       z     vdW  Elec       q    Type
REMARK                         _______ _______ _______ _____ _____    ______ ____
ROOT
ATOM      1  C   UNL     1      -4.827   0.824   0.179  0.00  0.00    +0.039 C 
ENDROOT
BRANCH   1   8
ATOM      2  C   UNL     1       0.503   6.748  -0.176  0.00  0.00    +0.044 C 
ATOM      3  C   UNL     1      -0.550   5.681  -0.332  0.00  0.00    -0.048 A 
ATOM      4  C   UNL     1      -1.205   5.535  -1.548  0.00  0.00    +0.004 A 
ATOM      5  C   UNL     1      -2.162   4.574  -1.710  0.00  0.00    +0.010 A 
ATOM      6  C   UNL     1      -2.490   3.734  -0.641  0.00  0.00    -0.001 A 
ATOM      7  C   UNL     1      -3.508   2.691  -0.781  0.00  0.00    +0.017 A 
ATOM      8  C   UNL     1      -3.780   1.904   0.288  0.00  0.00    +0.011 A 
ATOM      9  C   UNL     1      -3.088   2.091   1.504  0.00  0.00    +0.251 A 
ATOM     10  O   UNL     1      -3.348   1.372   2.453  0.00  0.00    -0.268 OA
ATOM     11  N   UNL     1      -2.148   3.043   1.641  0.00  0.00    -0.322 N 
ATOM     12  H   UNL     1      -1.691   3.144   2.490  0.00  0.00    +0.169 HD
ATOM     13  C   UNL     1      -1.825   3.876   0.592  0.00  0.00    +0.049 A 
ATOM     14  C   UNL     1      -0.853   4.862   0.733  0.00  0.00    +0.029 A 
ENDBRANCH   1   8
BRANCH   1  15
ATOM     15  C   UNL     1      -5.606   1.008  -1.098  0.00  0.00    +0.143 A 
ATOM     16  N   UNL     1      -6.228   2.094  -1.486  0.00  0.00    -0.115 NA
ATOM     17  N   UNL     1      -6.774   1.854  -2.628  0.00  0.00    -0.023 NA
ATOM     18  N   UNL     1      -6.515   0.643  -2.979  0.00  0.00    -0.044 NA
ATOM     19  N   UNL     1      -5.793   0.090  -2.064  0.00  0.00    -0.228 N 
BRANCH  19  20
ATOM     20  C   UNL     1      -5.276  -1.281  -2.074  0.00  0.00    +0.175 C 
BRANCH  20  21
ATOM     21  C   UNL     1      -6.293  -2.214  -1.412  0.00  0.00    +0.183 C 
BRANCH  21  22
ATOM     22  O   UNL     1      -5.789  -3.551  -1.422  0.00  0.00    -0.381 OA
ATOM     23  C   UNL     1      -6.667  -4.507  -0.824  0.00  0.00    +0.194 C 
ENDBRANCH  21  22
ENDBRANCH  20  21
ENDBRANCH  19  20
ENDBRANCH   1  15
BRANCH   1  24
ATOM     24  N   UNL     1      -5.724   0.912   1.350  0.00  0.00    +0.392 N 
ATOM     25  H   UNL     1      -5.155   0.999   2.200  0.00  0.00    -0.080 HD
BRANCH  24  26
ATOM     26  C   UNL     1      -6.549  -0.310   1.447  0.00  0.00    -0.072 C 
BRANCH  26  27
ATOM     27  C   UNL     1      -7.311  -0.288   2.774  0.00  0.00    +0.016 C 
BRANCH  27  28
ATOM     28  C   UNL     1      -8.038  -1.595   2.958  0.00  0.00    -0.049 A 
ATOM     29  C   UNL     1      -9.331  -1.739   2.489  0.00  0.00    +0.003 A 
ATOM     30  C   UNL     1      -9.996  -2.940   2.654  0.00  0.00    +0.000 A 
ATOM     31  C   UNL     1      -9.372  -3.993   3.296  0.00  0.00    +0.000 A 
ATOM     32  C   UNL     1      -8.081  -3.847   3.769  0.00  0.00    +0.000 A 
ATOM     33  C   UNL     1      -7.414  -2.648   3.600  0.00  0.00    +0.003 A 
ENDBRANCH  27  28
ENDBRANCH  26  27
ENDBRANCH  24  26
BRANCH  24  34
ATOM     34  C   UNL     1      -6.594   2.101   1.232  0.00  0.00    -0.042 C 
BRANCH  34  35
ATOM     35  C   UNL     1      -5.816   3.314   1.672  0.00  0.00    -0.064 A 
ATOM     36  C   UNL     1      -5.679   3.596   3.018  0.00  0.00    +0.004 A 
ATOM     37  C   UNL     1      -4.961   4.706   3.423  0.00  0.00    +0.038 A 
ATOM     38  C   UNL     1      -4.388   5.540   2.478  0.00  0.00    +0.123 A 
ATOM     39  C   UNL     1      -4.530   5.260   1.130  0.00  0.00    +0.038 A 
ATOM     40  C   UNL     1      -5.244   4.147   0.728  0.00  0.00    +0.004 A 
ATOM     41  F   UNL     1      -3.690   6.628   2.873  0.00  0.00    -0.205 F 
ENDBRANCH  34  35
ENDBRANCH  24  34
ENDBRANCH   1  24
TORSDOF 11
