REMARK  Name = ZINC04067920
REMARK  14 active torsions:
REMARK  status: ('A' for Active; 'I' for Inactive)
REMARK    1  A    between atoms: C_1  and  C_2
REMARK    2  A    between atoms: C_2  and  C_3
REMARK    3  A    between atoms: C_3  and  C_5
REMARK    4  A    between atoms: C_3  and  O_6
REMARK    5  A    between atoms: O_6  and  C_7
REMARK    6  A    between atoms: C_7  and  C_9
REMARK    7  A    between atoms: C_10  and  C_40
REMARK    8  A    between atoms: C_14  and  C_16
REMARK    9  A    between atoms: C_19  and  O_22
REMARK   10  A    between atoms: O_22  and  C_23
REMARK   11  A    between atoms: C_23  and  C_25
REMARK   12  A    between atoms: C_29  and  C_32
REMARK   13  A    between atoms: C_35  and  O_38
REMARK   14  A    between atoms: O_38  and  C_39
REMARK                            x       y       z     vdW  Elec       q    Type
REMARK                         _______ _______ _______ _____ _____    ______ ____
ROOT
ATOM      1  C   UNL     1       1.540  -1.395  -3.681  0.00  0.00    +0.154 C 
ATOM      2  C   UNL     1       0.566  -1.935  -2.930  0.00  0.00    +0.031 C 
ATOM      3  N   UNL     1       0.413  -1.565  -1.623  0.00  0.00    -0.260 NA
ATOM      4  C   UNL     1       0.953  -0.395  -1.161  0.00  0.00    +0.049 C 
ATOM      5  C   UNL     1       1.945   0.217  -1.842  0.00  0.00    +0.025 C 
ATOM      6  C   UNL     1       2.488  -0.380  -3.116  0.00  0.00    +0.073 C 
ATOM      7  C   UNL     1       2.500   1.426  -1.385  0.00  0.00    +0.162 C 
ATOM      8  O   UNL     1       3.399   1.945  -2.016  0.00  0.00    -0.292 OA
ATOM      9  C   UNL     1       2.001   2.087  -0.130  0.00  0.00    +0.088 C 
ATOM     10  C   UNL     1       0.529   1.715   0.079  0.00  0.00    +0.032 C 
ATOM     11  C   UNL     1       0.414   0.191   0.120  0.00  0.00    +0.064 C 
ATOM     12  C   UNL     1      -0.365  -2.956  -3.532  0.00  0.00    +0.061 C 
ENDROOT
BRANCH   6  13
ATOM     13  C   UNL     1       3.806  -1.050  -2.825  0.00  0.00    -0.038 A 
ATOM     14  C   UNL     1       3.869  -2.082  -1.908  0.00  0.00    +0.008 A 
ATOM     15  C   UNL     1       5.075  -2.701  -1.644  0.00  0.00    +0.046 A 
ATOM     16  C   UNL     1       6.227  -2.279  -2.293  0.00  0.00    +0.132 A 
ATOM     17  C   UNL     1       6.162  -1.239  -3.209  0.00  0.00    +0.046 A 
ATOM     18  C   UNL     1       4.952  -0.627  -3.474  0.00  0.00    +0.008 A 
BRANCH  16  19
ATOM     19  O   UNL     1       7.416  -2.882  -2.030  0.00  0.00    -0.426 OA
BRANCH  19  20
ATOM     20  C   UNL     1       7.614  -4.098  -2.565  0.00  0.00    +0.309 C 
ATOM     21  O   UNL     1       6.721  -4.645  -3.168  0.00  0.00    -0.251 OA
ATOM     22  C   UNL     1       8.949  -4.780  -2.412  0.00  0.00    +0.136 C 
ENDBRANCH  19  20
ENDBRANCH  16  19
ENDBRANCH   6  13
BRANCH  10  23
ATOM     23  C   UNL     1       0.040   2.295   1.381  0.00  0.00    -0.043 A 
ATOM     24  C   UNL     1       0.656   1.945   2.568  0.00  0.00    +0.007 A 
ATOM     25  C   UNL     1       0.213   2.480   3.762  0.00  0.00    +0.046 A 
ATOM     26  C   UNL     1      -0.858   3.361   3.771  0.00  0.00    +0.120 A 
ATOM     27  C   UNL     1      -1.478   3.707   2.579  0.00  0.00    +0.046 A 
ATOM     28  C   UNL     1      -1.028   3.174   1.387  0.00  0.00    +0.007 A 
BRANCH  26  29
ATOM     29  O   UNL     1      -1.300   3.884   4.945  0.00  0.00    -0.495 OA
ATOM     30  C   UNL     1      -0.614   3.483   6.132  0.00  0.00    +0.277 C 
ENDBRANCH  26  29
ENDBRANCH  10  23
BRANCH   1  31
ATOM     31  C   UNL     1       1.673  -1.790  -5.033  0.00  0.00    +0.317 C 
ATOM     32  O   UNL     1       0.980  -2.687  -5.476  0.00  0.00    -0.250 OA
BRANCH  31  33
ATOM     33  O   UNL     1       2.568  -1.171  -5.832  0.00  0.00    -0.461 OA
BRANCH  33  34
ATOM     34  C   UNL     1       2.648  -1.621  -7.186  0.00  0.00    +0.173 C 
ATOM     35  C   UNL     1       3.682  -2.744  -7.290  0.00  0.00    +0.052 C 
BRANCH  34  37
ATOM     36  C   UNL     1       1.975   0.614  -8.079  0.00  0.00    +0.007 C 
ATOM     37  C   UNL     1       3.069  -0.457  -8.086  0.00  0.00    +0.041 C 
ENDBRANCH  34  37
ENDBRANCH  33  34
ENDBRANCH  31  33
ENDBRANCH   1  31
TORSDOF 9
