REMARK  Name = ZINC39675182
REMARK  12 active torsions:
REMARK  status: ('A' for Active; 'I' for Inactive)
REMARK    1  A    between atoms: C_1  and  C_2
REMARK    2  A    between atoms: C_2  and  C_4
REMARK    3  A    between atoms: C_2  and  N_14
REMARK    4  A    between atoms: C_4  and  C_5
REMARK    5  A    between atoms: C_5  and  C_6
REMARK    6  A    between atoms: C_9  and  O_12
REMARK    7  A    between atoms: O_12  and  C_13
REMARK    8  A    between atoms: C_15  and  C_17
REMARK    9  A    between atoms: C_28  and  C_30
REMARK   10  A    between atoms: C_35  and  O_36
REMARK   11  A    between atoms: O_36  and  C_37
REMARK   12  A    between atoms: C_37  and  C_39
REMARK                            x       y       z     vdW  Elec       q    Type
REMARK                         _______ _______ _______ _____ _____    ______ ____
ROOT
ATOM      1  C   UNL     1       2.990  -0.880  -2.817  0.00  0.00    +0.100 C 
ATOM      2  C   UNL     1       2.517  -2.346  -2.932  0.00  0.00    +0.121 C 
ATOM      3  N   UNL     1       3.735  -3.104  -3.304  0.00  0.00    -0.296 N 
ATOM      4  C   UNL     1       4.816  -2.481  -2.504  0.00  0.00    +0.115 C 
ATOM      5  C   UNL     1       4.499  -0.973  -2.535  0.00  0.00    -0.004 C 
ATOM      6  C   UNL     1       5.288  -0.291  -3.650  0.00  0.00    -0.010 C 
ATOM      7  C   UNL     1       6.782  -0.346  -3.319  0.00  0.00    -0.082 C 
ATOM      8  N   UNL     1       7.026   0.326  -2.037  0.00  0.00    +0.379 N 
ATOM      9  C   UNL     1       6.338  -0.391  -0.956  0.00  0.00    -0.082 C 
ATOM     10  C   UNL     1       4.826  -0.337  -1.187  0.00  0.00    -0.010 C 
ATOM     11  C   UNL     1       3.837  -4.129  -4.173  0.00  0.00    +0.250 C 
ATOM     12  O   UNL     1       4.895  -4.714  -4.302  0.00  0.00    -0.270 OA
ATOM     13  H   UNL     1       8.018   0.342  -1.851  0.00  0.00    -0.086 HD
ATOM     14  H   UNL     1       6.680   1.273  -2.084  0.00  0.00    -0.086 HD
ENDROOT
BRANCH  11  15
ATOM     15  C   UNL     1       2.664  -4.542  -4.968  0.00  0.00    +0.079 A 
ATOM     16  C   UNL     1       1.383  -4.475  -4.416  0.00  0.00    +0.017 A 
ATOM     17  C   UNL     1       0.291  -4.861  -5.164  0.00  0.00    +0.001 A 
ATOM     18  C   UNL     1       0.459  -5.316  -6.462  0.00  0.00    +0.004 A 
ATOM     19  C   UNL     1       1.720  -5.387  -7.019  0.00  0.00    +0.047 A 
ATOM     20  C   UNL     1       2.829  -4.998  -6.283  0.00  0.00    +0.144 A 
BRANCH  20  21
ATOM     21  O   UNL     1       4.069  -5.063  -6.831  0.00  0.00    -0.425 OA
BRANCH  21  22
ATOM     22  C   UNL     1       4.548  -3.964  -7.437  0.00  0.00    +0.309 C 
ATOM     23  O   UNL     1       3.921  -2.932  -7.402  0.00  0.00    -0.251 OA
ATOM     24  C   UNL     1       5.870  -4.019  -8.160  0.00  0.00    +0.136 C 
ENDBRANCH  21  22
ENDBRANCH  20  21
ENDBRANCH  11  15
BRANCH   1  26
ATOM     25  N   UNL     1       2.161   1.153  -1.677  0.00  0.00    -0.312 N 
ATOM     26  C   UNL     1       2.285  -0.189  -1.678  0.00  0.00    +0.218 C 
ATOM     27  O   UNL     1       1.829  -0.841  -0.763  0.00  0.00    -0.275 OA
ATOM     28  H   UNL     1       2.526   1.674  -2.410  0.00  0.00    +0.149 HD
BRANCH  25  30
ATOM     29  C   UNL     1       2.465   2.062   0.573  0.00  0.00    +0.028 C 
ATOM     30  C   UNL     1       1.476   1.825  -0.570  0.00  0.00    +0.070 C 
BRANCH  30  31
ATOM     31  C   UNL     1       0.922   3.167  -1.053  0.00  0.00    +0.026 C 
BRANCH  31  32
ATOM     32  C   UNL     1      -0.157   2.923  -2.109  0.00  0.00    +0.037 C 
BRANCH  32  33
ATOM     33  C   UNL     1      -0.703   4.245  -2.584  0.00  0.00    -0.047 A 
ATOM     34  C   UNL     1      -1.782   4.819  -1.938  0.00  0.00    +0.007 A 
ATOM     35  C   UNL     1      -2.285   6.030  -2.372  0.00  0.00    +0.046 A 
ATOM     36  C   UNL     1      -1.704   6.672  -3.456  0.00  0.00    +0.120 A 
ATOM     37  C   UNL     1      -0.621   6.095  -4.102  0.00  0.00    +0.046 A 
ATOM     38  C   UNL     1      -0.119   4.886  -3.661  0.00  0.00    +0.007 A 
BRANCH  36  39
ATOM     39  O   UNL     1      -2.197   7.864  -3.885  0.00  0.00    -0.495 OA
ATOM     40  C   UNL     1      -1.550   8.467  -5.007  0.00  0.00    +0.277 C 
ENDBRANCH  36  39
ENDBRANCH  32  33
ENDBRANCH  31  32
ENDBRANCH  30  31
ENDBRANCH  25  30
ENDBRANCH   1  26
TORSDOF 9
