REMARK  Name = ZINC36685120
REMARK  9 active torsions:
REMARK  status: ('A' for Active; 'I' for Inactive)
REMARK    1  A    between atoms: C_1  and  C_2
REMARK    2  A    between atoms: N_11  and  C_15
REMARK    3  A    between atoms: C_15  and  C_16
REMARK    4  A    between atoms: N_18  and  C_19
REMARK    5  A    between atoms: C_19  and  C_20
REMARK    6  A    between atoms: C_20  and  C_22
REMARK    7  A    between atoms: C_20  and  N_27
REMARK    8  A    between atoms: N_27  and  C_28
REMARK    9  A    between atoms: N_27  and  C_29
REMARK                            x       y       z     vdW  Elec       q    Type
REMARK                         _______ _______ _______ _____ _____    ______ ____
ROOT
ATOM      1  C   UNL     1       3.545   1.482   3.019  0.00  0.00    +0.213 C 
ENDROOT
BRANCH   1  11
ATOM      2  C   UNL     1      -0.122   1.434   0.527  0.00  0.00    +0.010 C 
ATOM      3  C   UNL     1      -0.050  -0.093   0.455  0.00  0.00    +0.018 C 
ATOM      4  C   UNL     1       0.529  -0.513  -0.898  0.00  0.00    +0.006 C 
ATOM      5  C   UNL     1       0.621  -2.039  -0.961  0.00  0.00    +0.000 C 
ATOM      6  C   UNL     1       1.540  -2.542   0.154  0.00  0.00    +0.003 C 
ATOM      7  C   UNL     1       0.966  -2.130   1.512  0.00  0.00    +0.035 C 
ATOM      8  C   UNL     1       0.845  -0.612   1.576  0.00  0.00    +0.115 C 
ATOM      9  C   UNL     1       2.211   0.031   1.502  0.00  0.00    +0.247 C 
ATOM     10  O   UNL     1       3.008  -0.043   0.592  0.00  0.00    -0.273 OA
ATOM     11  N   UNL     1       2.356   0.704   2.662  0.00  0.00    -0.215 N 
ATOM     12  C   UNL     1       1.278   0.574   3.446  0.00  0.00    +0.310 C 
ATOM     13  O   UNL     1       1.173   1.089   4.541  0.00  0.00    -0.252 OA
ATOM     14  N   UNL     1       0.324  -0.193   2.884  0.00  0.00    -0.285 N 
ATOM     15  H   UNL     1      -0.537  -0.423   3.267  0.00  0.00    +0.151 HD
ENDBRANCH   1  11
BRANCH   1  16
ATOM     16  C   UNL     1       3.378   2.902   2.544  0.00  0.00    +0.231 C 
ATOM     17  O   UNL     1       2.365   3.232   1.964  0.00  0.00    -0.274 OA
ATOM     18  N   UNL     1       4.354   3.805   2.764  0.00  0.00    -0.315 N 
ATOM     19  H   UNL     1       5.163   3.541   3.228  0.00  0.00    +0.149 HD
BRANCH  18  20
ATOM     20  C   UNL     1       4.191   5.186   2.302  0.00  0.00    +0.094 C 
BRANCH  20  21
ATOM     21  C   UNL     1       5.381   6.025   2.773  0.00  0.00    -0.014 C 
BRANCH  21  22
ATOM     22  C   UNL     1       6.642   5.519   2.122  0.00  0.00    -0.022 A 
ATOM     23  C   UNL     1       7.597   4.703   2.631  0.00  0.00    +0.009 A 
ATOM     24  C   UNL     1       8.681   4.367   1.841  0.00  0.00    +0.008 A 
ATOM     25  C   UNL     1       8.757   4.863   0.582  0.00  0.00    +0.045 A 
ATOM     26  S   UNL     1       7.262   5.834   0.478  0.00  0.00    -0.103 S 
ENDBRANCH  21  22
BRANCH  21  27
ATOM     27  N   UNL     1       5.167   7.430   2.402  0.00  0.00    +0.382 N 
ATOM     28  C   UNL     1       3.956   7.933   3.064  0.00  0.00    -0.096 C 
ATOM     29  C   UNL     1       6.324   8.230   2.825  0.00  0.00    -0.096 C 
ATOM     30  H   UNL     1       5.057   7.500   1.401  0.00  0.00    -0.082 HD
ENDBRANCH  21  27
ENDBRANCH  20  21
ENDBRANCH  18  20
ENDBRANCH   1  16
TORSDOF 6
