REMARK  Name = ZINC16688033
REMARK  8 active torsions:
REMARK  status: ('A' for Active; 'I' for Inactive)
REMARK    1  A    between atoms: C_1  and  C_2
REMARK    2  A    between atoms: C_2  and  O_3
REMARK    3  A    between atoms: O_3  and  P_4
REMARK    4  A    between atoms: P_4  and  O_6
REMARK    5  A    between atoms: O_6  and  P_7
REMARK    6  A    between atoms: P_7  and  O_9
REMARK    7  A    between atoms: O_9  and  C_10
REMARK    8  A    between atoms: C_10  and  C_11
REMARK                            x       y       z     vdW  Elec       q    Type
REMARK                         _______ _______ _______ _____ _____    ______ ____
ROOT
ATOM      1  O   UNL     1       0.564   0.856   4.972  0.00  0.00    -0.183 OA
ENDROOT
BRANCH   1   2
ATOM      2  P   UNL     1      -0.515   1.435   3.926  0.00  0.00    +0.513 P 
ATOM      3  O   UNL     1      -0.629   2.901   4.097  0.00  0.00    -0.224 OA
ATOM      4  O   UNL     1      -1.946   0.750   4.197  0.00  0.00    -0.116 OA
BRANCH   2   5
ATOM      5  O   UNL     1      -0.038   1.106   2.425  0.00  0.00    -0.285 OA
BRANCH   5   7
ATOM      6  C   UNL     1      -0.013   1.086   0.008  0.00  0.00    +0.035 C 
ATOM      7  C   UNL     1      -0.729   1.579   1.267  0.00  0.00    +0.169 C 
ENDBRANCH   5   7
ENDBRANCH   2   5
ENDBRANCH   1   2
BRANCH   1   8
ATOM      8  P   UNL     1       0.846   1.099   6.538  0.00  0.00    +0.513 P 
ATOM      9  O   UNL     1      -0.435   1.072   7.280  0.00  0.00    -0.224 OA
ATOM     10  O   UNL     1       1.553   2.531   6.741  0.00  0.00    -0.116 OA
BRANCH   8  11
ATOM     11  O   UNL     1       1.813  -0.061   7.095  0.00  0.00    -0.285 OA
BRANCH  11  12
ATOM     12  C   UNL     1       2.166  -0.185   8.475  0.00  0.00    +0.169 C 
ATOM     13  C   UNL     1       3.094  -1.387   8.658  0.00  0.00    +0.035 C 
ENDBRANCH  11  12
ENDBRANCH   8  11
ENDBRANCH   1   8
TORSDOF 6
