REMARK  Name = ZINC64890974
REMARK  7 active torsions:
REMARK  status: ('A' for Active; 'I' for Inactive)
REMARK    1  A    between atoms: C_1  and  C_2
REMARK    2  A    between atoms: C_5  and  C_9
REMARK    3  A    between atoms: C_11  and  C_14
REMARK    4  A    between atoms: N_26  and  C_27
REMARK    5  A    between atoms: C_27  and  C_28
REMARK    6  A    between atoms: C_28  and  C_29
REMARK    7  A    between atoms: C_28  and  C_30
REMARK                            x       y       z     vdW  Elec       q    Type
REMARK                         _______ _______ _______ _____ _____    ______ ____
ROOT
ATOM      1  C   UNL     1       0.102  -7.485   1.571  0.00  0.00    +0.025 A 
ATOM      2  C   UNL     1       0.094  -7.289   2.953  0.00  0.00    +0.014 A 
ATOM      3  C   UNL     1       0.108  -8.371   3.805  0.00  0.00    +0.028 A 
ATOM      4  C   UNL     1       0.131  -9.665   3.292  0.00  0.00    +0.068 A 
ATOM      5  C   UNL     1       0.139  -9.867   1.910  0.00  0.00    +0.067 A 
ATOM      6  C   UNL     1       0.118  -8.775   1.052  0.00  0.00    +0.039 A 
ATOM      7  N   UNL     1       0.161 -11.156   1.382  0.00  0.00    -0.316 N 
ATOM      8  H   UNL     1       0.167 -11.285   0.420  0.00  0.00    +0.169 HD
ATOM      9  C   UNL     1       0.176 -12.223   2.205  0.00  0.00    +0.314 A 
ATOM     10  O   UNL     1       0.196 -13.349   1.750  0.00  0.00    -0.262 OA
ATOM     11  C   UNL     1       0.167 -12.007   3.681  0.00  0.00    +0.316 A 
ATOM     12  O   UNL     1       0.180 -12.955   4.440  0.00  0.00    -0.262 OA
ATOM     13  N   UNL     1       0.146 -10.749   4.164  0.00  0.00    -0.302 N 
ENDROOT
BRANCH   1  16
ATOM     14  C   UNL     1       0.059  -4.253  -0.024  0.00  0.00    +0.259 A 
ATOM     15  N   UNL     1       0.069  -5.029   1.034  0.00  0.00    -0.187 NA
ATOM     16  C   UNL     1       0.086  -6.317   0.656  0.00  0.00    +0.202 A 
ATOM     17  N   UNL     1       0.086  -6.374  -0.654  0.00  0.00    -0.056 NA
ATOM     18  O   UNL     1       0.064  -5.033  -1.119  0.00  0.00    -0.332 OA
BRANCH  14  23
ATOM     19  C   UNL     1      -0.018   1.503   0.010  0.00  0.00    +0.047 C 
ATOM     20  C   UNL     1       0.002  -0.004   0.002  0.00  0.00    -0.015 A 
ATOM     21  C   UNL     1       0.006  -0.686  -1.201  0.00  0.00    +0.007 A 
ATOM     22  C   UNL     1       0.024  -2.066  -1.216  0.00  0.00    +0.014 A 
ATOM     23  C   UNL     1       0.040  -2.775  -0.014  0.00  0.00    +0.042 A 
ATOM     24  C   UNL     1       0.036  -2.083   1.198  0.00  0.00    +0.052 A 
ATOM     25  C   UNL     1       0.023  -0.700   1.200  0.00  0.00    +0.127 A 
ATOM     26  F   UNL     1       0.025  -0.028   2.371  0.00  0.00    -0.205 F 
ENDBRANCH  14  23
ENDBRANCH   1  16
BRANCH  13  27
ATOM     27  C   UNL     1       0.138 -10.522   5.612  0.00  0.00    +0.128 C 
BRANCH  27  28
ATOM     28  C   UNL     1      -1.307 -10.466   6.111  0.00  0.00    +0.003 C 
ATOM     29  C   UNL     1      -1.969 -11.831   5.912  0.00  0.00    +0.009 C 
ATOM     30  C   UNL     1      -1.319 -10.105   7.598  0.00  0.00    +0.009 C 
ENDBRANCH  27  28
ENDBRANCH  13  27
TORSDOF 4
