REMARK  Name = ZINC39686543
REMARK  12 active torsions:
REMARK  status: ('A' for Active; 'I' for Inactive)
REMARK    1  A    between atoms: C_1  and  C_2
REMARK    2  A    between atoms: C_2  and  C_3
REMARK    3  A    between atoms: C_3  and  C_4
REMARK    4  A    between atoms: C_3  and  C_6
REMARK    5  A    between atoms: C_4  and  C_5
REMARK    6  A    between atoms: C_10  and  C_19
REMARK    7  A    between atoms: N_21  and  C_22
REMARK    8  A    between atoms: C_22  and  C_24
REMARK    9  A    between atoms: C_22  and  C_25
REMARK   10  A    between atoms: C_25  and  C_26
REMARK   11  A    between atoms: C_31  and  O_32
REMARK   12  A    between atoms: O_32  and  C_33
REMARK                            x       y       z     vdW  Elec       q    Type
REMARK                         _______ _______ _______ _____ _____    ______ ____
ROOT
ATOM      1  C   UNL     1       1.287  -0.647   2.671  0.00  0.00    +0.219 C 
ATOM      2  O   UNL     1       1.037  -1.343   3.633  0.00  0.00    -0.275 OA
ATOM      3  N   UNL     1       1.667  -1.214   1.510  0.00  0.00    -0.300 N 
ATOM      4  C   UNL     1       2.125  -0.535   0.274  0.00  0.00    +0.121 C 
ATOM      5  C   UNL     1       3.276  -1.421  -0.254  0.00  0.00    +0.100 C 
ATOM      6  C   UNL     1       3.006  -2.813   0.341  0.00  0.00    -0.004 C 
ATOM      7  C   UNL     1       1.729  -2.659   1.181  0.00  0.00    +0.115 C 
ATOM      8  C   UNL     1       4.168  -3.241   1.232  0.00  0.00    -0.010 C 
ATOM      9  C   UNL     1       3.902  -4.651   1.767  0.00  0.00    -0.082 C 
ATOM     10  N   UNL     1       3.752  -5.582   0.642  0.00  0.00    +0.379 N 
ATOM     11  C   UNL     1       2.577  -5.217  -0.157  0.00  0.00    -0.082 C 
ATOM     12  C   UNL     1       2.786  -3.831  -0.773  0.00  0.00    -0.010 C 
ATOM     13  H   UNL     1       4.577  -5.543   0.063  0.00  0.00    -0.086 HD
ATOM     14  H   UNL     1       3.638  -6.520   0.997  0.00  0.00    -0.086 HD
ENDROOT
BRANCH   5  15
ATOM     15  C   UNL     1       4.605  -0.893   0.222  0.00  0.00    +0.218 C 
ATOM     16  O   UNL     1       4.686  -0.335   1.295  0.00  0.00    -0.275 OA
ATOM     17  N   UNL     1       5.703  -1.041  -0.546  0.00  0.00    -0.312 N 
ATOM     18  H   UNL     1       5.625  -1.418  -1.436  0.00  0.00    +0.149 HD
BRANCH  17  19
ATOM     19  C   UNL     1       7.014  -0.633  -0.036  0.00  0.00    +0.074 C 
ATOM     20  C   UNL     1       7.632  -1.784   0.760  0.00  0.00    +0.028 C 
BRANCH  19  21
ATOM     21  C   UNL     1       7.929  -0.275  -1.209  0.00  0.00    +0.060 C 
BRANCH  21  22
ATOM     22  C   UNL     1       7.364   0.915  -1.941  0.00  0.00    -0.004 A 
ATOM     23  C   UNL     1       6.659   0.733  -3.115  0.00  0.00    +0.007 A 
ATOM     24  C   UNL     1       6.141   1.824  -3.788  0.00  0.00    +0.000 A 
ATOM     25  C   UNL     1       6.326   3.100  -3.288  0.00  0.00    +0.004 A 
ATOM     26  C   UNL     1       7.030   3.287  -2.114  0.00  0.00    +0.046 A 
ATOM     27  C   UNL     1       7.546   2.193  -1.434  0.00  0.00    +0.123 A 
BRANCH  27  28
ATOM     28  O   UNL     1       8.234   2.374  -0.276  0.00  0.00    -0.495 OA
ATOM     29  C   UNL     1       8.383   3.718   0.187  0.00  0.00    +0.277 C 
ENDBRANCH  27  28
ENDBRANCH  21  22
ENDBRANCH  19  21
ENDBRANCH  17  19
ENDBRANCH   5  15
BRANCH   1  30
ATOM     30  C   UNL     1       1.172   0.852   2.776  0.00  0.00    +0.075 C 
BRANCH  30  32
ATOM     31  C   UNL     1      -1.312   0.640   2.618  0.00  0.00    +0.004 C 
ATOM     32  C   UNL     1      -0.077   1.322   2.027  0.00  0.00    +0.009 C 
ENDBRANCH  30  32
BRANCH  30  33
ATOM     33  C   UNL     1       1.065   1.254   4.248  0.00  0.00    +0.009 C 
ATOM     34  C   UNL     1       1.043   2.780   4.360  0.00  0.00    +0.004 C 
ENDBRANCH  30  33
ENDBRANCH   1  30
TORSDOF 8
