REMARK  Name = ZINC12583795
REMARK  6 active torsions:
REMARK  status: ('A' for Active; 'I' for Inactive)
REMARK    1  A    between atoms: C_1  and  C_2
REMARK    2  A    between atoms: C_3  and  C_12
REMARK    3  A    between atoms: C_5  and  C_7
REMARK    4  A    between atoms: C_12  and  N_47
REMARK    5  A    between atoms: C_18  and  C_20
REMARK    6  A    between atoms: C_20  and  C_21
REMARK                            x       y       z     vdW  Elec       q    Type
REMARK                         _______ _______ _______ _____ _____    ______ ____
ROOT
ATOM      1  C   UNL     1      -1.891   0.123  -1.442  0.00  0.00    -0.058 C 
ATOM      2  C   UNL     1      -1.904   0.121  -2.972  0.00  0.00    +0.085 C 
ATOM      3  N   UNL     1      -2.603  -1.061  -3.465  0.00  0.00    -0.318 N 
ATOM      4  C   UNL     1      -2.827  -2.141  -2.709  0.00  0.00    +0.200 C 
ATOM      5  O   UNL     1      -3.389  -3.093  -3.208  0.00  0.00    -0.278 OA
ATOM      6  C   UNL     1      -2.410  -2.225  -1.268  0.00  0.00    +0.024 C 
ATOM      7  H   UNL     1      -2.920  -1.064  -4.382  0.00  0.00    +0.149 HD
ATOM      8  N   UNL     1      -1.396  -1.192  -0.988  0.00  0.00    +0.392 N 
ATOM      9  H   UNL     1      -0.534  -1.420  -1.497  0.00  0.00    -0.080 HD
ENDROOT
BRANCH   8  10
ATOM     10  C   UNL     1      -1.101  -1.150   0.463  0.00  0.00    -0.018 C 
BRANCH  10  13
ATOM     11  C   UNL     1      -1.330   1.909   1.058  0.00  0.00    +0.088 C 
ATOM     12  C   UNL     1      -0.054   1.113   0.961  0.00  0.00    +0.124 A 
ATOM     13  C   UNL     1       0.046  -0.204   0.703  0.00  0.00    +0.066 A 
ATOM     14  N   UNL     1       1.349  -0.524   0.697  0.00  0.00    -0.213 NA
ATOM     15  C   UNL     1       2.050   0.561   0.945  0.00  0.00    +0.264 A 
ATOM     16  O   UNL     1       1.198   1.589   1.112  0.00  0.00    -0.438 OA
BRANCH  15  17
ATOM     17  C   UNL     1       3.515   0.637   1.025  0.00  0.00    +0.189 A 
ATOM     18  C   UNL     1       4.246   1.760   1.276  0.00  0.00    +0.055 A 
ATOM     19  C   UNL     1       5.599   1.374   1.265  0.00  0.00    +0.042 A 
ATOM     20  C   UNL     1       5.631   0.052   1.002  0.00  0.00    +0.196 A 
ATOM     21  O   UNL     1       4.372  -0.390   0.858  0.00  0.00    -0.458 OA
ENDBRANCH  15  17
ENDBRANCH  10  13
ENDBRANCH   8  10
BRANCH   6  22
ATOM     22  C   UNL     1      -1.805  -3.603  -0.993  0.00  0.00    +0.029 C 
BRANCH  22  23
ATOM     23  C   UNL     1      -0.575  -3.790  -1.843  0.00  0.00    -0.048 A 
ATOM     24  C   UNL     1      -0.670  -4.427  -3.066  0.00  0.00    +0.003 A 
ATOM     25  C   UNL     1       0.458  -4.594  -3.848  0.00  0.00    +0.000 A 
ATOM     26  C   UNL     1       1.682  -4.133  -3.402  0.00  0.00    +0.000 A 
ATOM     27  C   UNL     1       1.778  -3.501  -2.176  0.00  0.00    +0.000 A 
ATOM     28  C   UNL     1       0.650  -3.330  -1.397  0.00  0.00    +0.003 A 
ENDBRANCH  22  23
ENDBRANCH   6  22
TORSDOF 5
