REMARK  Name = ZINC19737307
REMARK  4 active torsions:
REMARK  status: ('A' for Active; 'I' for Inactive)
REMARK    1  A    between atoms: C_6  and  N_7
REMARK    2  A    between atoms: N_7  and  S_8
REMARK    3  A    between atoms: S_8  and  C_11
REMARK    4  A    between atoms: C_14  and  N_17
REMARK                            x       y       z     vdW  Elec       q    Type
REMARK                         _______ _______ _______ _____ _____    ______ ____
ROOT
ATOM      1  S   UNL     1       2.340  -2.796  -1.026  0.00  0.00    +0.072 S 
ATOM      2  O   UNL     1       2.180  -4.199  -0.863  0.00  0.00    -0.150 OA
ATOM      3  O   UNL     1       2.220  -2.157  -2.290  0.00  0.00    -0.150 OA
ENDROOT
BRANCH   1   4
ATOM      4  C   UNL     1       3.942  -2.397  -0.411  0.00  0.00    +0.109 A 
ATOM      5  C   UNL     1       4.543  -1.201  -0.784  0.00  0.00    +0.031 A 
ATOM      6  C   UNL     1       5.781  -0.876  -0.312  0.00  0.00    +0.030 A 
ATOM      7  C   UNL     1       6.459  -1.770   0.554  0.00  0.00    +0.074 A 
ATOM      8  C   UNL     1       5.834  -2.990   0.921  0.00  0.00    +0.030 A 
ATOM      9  C   UNL     1       4.593  -3.284   0.437  0.00  0.00    +0.031 A 
BRANCH   7  10
ATOM     10  N   UNL     1       7.663  -1.470   1.017  0.00  0.00    -0.197 NA
ATOM     11  C   UNL     1       8.209  -0.394   0.690  0.00  0.00    +0.041 C 
ATOM     12  S   UNL     1       8.886   0.944   0.282  0.00  0.00    +0.021 S 
ENDBRANCH   7  10
ENDBRANCH   1   4
BRANCH   1  13
ATOM     13  N   UNL     1       1.237  -2.075  -0.024  0.00  0.00    -0.216 N 
ATOM     14  H   UNL     1       0.547  -1.315  -0.421  0.00  0.00    +0.174 HD
BRANCH  13  20
ATOM     15  C   UNL     1       1.110  -1.445   2.303  0.00  0.00    +0.026 A 
ATOM     16  C   UNL     1       1.057  -1.799   3.637  0.00  0.00    +0.022 A 
ATOM     17  C   UNL     1       1.076  -3.134   4.001  0.00  0.00    +0.041 A 
ATOM     18  C   UNL     1       1.148  -4.117   3.030  0.00  0.00    +0.022 A 
ATOM     19  C   UNL     1       1.202  -3.769   1.695  0.00  0.00    +0.026 A 
ATOM     20  C   UNL     1       1.183  -2.430   1.327  0.00  0.00    +0.048 A 
ATOM     21 CL   UNL     1       1.010  -3.575   5.679  0.00  0.00    -0.084 Cl
ENDBRANCH  13  20
ENDBRANCH   1  13
TORSDOF 4
