REMARK  Name = ZINC36973848
REMARK  4 active torsions:
REMARK  status: ('A' for Active; 'I' for Inactive)
REMARK    1  A    between atoms: C_1  and  N_2
REMARK    2  A    between atoms: C_3  and  C_7
REMARK    3  A    between atoms: C_11  and  N_13
REMARK    4  A    between atoms: N_13  and  C_14
REMARK                            x       y       z     vdW  Elec       q    Type
REMARK                         _______ _______ _______ _____ _____    ______ ____
ROOT
ATOM      1  C   UNL     1      -0.193  -0.510  -2.520  0.00  0.00    +0.022 A 
ATOM      2  C   UNL     1      -0.441   0.811  -2.893  0.00  0.00    +0.012 A 
ATOM      3  C   UNL     1      -0.552   1.143  -4.228  0.00  0.00    +0.002 A 
ATOM      4  C   UNL     1      -0.419   0.169  -5.200  0.00  0.00    +0.023 A 
ATOM      5  C   UNL     1      -0.172  -1.150  -4.839  0.00  0.00    +0.028 A 
ATOM      6  C   UNL     1      -0.053  -1.491  -3.500  0.00  0.00    +0.034 A 
ENDROOT
BRANCH   1   9
ATOM      7  C   UNL     1      -1.285   1.109  -0.080  0.00  0.00    +0.176 C 
ATOM      8  N   UNL     1      -0.551  -0.158  -0.037  0.00  0.00    -0.228 N 
ATOM      9  C   UNL     1      -0.073  -0.868  -1.089  0.00  0.00    +0.182 A 
ATOM     10  N   UNL     1       0.518  -1.936  -0.596  0.00  0.00    -0.108 NA
ATOM     11  N   UNL     1       0.442  -1.941   0.686  0.00  0.00    -0.023 NA
ATOM     12  N   UNL     1      -0.186  -0.895   1.103  0.00  0.00    -0.044 NA
ENDBRANCH   1   9
BRANCH   5  13
ATOM     13  N   UNL     1      -0.038  -2.131  -5.824  0.00  0.00    -0.340 N 
ATOM     14  H   UNL     1       0.134  -3.051  -5.572  0.00  0.00    +0.146 HD
BRANCH  13  15
ATOM     15  C   UNL     1      -0.160  -1.769  -7.239  0.00  0.00    +0.081 C 
ATOM     16  C   UNL     1      -0.657  -2.988  -8.015  0.00  0.00    +0.033 C 
ATOM     17  C   UNL     1      -0.153  -2.933  -9.484  0.00  0.00    +0.071 C 
ATOM     18  S   UNL     1       1.556  -2.294  -9.200  0.00  0.00    -0.159 S 
ATOM     19  C   UNL     1       1.203  -1.245  -7.733  0.00  0.00    +0.091 C 
ENDBRANCH  13  15
ENDBRANCH   5  13
TORSDOF 3
