REMARK  Name = ZINC03243679
REMARK  14 active torsions:
REMARK  status: ('A' for Active; 'I' for Inactive)
REMARK    1  A    between atoms: C_1  and  C_2
REMARK    2  A    between atoms: C_5  and  S_8
REMARK    3  A    between atoms: S_8  and  O_11
REMARK    4  A    between atoms: O_11  and  C_12
REMARK    5  A    between atoms: C_13  and  C_32
REMARK    6  A    between atoms: C_15  and  N_21
REMARK    7  A    between atoms: C_17  and  C_18
REMARK    8  A    between atoms: C_18  and  C_19
REMARK    9  A    between atoms: C_18  and  C_20
REMARK   10  A    between atoms: N_21  and  C_22
REMARK   11  A    between atoms: C_25  and  S_28
REMARK   12  A    between atoms: S_28  and  N_31
REMARK   13  A    between atoms: C_32  and  C_33
REMARK   14  A    between atoms: C_32  and  C_34
REMARK                            x       y       z     vdW  Elec       q    Type
REMARK                         _______ _______ _______ _____ _____    ______ ____
ROOT
ATOM      1  C   UNL     1      -0.059  -2.122  -0.215  0.00  0.00    +0.164 A 
ATOM      2  C   UNL     1       1.315  -2.254  -0.076  0.00  0.00    +0.002 A 
ATOM      3  C   UNL     1       1.837  -2.958   0.991  0.00  0.00    +0.030 A 
ATOM      4  C   UNL     1       0.986  -3.541   1.921  0.00  0.00    +0.032 A 
ATOM      5  C   UNL     1      -0.390  -3.412   1.778  0.00  0.00    +0.030 A 
ATOM      6  C   UNL     1      -0.910  -2.704   0.713  0.00  0.00    +0.002 A 
ENDROOT
BRANCH   6   7
ATOM      7  C   UNL     1      -2.403  -2.564   0.558  0.00  0.00    +0.017 C 
ATOM      8  C   UNL     1      -3.034  -3.952   0.423  0.00  0.00    +0.012 C 
ATOM      9  C   UNL     1      -2.979  -1.859   1.788  0.00  0.00    +0.012 C 
ENDBRANCH   6   7
BRANCH   2  10
ATOM     10  C   UNL     1       2.238  -1.626  -1.088  0.00  0.00    +0.017 C 
ATOM     11  C   UNL     1       3.255  -0.738  -0.369  0.00  0.00    +0.012 C 
ATOM     12  C   UNL     1       2.974  -2.724  -1.858  0.00  0.00    +0.012 C 
ENDBRANCH   2  10
BRANCH   4  13
ATOM     13  N   UNL     1       1.514  -4.258   3.000  0.00  0.00    -0.314 N 
ATOM     14  H   UNL     1       0.972  -4.415   3.790  0.00  0.00    +0.152 HD
BRANCH  13  15
ATOM     15  C   UNL     1       2.820  -4.749   2.941  0.00  0.00    +0.031 A 
ATOM     16  C   UNL     1       3.346  -5.185   1.731  0.00  0.00    +0.025 A 
ATOM     17  C   UNL     1       4.640  -5.663   1.674  0.00  0.00    +0.030 A 
ATOM     18  C   UNL     1       5.409  -5.719   2.822  0.00  0.00    +0.105 A 
ATOM     19  C   UNL     1       4.887  -5.292   4.029  0.00  0.00    +0.030 A 
ATOM     20  C   UNL     1       3.596  -4.807   4.092  0.00  0.00    +0.025 A 
BRANCH  18  21
ATOM     21  S   UNL     1       7.057  -6.337   2.747  0.00  0.00    +0.056 S 
ATOM     22  O   UNL     1       7.495  -6.164   1.406  0.00  0.00    -0.153 OA
ATOM     23  O   UNL     1       7.752  -5.778   3.853  0.00  0.00    -0.153 OA
BRANCH  21  24
ATOM     24  N   UNL     1       6.981  -7.970   3.012  0.00  0.00    -0.204 NA
ATOM     25  H   UNL     1       6.124  -8.396   3.169  0.00  0.00    +0.144 HD
ATOM     26  H   UNL     1       7.793  -8.500   3.011  0.00  0.00    +0.144 HD
ENDBRANCH  21  24
ENDBRANCH  18  21
ENDBRANCH  13  15
ENDBRANCH   4  13
BRANCH   1  27
ATOM     27  O   UNL     1      -0.572  -1.425  -1.264  0.00  0.00    -0.342 OA
BRANCH  27  28
ATOM     28  S   UNL     1      -0.951   0.011  -0.928  0.00  0.00    +0.151 S 
ATOM     29  O   UNL     1      -1.709   0.499  -2.026  0.00  0.00    -0.131 OA
ATOM     30  O   UNL     1      -1.456  -0.003   0.400  0.00  0.00    -0.131 OA
BRANCH  28  35
ATOM     31  C   UNL     1       4.158   3.219  -0.798  0.00  0.00    +0.044 C 
ATOM     32  C   UNL     1       2.882   2.418  -0.831  0.00  0.00    -0.050 A 
ATOM     33  C   UNL     1       2.370   1.982  -2.038  0.00  0.00    +0.005 A 
ATOM     34  C   UNL     1       1.199   1.247  -2.068  0.00  0.00    +0.031 A 
ATOM     35  C   UNL     1       0.541   0.947  -0.890  0.00  0.00    +0.128 A 
ATOM     36  C   UNL     1       1.051   1.387   0.317  0.00  0.00    +0.031 A 
ATOM     37  C   UNL     1       2.224   2.118   0.347  0.00  0.00    +0.005 A 
ENDBRANCH  28  35
ENDBRANCH  27  28
ENDBRANCH   1  27
TORSDOF 9
