REMARK  Name = ZINC39919450
REMARK  8 active torsions:
REMARK  status: ('A' for Active; 'I' for Inactive)
REMARK    1  A    between atoms: C_1  and  C_2
REMARK    2  A    between atoms: C_5  and  O_8
REMARK    3  A    between atoms: O_8  and  C_9
REMARK    4  A    between atoms: C_9  and  C_11
REMARK    5  A    between atoms: C_9  and  C_12
REMARK    6  A    between atoms: N_14  and  N_15
REMARK    7  A    between atoms: C_16  and  C_28
REMARK    8  A    between atoms: C_31  and  O_34
REMARK                            x       y       z     vdW  Elec       q    Type
REMARK                         _______ _______ _______ _____ _____    ______ ____
ROOT
ATOM      1  N   UNL     1       2.017  -7.987   1.997  0.00  0.00    -0.191 N 
ATOM      2  C   UNL     1       1.349  -9.288   2.006  0.00  0.00    +0.212 C 
ATOM      3  N   UNL     1       2.075 -10.239   1.156  0.00  0.00    -0.320 N 
ATOM      4  C   UNL     1       3.462 -10.287   1.250  0.00  0.00    +0.041 A 
ATOM      5  C   UNL     1       4.173 -11.450   1.007  0.00  0.00    +0.025 A 
ATOM      6  C   UNL     1       5.550 -11.446   1.117  0.00  0.00    +0.022 A 
ATOM      7  C   UNL     1       6.225 -10.286   1.469  0.00  0.00    +0.042 A 
ATOM      8  C   UNL     1       5.531  -9.118   1.714  0.00  0.00    +0.035 A 
ATOM      9  C   UNL     1       4.143  -9.109   1.604  0.00  0.00    +0.061 A 
ATOM     10  C   UNL     1       3.353  -7.888   1.840  0.00  0.00    +0.267 C 
ATOM     11  O   UNL     1       3.900  -6.803   1.897  0.00  0.00    -0.268 OA
ATOM     12 CL   UNL     1       7.956 -10.304   1.603  0.00  0.00    -0.084 Cl
ATOM     13  H   UNL     1       1.599 -10.821   0.544  0.00  0.00    +0.148 HD
ENDROOT
BRANCH   2  14
ATOM     14  C   UNL     1       1.304  -9.816   3.417  0.00  0.00    -0.008 A 
ATOM     15  C   UNL     1       1.243  -8.937   4.481  0.00  0.00    +0.011 A 
ATOM     16  C   UNL     1       1.203  -9.419   5.776  0.00  0.00    +0.046 A 
ATOM     17  C   UNL     1       1.224 -10.787   6.006  0.00  0.00    +0.117 A 
ATOM     18  C   UNL     1       1.286 -11.667   4.936  0.00  0.00    +0.046 A 
ATOM     19  C   UNL     1       1.320 -11.180   3.643  0.00  0.00    +0.011 A 
BRANCH  17  20
ATOM     20  O   UNL     1       1.185 -11.263   7.278  0.00  0.00    -0.507 OA
ATOM     21  H   UNL     1       0.292 -11.421   7.612  0.00  0.00    +0.292 HD
ENDBRANCH  17  20
ENDBRANCH   2  14
BRANCH   1  24
ATOM     22  C   UNL     1       1.003  -6.037   1.081  0.00  0.00    +0.270 C 
ATOM     23  O   UNL     1       1.437  -6.340  -0.010  0.00  0.00    -0.270 OA
ATOM     24  N   UNL     1       1.254  -6.821   2.148  0.00  0.00    -0.227 N 
ATOM     25  H   UNL     1       0.907  -6.578   3.021  0.00  0.00    +0.173 HD
BRANCH  22  26
ATOM     26  C   UNL     1       0.182  -4.783   1.244  0.00  0.00    +0.257 C 
ATOM     27  C   UNL     1      -1.207  -5.148   1.770  0.00  0.00    +0.062 C 
BRANCH  26  28
ATOM     28  O   UNL     1       0.057  -4.129  -0.021  0.00  0.00    -0.480 OA
BRANCH  28  33
ATOM     29  C   UNL     1      -0.898   1.421   0.056  0.00  0.00    +0.044 C 
ATOM     30  C   UNL     1      -0.643  -0.064   0.036  0.00  0.00    -0.050 A 
ATOM     31  C   UNL     1      -0.622  -0.777   1.220  0.00  0.00    +0.007 A 
ATOM     32  C   UNL     1      -0.388  -2.138   1.204  0.00  0.00    +0.046 A 
ATOM     33  C   UNL     1      -0.174  -2.790  -0.002  0.00  0.00    +0.122 A 
ATOM     34  C   UNL     1      -0.196  -2.072  -1.189  0.00  0.00    +0.046 A 
ATOM     35  C   UNL     1      -0.435  -0.712  -1.168  0.00  0.00    +0.007 A 
ENDBRANCH  28  33
ENDBRANCH  26  28
ENDBRANCH  22  26
ENDBRANCH   1  24
TORSDOF 6
