REMARK  Name = ZINC00626059
REMARK  4 active torsions:
REMARK  status: ('A' for Active; 'I' for Inactive)
REMARK    1  A    between atoms: C_4  and  C_7
REMARK    2  A    between atoms: C_12  and  C_20
REMARK    3  A    between atoms: C_14  and  C_18
REMARK    4  A    between atoms: C_15  and  N_17
REMARK                            x       y       z     vdW  Elec       q    Type
REMARK                         _______ _______ _______ _____ _____    ______ ____
ROOT
ATOM      1  C   UNL     1      -4.283   2.337  -3.569  0.00  0.00    +0.034 C 
ATOM      2  C   UNL     1      -5.170   2.255  -2.325  0.00  0.00    +0.083 C 
ATOM      3  C   UNL     1      -4.363   2.616  -1.100  0.00  0.00    +0.115 C 
ATOM      4  C   UNL     1      -3.349   3.497  -1.181  0.00  0.00    +0.046 C 
ATOM      5  C   UNL     1      -2.553   3.868   0.047  0.00  0.00    +0.101 C 
ATOM      6  C   UNL     1      -3.316   3.497   1.288  0.00  0.00    +0.098 C 
ATOM      7  C   UNL     1      -4.335   2.605   1.226  0.00  0.00    +0.198 C 
ATOM      8  O   UNL     1      -4.689   2.029   0.067  0.00  0.00    -0.445 OA
ATOM      9  C   UNL     1      -2.997   4.097  -2.406  0.00  0.00    +0.164 C 
ATOM     10  O   UNL     1      -2.086   4.900  -2.436  0.00  0.00    -0.292 OA
ATOM     11  C   UNL     1      -3.729   3.762  -3.676  0.00  0.00    +0.088 C 
ENDROOT
BRANCH   5  12
ATOM     12  C   UNL     1      -1.238   3.133   0.030  0.00  0.00    -0.034 A 
ATOM     13  C   UNL     1      -1.218   1.751   0.017  0.00  0.00    +0.007 A 
ATOM     14  C   UNL     1      -0.013   1.076   0.008  0.00  0.00    +0.038 A 
ATOM     15  C   UNL     1       1.177   1.785   0.000  0.00  0.00    +0.123 A 
ATOM     16  C   UNL     1       1.157   3.169   0.008  0.00  0.00    +0.038 A 
ATOM     17  C   UNL     1      -0.051   3.842   0.023  0.00  0.00    +0.007 A 
ATOM     18  F   UNL     1       2.356   1.126  -0.015  0.00  0.00    -0.205 F 
ENDBRANCH   5  12
BRANCH   1  22
ATOM     19  C   UNL     1      -6.596   1.429  -7.043  0.00  0.00    +0.000 A 
ATOM     20  C   UNL     1      -5.486   0.665  -6.732  0.00  0.00    +0.000 A 
ATOM     21  C   UNL     1      -4.738   0.959  -5.608  0.00  0.00    +0.004 A 
ATOM     22  C   UNL     1      -5.099   2.017  -4.795  0.00  0.00    -0.043 A 
ATOM     23  C   UNL     1      -6.211   2.777  -5.103  0.00  0.00    +0.004 A 
ATOM     24  C   UNL     1      -6.957   2.486  -6.229  0.00  0.00    +0.000 A 
ENDBRANCH   1  22
BRANCH   7  25
ATOM     25  N   UNL     1      -5.019   2.286   2.372  0.00  0.00    -0.328 N 
ATOM     26  H   UNL     1      -5.750   1.649   2.339  0.00  0.00    +0.145 HD
ATOM     27  H   UNL     1      -4.771   2.696   3.215  0.00  0.00    +0.145 HD
ENDBRANCH   7  25
BRANCH   6  28
ATOM     28  C   UNL     1      -2.964   4.089   2.543  0.00  0.00    +0.101 C 
ATOM     29  N   UNL     1      -2.684   4.558   3.539  0.00  0.00    -0.191 NA
ENDBRANCH   6  28
TORSDOF 4
