REMARK  Name = ZINC62852301
REMARK  3 active torsions:
REMARK  status: ('A' for Active; 'I' for Inactive)
REMARK    1  A    between atoms: C_1  and  C_2
REMARK    2  A    between atoms: C_2  and  C_3
REMARK    3  A    between atoms: C_3  and  C_9
REMARK                            x       y       z     vdW  Elec       q    Type
REMARK                         _______ _______ _______ _____ _____    ______ ____
ROOT
ATOM      1  C   UNL     1       2.220   0.113   1.356  0.00  0.00    +0.220 C 
ATOM      2  O   UNL     1       3.156  -0.650   1.241  0.00  0.00    -0.275 OA
ATOM      3  N   UNL     1       2.442   1.421   1.589  0.00  0.00    -0.298 N 
ATOM      4  C   UNL     1       1.323   2.373   1.633  0.00  0.00    +0.126 C 
ATOM      5  C   UNL     1       1.367   3.119   2.972  0.00  0.00    +0.126 C 
ATOM      6  N   UNL     1       2.732   3.620   3.187  0.00  0.00    -0.307 N 
ATOM      7  C   UNL     1       3.850   2.668   3.143  0.00  0.00    +0.126 C 
ATOM      8  C   UNL     1       3.806   1.922   1.809  0.00  0.00    +0.126 C 
ATOM      9  C   UNL     1       2.959   4.966   3.426  0.00  0.00    +0.161 A 
ATOM     10  N   UNL     1       2.081   5.943   3.503  0.00  0.00    -0.233 NA
ATOM     11  C   UNL     1       2.463   7.186   3.740  0.00  0.00    +0.120 A 
ATOM     12  C   UNL     1       3.791   7.403   3.898  0.00  0.00    +0.068 A 
ATOM     13  S   UNL     1       4.426   5.747   3.695  0.00  0.00    -0.061 S 
ENDROOT
BRANCH   1  14
ATOM     14  C   UNL     1       0.809  -0.404   1.240  0.00  0.00    +0.032 C 
ATOM     15  C   UNL     1       0.835  -1.919   1.018  0.00  0.00    +0.012 C 
ATOM     16  C   UNL     1       1.536  -2.219  -0.310  0.00  0.00    -0.018 C 
ATOM     17  C   UNL     1       0.815  -1.479  -1.439  0.00  0.00    -0.083 C 
ATOM     18  N   UNL     1       0.848  -0.035  -1.182  0.00  0.00    +0.380 N 
ATOM     19  C   UNL     1       0.116   0.268   0.053  0.00  0.00    -0.066 C 
ATOM     20  H   UNL     1       1.806   0.267  -1.086  0.00  0.00    -0.086 HD
ATOM     21  H   UNL     1       0.420   0.453  -1.954  0.00  0.00    -0.086 HD
BRANCH  14  23
ATOM     22  C   UNL     1       0.646  -0.881   3.687  0.00  0.00    +0.005 C 
ATOM     23  C   UNL     1       0.042  -0.088   2.526  0.00  0.00    +0.011 C 
ENDBRANCH  14  23
ENDBRANCH   1  14
TORSDOF 2
