REMARK  Name = ZINC07277579
REMARK  9 active torsions:
REMARK  status: ('A' for Active; 'I' for Inactive)
REMARK    1  A    between atoms: C_1  and  C_2
REMARK    2  A    between atoms: C_3  and  C_9
REMARK    3  A    between atoms: C_12  and  C_14
REMARK    4  A    between atoms: C_14  and  N_46
REMARK    5  A    between atoms: C_15  and  C_16
REMARK    6  A    between atoms: C_15  and  N_46
REMARK    7  A    between atoms: C_16  and  N_17
REMARK    8  A    between atoms: N_17  and  C_18
REMARK    9  A    between atoms: C_21  and  N_24
REMARK                            x       y       z     vdW  Elec       q    Type
REMARK                         _______ _______ _______ _____ _____    ______ ____
ROOT
ATOM      1  N   UNL     1       3.556  -5.006  -0.058  0.00  0.00    +0.385 N 
ATOM      2  H   UNL     1       4.079  -4.739  -0.900  0.00  0.00    -0.085 HD
ATOM      3  H   UNL     1       4.095  -4.747   0.777  0.00  0.00    -0.085 HD
ENDROOT
BRANCH   1   4
ATOM      4  C   UNL     1       3.341  -6.466  -0.063  0.00  0.00    -0.007 C 
BRANCH   4   8
ATOM      5  C   UNL     1       6.511  -8.118  -0.817  0.00  0.00    +0.135 A 
ATOM      6  C   UNL     1       6.564  -8.146   0.541  0.00  0.00    +0.050 A 
ATOM      7  C   UNL     1       5.386  -7.526   1.006  0.00  0.00    +0.043 A 
ATOM      8  C   UNL     1       4.677  -7.162  -0.080  0.00  0.00    +0.089 A 
ATOM      9  O   UNL     1       5.360  -7.519  -1.179  0.00  0.00    -0.462 OA
BRANCH   5  12
ATOM     10  C   UNL     1       5.722  -9.878  -2.974  0.00  0.00    +0.046 C 
ATOM     11  C   UNL     1       7.169  -9.503  -2.780  0.00  0.00    -0.022 A 
ATOM     12  C   UNL     1       7.537  -8.653  -1.736  0.00  0.00    +0.022 A 
ATOM     13  C   UNL     1       8.878  -8.305  -1.567  0.00  0.00    +0.012 A 
ATOM     14  C   UNL     1       9.833  -8.813  -2.424  0.00  0.00    +0.002 A 
ATOM     15  C   UNL     1       9.462  -9.655  -3.457  0.00  0.00    +0.020 A 
ATOM     16  C   UNL     1       8.133  -9.999  -3.635  0.00  0.00    +0.045 A 
ATOM     17 CL   UNL     1       7.677 -11.057  -4.934  0.00  0.00    -0.083 Cl
ENDBRANCH   5  12
ENDBRANCH   4   8
ENDBRANCH   1   4
BRANCH   1  18
ATOM     18  C   UNL     1       2.263  -4.298  -0.042  0.00  0.00    -0.063 C 
BRANCH  18  19
ATOM     19  C   UNL     1       2.518  -2.789  -0.037  0.00  0.00    +0.082 C 
BRANCH  19  20
ATOM     20  N   UNL     1       1.238  -2.077  -0.021  0.00  0.00    -0.346 N 
ATOM     21  H   UNL     1       0.406  -2.576  -0.015  0.00  0.00    +0.146 HD
BRANCH  20  22
ATOM     22  C   UNL     1       1.215  -0.681  -0.013  0.00  0.00    +0.027 A 
ATOM     23  C   UNL     1       0.002  -0.004   0.002  0.00  0.00    +0.025 A 
ATOM     24  C   UNL     1      -0.017   1.377   0.010  0.00  0.00    +0.034 A 
ATOM     25  C   UNL     1       1.171   2.086   0.002  0.00  0.00    +0.126 A 
ATOM     26  C   UNL     1       2.380   1.416  -0.013  0.00  0.00    +0.034 A 
ATOM     27  C   UNL     1       2.406   0.035  -0.021  0.00  0.00    +0.025 A 
BRANCH  25  28
ATOM     28  N   UNL     1       1.147   3.566   0.010  0.00  0.00    +0.056 N 
ATOM     29  O   UNL     1       0.082   4.158   0.023  0.00  0.00    -0.126 OA
ATOM     30  O   UNL     1       2.191   4.192   0.003  0.00  0.00    -0.126 OA
ENDBRANCH  25  28
ENDBRANCH  20  22
ENDBRANCH  19  20
ENDBRANCH  18  19
ENDBRANCH   1  18
TORSDOF 8
