REMARK  Name = ZINC03765517
REMARK  11 active torsions:
REMARK  status: ('A' for Active; 'I' for Inactive)
REMARK    1  A    between atoms: C_1  and  C_2
REMARK    2  A    between atoms: C_2  and  N_3
REMARK    3  A    between atoms: C_5  and  C_12
REMARK    4  A    between atoms: C_13  and  C_14
REMARK    5  A    between atoms: C_13  and  N_31
REMARK    6  A    between atoms: N_16  and  C_17
REMARK    7  A    between atoms: C_17  and  C_18
REMARK    8  A    between atoms: C_18  and  C_19
REMARK    9  A    between atoms: C_26  and  O_29
REMARK   10  A    between atoms: O_29  and  C_30
REMARK   11  A    between atoms: C_32  and  C_34
REMARK                            x       y       z     vdW  Elec       q    Type
REMARK                         _______ _______ _______ _____ _____    ______ ____
ROOT
ATOM      1  C   UNL     1      -3.222   4.943  -0.069  0.00  0.00    +0.038 C 
ATOM      2  C   UNL     1      -4.504   5.194   0.301  0.00  0.00    +0.097 C 
ENDROOT
BRANCH   1   5
ATOM      3  N   UNL     1      -2.803   1.363  -0.634  0.00  0.00    -0.346 N 
ATOM      4  C   UNL     1      -3.576   2.467  -0.458  0.00  0.00    +0.094 A 
ATOM      5  C   UNL     1      -2.780   3.563  -0.286  0.00  0.00    +0.002 A 
ATOM      6  C   UNL     1      -1.387   3.087  -0.381  0.00  0.00    +0.007 A 
ATOM      7  C   UNL     1      -1.466   1.702  -0.596  0.00  0.00    +0.050 A 
ATOM      8  C   UNL     1      -0.294   0.963  -0.721  0.00  0.00    +0.026 A 
ATOM      9  C   UNL     1       0.928   1.594  -0.644  0.00  0.00    +0.002 A 
ATOM     10  C   UNL     1       1.005   2.964  -0.436  0.00  0.00    +0.001 A 
ATOM     11  C   UNL     1      -0.145   3.712  -0.305  0.00  0.00    +0.010 A 
BRANCH   3  13
ATOM     12  C   UNL     1      -3.309  -0.745   0.499  0.00  0.00    +0.027 C 
ATOM     13  C   UNL     1      -3.317   0.006  -0.834  0.00  0.00    +0.118 C 
ENDBRANCH   3  13
ENDBRANCH   1   5
BRANCH   2  14
ATOM     14  C   UNL     1      -4.971   6.576   0.430  0.00  0.00    +0.258 C 
ATOM     15  O   UNL     1      -6.120   6.801   0.762  0.00  0.00    -0.269 OA
ATOM     16  N   UNL     1      -4.128   7.598   0.181  0.00  0.00    -0.310 N 
ATOM     17  H   UNL     1      -3.212   7.418  -0.083  0.00  0.00    +0.149 HD
BRANCH  16  18
ATOM     18  C   UNL     1      -4.596   8.980   0.310  0.00  0.00    +0.109 C 
BRANCH  18  19
ATOM     19  C   UNL     1      -3.451   9.939  -0.026  0.00  0.00    +0.056 C 
BRANCH  19  20
ATOM     20  C   UNL     1      -3.932  11.361   0.107  0.00  0.00    -0.021 A 
ATOM     21  C   UNL     1      -4.401  12.140  -0.880  0.00  0.00    +0.087 A 
ATOM     22  N   UNL     1      -4.742  13.368  -0.383  0.00  0.00    -0.360 N 
ATOM     23  H   UNL     1      -5.105  14.101  -0.906  0.00  0.00    +0.165 HD
ATOM     24  C   UNL     1      -4.494  13.410   0.973  0.00  0.00    +0.047 A 
ATOM     25  C   UNL     1      -3.982  12.152   1.339  0.00  0.00    +0.006 A 
ATOM     26  C   UNL     1      -3.628  11.902   2.666  0.00  0.00    +0.056 A 
ATOM     27  C   UNL     1      -3.796  12.891   3.615  0.00  0.00    +0.121 A 
ATOM     28  C   UNL     1      -4.310  14.133   3.251  0.00  0.00    +0.047 A 
ATOM     29  C   UNL     1      -4.656  14.393   1.944  0.00  0.00    +0.030 A 
BRANCH  27  30
ATOM     30  O   UNL     1      -3.459  12.651   4.910  0.00  0.00    -0.495 OA
ATOM     31  C   UNL     1      -3.659  13.717   5.841  0.00  0.00    +0.277 C 
ENDBRANCH  27  30
ENDBRANCH  19  20
ENDBRANCH  18  19
ENDBRANCH  16  18
ENDBRANCH   2  14
BRANCH   2  32
ATOM     32  N   UNL     1      -5.380   4.131   0.560  0.00  0.00    -0.277 N 
ATOM     33  C   UNL     1      -6.523   4.012  -0.145  0.00  0.00    +0.248 C 
ATOM     34  O   UNL     1      -6.753   4.775  -1.063  0.00  0.00    -0.270 OA
ATOM     35  H   UNL     1      -5.164   3.480   1.247  0.00  0.00    +0.155 HD
BRANCH  33  36
ATOM     36  C   UNL     1      -7.496   2.954   0.198  0.00  0.00    +0.037 A 
ATOM     37  C   UNL     1      -7.292   2.150   1.321  0.00  0.00    +0.013 A 
ATOM     38  C   UNL     1      -8.207   1.168   1.638  0.00  0.00    +0.001 A 
ATOM     39  C   UNL     1      -9.320   0.972   0.841  0.00  0.00    +0.000 A 
ATOM     40  C   UNL     1      -9.526   1.761  -0.277  0.00  0.00    +0.001 A 
ATOM     41  C   UNL     1      -8.622   2.751  -0.602  0.00  0.00    +0.013 A 
ENDBRANCH  33  36
ENDBRANCH   2  32
TORSDOF 9
