REMARK  Name = ZINC36597433
REMARK  11 active torsions:
REMARK  status: ('A' for Active; 'I' for Inactive)
REMARK    1  A    between atoms: C_1  and  C_2
REMARK    2  A    between atoms: C_5  and  C_7
REMARK    3  A    between atoms: C_7  and  N_8
REMARK    4  A    between atoms: N_8  and  C_9
REMARK    5  A    between atoms: C_9  and  C_11
REMARK    6  A    between atoms: C_9  and  C_18
REMARK    7  A    between atoms: C_15  and  O_17
REMARK    8  A    between atoms: N_20  and  C_21
REMARK    9  A    between atoms: C_27  and  C_29
REMARK   10  A    between atoms: C_30  and  O_36
REMARK   11  A    between atoms: C_34  and  O_35
REMARK                            x       y       z     vdW  Elec       q    Type
REMARK                         _______ _______ _______ _____ _____    ______ ____
ROOT
ATOM      1  N   UNL     1       1.730  -3.624  -1.980  0.00  0.00    -0.274 N 
ATOM      2  C   UNL     1       1.374  -4.866  -2.366  0.00  0.00    +0.255 C 
ATOM      3  O   UNL     1       2.222  -5.651  -2.745  0.00  0.00    -0.270 OA
ENDROOT
BRANCH   2   4
ATOM      4  C   UNL     1      -0.041  -5.271  -2.329  0.00  0.00    +0.119 A 
ATOM      5  C   UNL     1      -0.861  -5.077  -3.451  0.00  0.00    +0.133 A 
ATOM      6  C   UNL     1      -2.191  -5.462  -3.405  0.00  0.00    +0.046 A 
ATOM      7  C   UNL     1      -2.710  -6.037  -2.260  0.00  0.00    +0.007 A 
ATOM      8  C   UNL     1      -1.911  -6.233  -1.149  0.00  0.00    +0.046 A 
ATOM      9  C   UNL     1      -0.577  -5.860  -1.175  0.00  0.00    +0.133 A 
BRANCH   9  10
ATOM     10  O   UNL     1       0.206  -6.059  -0.085  0.00  0.00    -0.506 OA
ATOM     11  H   UNL     1       0.212  -5.318   0.535  0.00  0.00    +0.292 HD
ENDBRANCH   9  10
BRANCH   5  12
ATOM     12  O   UNL     1      -0.353  -4.512  -4.575  0.00  0.00    -0.506 OA
ATOM     13  H   UNL     1       0.016  -5.149  -5.202  0.00  0.00    +0.292 HD
ENDBRANCH   5  12
ENDBRANCH   2   4
BRANCH   1  14
ATOM     14  C   UNL     1       0.708  -2.679  -1.524  0.00  0.00    +0.183 C 
BRANCH  14  19
ATOM     15  C   UNL     1       0.787   1.093  -4.872  0.00  0.00    +0.086 C 
ATOM     16  C   UNL     1       0.347  -0.137  -4.121  0.00  0.00    +0.102 A 
ATOM     17  C   UNL     1      -0.759  -0.861  -4.374  0.00  0.00    +0.045 A 
ATOM     18  C   UNL     1      -0.781  -1.918  -3.436  0.00  0.00    +0.046 A 
ATOM     19  C   UNL     1       0.313  -1.777  -2.665  0.00  0.00    +0.122 A 
ATOM     20  O   UNL     1       0.995  -0.701  -3.088  0.00  0.00    -0.463 OA
ENDBRANCH  14  19
ENDBRANCH   1  14
BRANCH   1  21
ATOM     21  C   UNL     1       3.138  -3.221  -2.016  0.00  0.00    +0.193 C 
BRANCH  21  22
ATOM     22  C   UNL     1       3.889  -3.919  -0.912  0.00  0.00    -0.015 A 
ATOM     23  C   UNL     1       3.356  -3.967   0.363  0.00  0.00    +0.006 A 
ATOM     24  C   UNL     1       4.043  -4.607   1.378  0.00  0.00    +0.004 A 
ATOM     25  C   UNL     1       5.264  -5.200   1.121  0.00  0.00    +0.045 A 
ATOM     26  C   UNL     1       5.800  -5.154  -0.158  0.00  0.00    +0.117 A 
ATOM     27  C   UNL     1       5.106  -4.516  -1.176  0.00  0.00    +0.051 A 
BRANCH  26  28
ATOM     28  O   UNL     1       7.001  -5.736  -0.413  0.00  0.00    -0.507 OA
ATOM     29  H   UNL     1       6.939  -6.662  -0.687  0.00  0.00    +0.292 HD
ENDBRANCH  26  28
ENDBRANCH  21  22
BRANCH  21  30
ATOM     30  C   UNL     1       3.238  -1.730  -1.827  0.00  0.00    +0.238 C 
ATOM     31  O   UNL     1       2.397  -1.143  -1.179  0.00  0.00    -0.273 OA
ATOM     32  N   UNL     1       4.261  -1.048  -2.378  0.00  0.00    -0.311 N 
ATOM     33  H   UNL     1       4.934  -1.517  -2.896  0.00  0.00    +0.149 HD
BRANCH  32  34
ATOM     34  C   UNL     1       4.359   0.403  -2.194  0.00  0.00    +0.073 C 
ATOM     35  C   UNL     1       3.511   1.109  -3.253  0.00  0.00    +0.022 C 
ATOM     36  C   UNL     1       3.612   2.624  -3.060  0.00  0.00    +0.002 C 
ATOM     37  C   UNL     1       5.072   3.059  -3.203  0.00  0.00    +0.000 C 
ATOM     38  C   UNL     1       5.921   2.352  -2.144  0.00  0.00    +0.002 C 
ATOM     39  C   UNL     1       5.819   0.838  -2.336  0.00  0.00    +0.022 C 
ENDBRANCH  32  34
ENDBRANCH  21  30
ENDBRANCH   1  21
TORSDOF 10
