REMARK  Name = ZINC09811782
REMARK  10 active torsions:
REMARK  status: ('A' for Active; 'I' for Inactive)
REMARK    1  A    between atoms: C_1  and  C_2
REMARK    2  A    between atoms: C_5  and  C_8
REMARK    3  A    between atoms: C_8  and  N_9
REMARK    4  A    between atoms: C_11  and  C_15
REMARK    5  A    between atoms: C_12  and  C_14
REMARK    6  A    between atoms: C_15  and  O_17
REMARK    7  A    between atoms: O_17  and  C_18
REMARK    8  A    between atoms: C_18  and  C_20
REMARK    9  A    between atoms: C_18  and  C_21
REMARK   10  A    between atoms: N_23  and  C_24
REMARK                            x       y       z     vdW  Elec       q    Type
REMARK                         _______ _______ _______ _____ _____    ______ ____
ROOT
ATOM      1  C   UNL     1       8.232  -3.624   4.092  0.00  0.00    +0.345 C 
ATOM      2  O   UNL     1       9.134  -2.883   3.753  0.00  0.00    -0.245 OA
ENDROOT
BRANCH   1   5
ATOM      3  N   UNL     1       8.923  -7.143   4.628  0.00  0.00    -0.248 N 
ATOM      4  C   UNL     1       8.627  -6.126   3.802  0.00  0.00    +0.142 A 
ATOM      5  C   UNL     1       8.536  -4.981   4.573  0.00  0.00    +0.118 A 
ATOM      6  C   UNL     1       8.784  -5.361   5.912  0.00  0.00    +0.075 A 
ATOM      7  N   UNL     1       9.013  -6.644   5.932  0.00  0.00    -0.174 NA
ATOM      8  C   UNL     1       8.786  -4.443   7.107  0.00  0.00    +0.068 C 
ATOM      9 CL   UNL     1       8.402  -6.228   2.084  0.00  0.00    -0.061 Cl
BRANCH   3  10
ATOM     10  C   UNL     1       9.115  -8.540   4.230  0.00  0.00    +0.180 C 
BRANCH  10  15
ATOM     11  C   UNL     1       4.049 -11.312   4.431  0.00  0.00    +0.044 C 
ATOM     12  C   UNL     1       5.370 -10.589   4.378  0.00  0.00    -0.050 A 
ATOM     13  C   UNL     1       5.769  -9.961   3.213  0.00  0.00    +0.004 A 
ATOM     14  C   UNL     1       6.981  -9.298   3.165  0.00  0.00    +0.006 A 
ATOM     15  C   UNL     1       7.794  -9.263   4.283  0.00  0.00    -0.026 A 
ATOM     16  C   UNL     1       7.398  -9.895   5.446  0.00  0.00    +0.006 A 
ATOM     17  C   UNL     1       6.184 -10.555   5.495  0.00  0.00    +0.004 A 
ENDBRANCH  10  15
ENDBRANCH   3  10
ENDBRANCH   1   5
BRANCH   1  18
ATOM     18  O   UNL     1       6.954  -3.203   4.026  0.00  0.00    -0.449 OA
BRANCH  18  19
ATOM     19  C   UNL     1       6.728  -1.853   3.541  0.00  0.00    +0.259 C 
ATOM     20  C   UNL     1       6.744  -0.878   4.720  0.00  0.00    +0.062 C 
BRANCH  19  21
ATOM     21  C   UNL     1       5.391  -1.784   2.850  0.00  0.00    +0.258 C 
ATOM     22  O   UNL     1       4.657  -2.749   2.852  0.00  0.00    -0.271 OA
ATOM     23  N   UNL     1       5.011  -0.649   2.230  0.00  0.00    -0.282 N 
ATOM     24  H   UNL     1       5.628   0.097   2.161  0.00  0.00    +0.155 HD
BRANCH  23  25
ATOM     25  C   UNL     1       3.725  -0.546   1.683  0.00  0.00    +0.037 A 
ATOM     26  C   UNL     1       3.517   0.200   0.531  0.00  0.00    +0.027 A 
ATOM     27  C   UNL     1       2.249   0.302  -0.009  0.00  0.00    +0.051 A 
ATOM     28  C   UNL     1       1.182  -0.341   0.597  0.00  0.00    +0.166 A 
ATOM     29  C   UNL     1       1.387  -1.090   1.753  0.00  0.00    +0.168 A 
ATOM     30  C   UNL     1       2.658  -1.192   2.294  0.00  0.00    +0.072 A 
ATOM     31  O   UNL     1       0.191  -1.616   2.150  0.00  0.00    -0.453 OA
ATOM     32  C   UNL     1      -0.672  -1.519   1.002  0.00  0.00    +0.466 C 
ATOM     33  O   UNL     1      -0.143  -0.398   0.270  0.00  0.00    -0.453 OA
ENDBRANCH  23  25
ENDBRANCH  19  21
ENDBRANCH  18  19
ENDBRANCH   1  18
TORSDOF 7
