REMARK  Name = ZINC04533830
REMARK  18 active torsions:
REMARK  status: ('A' for Active; 'I' for Inactive)
REMARK    1  A    between atoms: C_1  and  C_2
REMARK    2  A    between atoms: N_4  and  C_5
REMARK    3  A    between atoms: C_7  and  O_38
REMARK    4  A    between atoms: C_9  and  O_37
REMARK    5  A    between atoms: C_11  and  C_35
REMARK    6  A    between atoms: C_14  and  O_16
REMARK    7  A    between atoms: O_16  and  C_17
REMARK    8  A    between atoms: C_17  and  C_18
REMARK    9  A    between atoms: C_18  and  C_20
REMARK   10  A    between atoms: C_18  and  O_34
REMARK   11  A    between atoms: C_20  and  C_22
REMARK   12  A    between atoms: C_20  and  O_33
REMARK   13  A    between atoms: C_22  and  C_24
REMARK   14  A    between atoms: C_22  and  O_32
REMARK   15  A    between atoms: C_24  and  C_26
REMARK   16  A    between atoms: C_24  and  N_28
REMARK   17  A    between atoms: C_29  and  C_31
REMARK   18  A    between atoms: C_35  and  O_36
REMARK                            x       y       z     vdW  Elec       q    Type
REMARK                         _______ _______ _______ _____ _____    ______ ____
ROOT
ATOM      1  O   UNK A   1      -2.054   1.005  -1.282  0.00  0.00    -0.347 OA
ENDROOT
BRANCH   1   7
ATOM      2  C   UNK A   1      -4.275   0.931  -2.235  0.00  0.00    +0.160 C 
ATOM      3  C   UNK A   1      -5.089   1.321  -3.473  0.00  0.00    +0.171 C 
ATOM      4  C   UNK A   1      -4.422   0.727  -4.717  0.00  0.00    +0.176 C 
ATOM      5  C   UNK A   1      -2.974   1.219  -4.795  0.00  0.00    +0.178 C 
ATOM      6  O   UNK A   1      -2.282   0.850  -3.600  0.00  0.00    -0.341 OA
ATOM      7  C   UNK A   1      -2.833   1.415  -2.409  0.00  0.00    +0.273 C 
BRANCH   2  11
ATOM      8  C   UNK A   1      -5.272   1.648   1.391  0.00  0.00    +0.109 C 
ATOM      9  C   UNK A   1      -4.668   1.006   0.168  0.00  0.00    +0.210 C 
ATOM     10  O   UNK A   1      -4.009  -0.006   0.278  0.00  0.00    -0.276 OA
ATOM     11  N   UNK A   1      -4.862   1.555  -1.047  0.00  0.00    -0.305 N 
ATOM     12  H   UNK A   1      -5.389   2.365  -1.135  0.00  0.00    +0.149 HD
ENDBRANCH   2  11
BRANCH   3  13
ATOM     13  O   UNK A   1      -5.133   2.745  -3.588  0.00  0.00    -0.387 OA
ATOM     14  H   UNK A   1      -5.629   3.062  -4.356  0.00  0.00    +0.210 HD
ENDBRANCH   3  13
BRANCH   4  15
ATOM     15  O   UNK A   1      -4.437  -0.700  -4.634  0.00  0.00    -0.387 OA
ATOM     16  H   UNK A   1      -4.026  -1.142  -5.388  0.00  0.00    +0.210 HD
ENDBRANCH   4  15
BRANCH   5  17
ATOM     17  C   UNK A   1      -2.283   0.582  -6.002  0.00  0.00    +0.190 C 
BRANCH  17  18
ATOM     18  O   UNK A   1      -0.969   1.128  -6.141  0.00  0.00    -0.392 OA
ATOM     19  H   UNK A   1      -0.471   0.769  -6.888  0.00  0.00    +0.210 HD
ENDBRANCH  17  18
ENDBRANCH   5  17
ENDBRANCH   1   7
BRANCH   1  20
ATOM     20  C   UNK A   1      -0.753   1.593  -1.232  0.00  0.00    +0.197 C 
BRANCH  20  21
ATOM     21  C   UNK A   1      -0.013   1.086   0.008  0.00  0.00    +0.171 C 
BRANCH  21  22
ATOM     22  O   UNK A   1      -0.682   1.547   1.184  0.00  0.00    -0.387 OA
ATOM     23  H   UNK A   1      -0.732   2.510   1.256  0.00  0.00    +0.210 HD
ENDBRANCH  21  22
BRANCH  21  24
ATOM     24  C   UNK A   1       1.423   1.615  -0.003  0.00  0.00    +0.176 C 
BRANCH  24  25
ATOM     25  O   UNK A   1       2.091   1.155  -1.179  0.00  0.00    -0.387 OA
ATOM     26  H   UNK A   1       2.142   0.192  -1.250  0.00  0.00    +0.210 HD
ENDBRANCH  24  25
BRANCH  24  27
ATOM     27  C   UNK A   1       2.163   1.109   1.237  0.00  0.00    +0.173 C 
BRANCH  27  28
ATOM     28  O   UNK A   1       1.494   1.569   2.412  0.00  0.00    -0.387 OA
ATOM     29  H   UNK A   1       1.443   2.532   2.484  0.00  0.00    +0.210 HD
ENDBRANCH  27  28
BRANCH  27  30
ATOM     30  C   UNK A   1       3.598   1.638   1.226  0.00  0.00    +0.167 C 
BRANCH  30  31
ATOM     31  N   UNK A   1       4.341   1.058   2.347  0.00  0.00    -0.304 N 
ATOM     32  C   UNK A   0       5.683   0.950   2.282  0.00  0.00    +0.211 C 
ATOM     33  O   UNK A   0       6.275   1.333   1.296  0.00  0.00    -0.276 OA
ATOM     34  C   UNK A   0       6.447   0.353   3.436  0.00  0.00    +0.109 C 
ATOM     35  H   UNK A   1       3.867   0.751   3.136  0.00  0.00    +0.149 HD
ENDBRANCH  30  31
BRANCH  30  36
ATOM     36  C   UNK A   1       3.581   3.139   1.358  0.00  0.00    +0.248 C 
ATOM     37  O   UNK A   1       4.132   3.670   2.292  0.00  0.00    -0.299 OA
ENDBRANCH  30  36
ENDBRANCH  27  30
ENDBRANCH  24  27
ENDBRANCH  21  24
ENDBRANCH  20  21
ENDBRANCH   1  20
TORSDOF 16
