REMARK  Name = ZINC21247114
REMARK  9 active torsions:
REMARK  status: ('A' for Active; 'I' for Inactive)
REMARK    1  A    between atoms: C_1  and  C_2
REMARK    2  A    between atoms: C_2  and  C_3
REMARK    3  A    between atoms: C_2  and  O_4
REMARK    4  A    between atoms: O_4  and  C_5
REMARK    5  A    between atoms: C_8  and  C_13
REMARK    6  A    between atoms: C_10  and  O_11
REMARK    7  A    between atoms: O_11  and  C_12
REMARK    8  A    between atoms: C_18  and  C_28
REMARK    9  A    between atoms: C_33  and  C_34
REMARK                            x       y       z     vdW  Elec       q    Type
REMARK                         _______ _______ _______ _____ _____    ______ ____
ROOT
ATOM      1  C   UNL     1      -0.599   0.622  -1.491  0.00  0.00    +0.032 C 
ATOM      2  C   UNL     1      -1.126   1.413  -0.295  0.00  0.00    +0.059 C 
ATOM      3  C   UNL     1      -0.288   1.114   0.936  0.00  0.00    +0.017 C 
ATOM      4  C   UNL     1       1.021   0.831   0.818  0.00  0.00    +0.036 C 
ATOM      5  C   UNL     1       1.968   0.529   1.955  0.00  0.00    +0.136 C 
ATOM      6  N   UNL     1       1.438   0.815   3.272  0.00  0.00    -0.331 N 
ATOM      7  C   UNL     1       0.347   0.108   3.775  0.00  0.00    +0.049 A 
ATOM      8  C   UNL     1       0.466  -0.715   4.883  0.00  0.00    +0.025 A 
ATOM      9  C   UNL     1      -0.634  -1.434   5.317  0.00  0.00    +0.002 A 
ATOM     10  C   UNL     1      -1.842  -1.336   4.650  0.00  0.00    +0.002 A 
ATOM     11  C   UNL     1      -1.968  -0.500   3.553  0.00  0.00    +0.025 A 
ATOM     12  C   UNL     1      -0.875   0.236   3.132  0.00  0.00    +0.052 A 
ATOM     13  N   UNL     1      -0.961   1.177   2.114  0.00  0.00    -0.316 N 
ATOM     14  C   UNL     1       1.629   0.792  -0.459  0.00  0.00    +0.163 C 
ATOM     15  O   UNL     1       2.818   0.550  -0.535  0.00  0.00    -0.292 OA
ATOM     16  C   UNL     1       0.859   1.038  -1.721  0.00  0.00    +0.088 C 
ATOM     17  H   UNL     1       1.897   1.600   3.890  0.00  0.00    +0.147 HD
ATOM     18  H   UNL     1      -1.636   2.022   2.316  0.00  0.00    +0.152 HD
ENDROOT
BRANCH   1  22
ATOM     19  C   UNL     1      -2.925   1.522  -4.965  0.00  0.00    +0.162 A 
ATOM     20  C   UNL     1      -2.253   2.533  -4.296  0.00  0.00    +0.050 A 
ATOM     21  C   UNL     1      -1.502   2.238  -3.174  0.00  0.00    +0.008 A 
ATOM     22  C   UNL     1      -1.419   0.937  -2.715  0.00  0.00    -0.040 A 
ATOM     23  C   UNL     1      -2.083  -0.077  -3.381  0.00  0.00    +0.053 A 
ATOM     24  C   UNL     1      -2.842   0.212  -4.503  0.00  0.00    +0.162 A 
BRANCH  24  25
ATOM     25  O   UNL     1      -3.500  -0.784  -5.156  0.00  0.00    -0.491 OA
ATOM     26  C   UNL     1      -3.369  -2.104  -4.626  0.00  0.00    +0.277 C 
ENDBRANCH  24  25
BRANCH  19  27
ATOM     27  O   UNL     1      -3.664   1.810  -6.069  0.00  0.00    -0.486 OA
BRANCH  27  29
ATOM     28  C   UNL     1      -2.473   3.510  -7.305  0.00  0.00    +0.051 C 
ATOM     29  C   UNL     1      -3.716   3.178  -6.478  0.00  0.00    +0.167 C 
ATOM     30  C   UNL     1      -4.969   3.412  -7.323  0.00  0.00    +0.051 C 
ENDBRANCH  27  29
ENDBRANCH  19  27
ENDBRANCH   1  22
BRANCH   5  31
ATOM     31  C   UNL     1       2.335  -0.931   1.895  0.00  0.00    -0.011 A 
ATOM     32  C   UNL     1       1.543  -1.815   1.187  0.00  0.00    +0.006 A 
ATOM     33  C   UNL     1       1.883  -3.154   1.129  0.00  0.00    +0.000 A 
ATOM     34  C   UNL     1       3.009  -3.610   1.787  0.00  0.00    +0.001 A 
ATOM     35  C   UNL     1       3.799  -2.727   2.499  0.00  0.00    +0.013 A 
ATOM     36  C   UNL     1       3.462  -1.387   2.554  0.00  0.00    +0.060 A 
BRANCH  36  37
ATOM     37  C   UNL     1       4.322  -0.425   3.331  0.00  0.00    +0.418 C 
ATOM     38  F   UNL     1       5.438  -1.101   3.837  0.00  0.00    -0.166 F 
ATOM     39  F   UNL     1       4.747   0.607   2.487  0.00  0.00    -0.166 F 
ATOM     40  F   UNL     1       3.582   0.112   4.389  0.00  0.00    -0.166 F 
ENDBRANCH  36  37
ENDBRANCH   5  31
TORSDOF 6
