REMARK  Name = ZINC36661962
REMARK  16 active torsions:
REMARK  status: ('A' for Active; 'I' for Inactive)
REMARK    1  A    between atoms: C_1  and  C_2
REMARK    2  A    between atoms: C_2  and  C_3
REMARK    3  A    between atoms: C_3  and  C_4
REMARK    4  A    between atoms: C_4  and  N_5
REMARK    5  A    between atoms: N_5  and  C_6
REMARK    6  A    between atoms: C_7  and  N_18
REMARK    7  A    between atoms: N_8  and  C_15
REMARK    8  A    between atoms: C_15  and  C_16
REMARK    9  A    between atoms: C_16  and  C_17
REMARK   10  A    between atoms: C_19  and  C_21
REMARK   11  A    between atoms: C_22  and  C_35
REMARK   12  A    between atoms: C_24  and  C_34
REMARK   13  A    between atoms: C_26  and  C_30
REMARK   14  A    between atoms: C_30  and  C_31
REMARK   15  A    between atoms: C_30  and  C_32
REMARK   16  A    between atoms: C_30  and  C_33
REMARK                            x       y       z     vdW  Elec       q    Type
REMARK                         _______ _______ _______ _____ _____    ______ ____
ROOT
ATOM      1  N   UNL     1      -2.311  -2.833  -0.010  0.00  0.00    -0.260 N 
ATOM      2  C   UNL     1      -2.982  -3.147   1.116  0.00  0.00    +0.258 C 
ATOM      3  O   UNL     1      -4.080  -3.668   1.044  0.00  0.00    -0.269 OA
ENDROOT
BRANCH   2   4
ATOM      4  C   UNL     1      -2.389  -2.860   2.429  0.00  0.00    +0.080 A 
ATOM      5  C   UNL     1      -2.853  -3.201   3.661  0.00  0.00    -0.020 A 
ATOM      6  C   UNL     1      -2.133  -2.829   4.807  0.00  0.00    +0.032 A 
ATOM      7  C   UNL     1      -2.427  -3.075   6.171  0.00  0.00    +0.050 A 
ATOM      8  N   UNL     1      -1.605  -2.631   7.098  0.00  0.00    -0.236 NA
ATOM      9  C   UNL     1      -0.505  -1.959   6.806  0.00  0.00    +0.136 A 
ATOM     10  N   UNL     1      -0.172  -1.696   5.557  0.00  0.00    -0.224 NA
ATOM     11  C   UNL     1      -0.937  -2.102   4.568  0.00  0.00    +0.113 A 
ATOM     12  S   UNL     1      -0.878  -1.985   2.799  0.00  0.00    -0.064 S 
ATOM     13  C   UNL     1      -3.668  -3.837   6.557  0.00  0.00    +0.066 C 
ATOM     14  C   UNL     1      -4.139  -3.976   3.795  0.00  0.00    +0.046 C 
BRANCH   9  15
ATOM     15  C   UNL     1       0.386  -1.482   7.924  0.00  0.00    +0.022 C 
ATOM     16  C   UNL     1       0.880  -2.685   8.730  0.00  0.00    +0.019 C 
ATOM     17  C   UNL     1       1.585  -0.735   7.337  0.00  0.00    +0.019 C 
ATOM     18  C   UNL     1      -0.401  -0.543   8.839  0.00  0.00    +0.019 C 
ENDBRANCH   9  15
ENDBRANCH   2   4
BRANCH   1  19
ATOM     19  C   UNL     1      -2.925  -3.004  -1.268  0.00  0.00    +0.140 A 
ATOM     20  C   UNL     1      -2.447  -3.942  -2.160  0.00  0.00    +0.127 A 
ATOM     21  N   UNL     1      -3.067  -4.086  -3.380  0.00  0.00    -0.280 N 
ATOM     22  C   UNL     1      -4.127  -3.321  -3.699  0.00  0.00    +0.331 A 
ATOM     23  O   UNL     1      -4.661  -3.463  -4.782  0.00  0.00    -0.246 OA
ATOM     24  N   UNL     1      -4.607  -2.402  -2.842  0.00  0.00    -0.273 N 
ATOM     25  H   UNL     1      -5.372  -1.863  -3.096  0.00  0.00    +0.173 HD
ATOM     26  C   UNL     1      -4.040  -2.225  -1.633  0.00  0.00    +0.277 A 
ATOM     27  O   UNL     1      -4.486  -1.393  -0.861  0.00  0.00    -0.266 OA
BRANCH  20  28
ATOM     28  N   UNL     1      -1.364  -4.723  -1.835  0.00  0.00    -0.343 N 
ATOM     29  H   UNL     1      -0.886  -4.568  -1.005  0.00  0.00    +0.144 HD
ATOM     30  H   UNL     1      -1.077  -5.429  -2.435  0.00  0.00    +0.144 HD
ENDBRANCH  20  28
BRANCH  21  31
ATOM     31  C   UNL     1      -2.570  -5.077  -4.337  0.00  0.00    +0.128 C 
BRANCH  31  32
ATOM     32  C   UNL     1      -3.281  -6.412  -4.104  0.00  0.00    +0.018 C 
ATOM     33  C   UNL     1      -2.763  -7.447  -5.104  0.00  0.00    +0.005 C 
ENDBRANCH  31  32
ENDBRANCH  21  31
ENDBRANCH   1  19
BRANCH   1  34
ATOM     34  C   UNL     1      -0.944  -2.314   0.073  0.00  0.00    +0.114 C 
BRANCH  34  35
ATOM     35  C   UNL     1      -0.985  -0.793   0.234  0.00  0.00    +0.019 C 
BRANCH  35  37
ATOM     36  C   UNL     1       0.402   1.271   0.483  0.00  0.00    +0.004 C 
ATOM     37  C   UNL     1       0.443  -0.250   0.321  0.00  0.00    -0.002 C 
ENDBRANCH  35  37
ENDBRANCH  34  35
ENDBRANCH   1  34
TORSDOF 9
