REMARK  Name = ZINC00705947
REMARK  8 active torsions:
REMARK  status: ('A' for Active; 'I' for Inactive)
REMARK    1  A    between atoms: C_1  and  O_2
REMARK    2  A    between atoms: O_2  and  C_3
REMARK    3  A    between atoms: C_7  and  C_9
REMARK    4  A    between atoms: C_16  and  N_30
REMARK    5  A    between atoms: C_17  and  C_28
REMARK    6  A    between atoms: C_18  and  C_20
REMARK    7  A    between atoms: C_24  and  O_26
REMARK    8  A    between atoms: O_26  and  C_27
REMARK                            x       y       z     vdW  Elec       q    Type
REMARK                         _______ _______ _______ _____ _____    ______ ____
ROOT
ATOM      1  C   UNL     1      -1.301   2.116   0.020  0.00  0.00    +0.015 C 
ATOM      2  C   UNL     1      -2.456   1.435  -0.080  0.00  0.00    -0.004 C 
ATOM      3  C   UNL     1      -2.606  -0.071  -0.102  0.00  0.00    +0.043 C 
ATOM      4  C   UNL     1      -4.122  -0.299  -0.229  0.00  0.00    +0.040 C 
ATOM      5  C   UNL     1      -4.740   1.071  -0.271  0.00  0.00    -0.014 C 
ATOM      6  C   UNL     1      -3.796   2.017  -0.181  0.00  0.00    +0.133 C 
ATOM      7  O   UNL     1      -4.092   3.350  -0.204  0.00  0.00    -0.441 OA
ATOM      8  C   UNL     1      -5.323   3.717  -0.607  0.00  0.00    +0.199 C 
ATOM      9  C   UNL     1      -6.358   2.854  -0.717  0.00  0.00    +0.098 C 
ATOM     10  C   UNL     1      -6.214   1.390  -0.390  0.00  0.00    +0.094 C 
ENDROOT
BRANCH   1  15
ATOM     11  C   UNL     1       1.203  -0.331   1.379  0.00  0.00    +0.121 A 
ATOM     12  C   UNL     1       2.346   0.046   0.687  0.00  0.00    +0.045 A 
ATOM     13  C   UNL     1       2.301   1.090  -0.218  0.00  0.00    +0.004 A 
ATOM     14  C   UNL     1       1.119   1.765  -0.441  0.00  0.00    +0.008 A 
ATOM     15  C   UNL     1      -0.038   1.393   0.250  0.00  0.00    -0.021 A 
ATOM     16  C   UNL     1       0.010   0.338   1.164  0.00  0.00    +0.053 A 
BRANCH  11  18
ATOM     17  C   UNL     1       2.517  -2.004   2.441  0.00  0.00    +0.277 C 
ATOM     18  O   UNL     1       1.254  -1.358   2.268  0.00  0.00    -0.495 OA
ENDBRANCH  11  18
ENDBRANCH   1  15
BRANCH  10  19
ATOM     19  C   UNL     1      -6.905   1.091   0.916  0.00  0.00    -0.032 A 
ATOM     20  C   UNL     1      -6.512   1.742   2.071  0.00  0.00    +0.005 A 
ATOM     21  C   UNL     1      -7.147   1.473   3.269  0.00  0.00    +0.004 A 
ATOM     22  C   UNL     1      -8.169   0.545   3.317  0.00  0.00    +0.045 A 
ATOM     23  C   UNL     1      -8.561  -0.114   2.161  0.00  0.00    +0.120 A 
ATOM     24  C   UNL     1      -7.926   0.162   0.959  0.00  0.00    +0.050 A 
BRANCH  23  25
ATOM     25  O   UNL     1      -9.567  -1.027   2.206  0.00  0.00    -0.495 OA
ATOM     26  C   UNL     1     -10.175  -1.260   3.477  0.00  0.00    +0.277 C 
ENDBRANCH  23  25
ENDBRANCH  10  19
BRANCH   8  27
ATOM     27  N   UNL     1      -5.539   5.036  -0.923  0.00  0.00    -0.328 N 
ATOM     28  H   UNL     1      -6.416   5.327  -1.216  0.00  0.00    +0.145 HD
ATOM     29  H   UNL     1      -4.813   5.676  -0.853  0.00  0.00    +0.145 HD
ENDBRANCH   8  27
BRANCH   9  30
ATOM     30  C   UNL     1      -7.629   3.345  -1.158  0.00  0.00    +0.101 C 
ATOM     31  N   UNL     1      -8.637   3.735  -1.508  0.00  0.00    -0.191 NA
ENDBRANCH   9  30
TORSDOF 6
