REMARK  Name = ZINC36584064
REMARK  15 active torsions:
REMARK  status: ('A' for Active; 'I' for Inactive)
REMARK    1  A    between atoms: C_1  and  C_2
REMARK    2  A    between atoms: C_5  and  S_8
REMARK    3  A    between atoms: S_8  and  C_11
REMARK    4  A    between atoms: C_11  and  N_12
REMARK    5  A    between atoms: C_13  and  C_15
REMARK    6  A    between atoms: C_15  and  C_17
REMARK    7  A    between atoms: C_15  and  N_25
REMARK    8  A    between atoms: C_21  and  O_23
REMARK    9  A    between atoms: O_23  and  C_24
REMARK   10  A    between atoms: N_25  and  C_35
REMARK   11  A    between atoms: C_26  and  C_28
REMARK   12  A    between atoms: C_33  and  O_34
REMARK   13  A    between atoms: C_35  and  C_36
REMARK   14  A    between atoms: C_35  and  C_37
REMARK   15  A    between atoms: C_35  and  C_38
REMARK                            x       y       z     vdW  Elec       q    Type
REMARK                         _______ _______ _______ _____ _____    ______ ____
ROOT
ATOM      1  C   UNL     1       4.586  -9.693   4.421  0.00  0.00    +0.193 C 
ENDROOT
BRANCH   1   2
ATOM      2  C   UNL     1       4.704 -11.192   4.524  0.00  0.00    -0.015 A 
ATOM      3  C   UNL     1       3.663 -11.932   5.053  0.00  0.00    +0.006 A 
ATOM      4  C   UNL     1       3.768 -13.307   5.148  0.00  0.00    +0.004 A 
ATOM      5  C   UNL     1       4.914 -13.945   4.715  0.00  0.00    +0.045 A 
ATOM      6  C   UNL     1       5.960 -13.205   4.184  0.00  0.00    +0.120 A 
ATOM      7  C   UNL     1       5.850 -11.825   4.084  0.00  0.00    +0.051 A 
BRANCH   6   8
ATOM      8  O   UNL     1       7.089 -13.830   3.758  0.00  0.00    -0.495 OA
ATOM      9  C   UNL     1       7.130 -15.253   3.886  0.00  0.00    +0.277 C 
ENDBRANCH   6   8
ENDBRANCH   1   2
BRANCH   1  11
ATOM     10  N   UNL     1       5.716  -9.482   2.231  0.00  0.00    -0.294 N 
ATOM     11  C   UNL     1       4.607  -9.285   2.971  0.00  0.00    +0.239 C 
ATOM     12  O   UNL     1       3.625  -8.780   2.469  0.00  0.00    -0.273 OA
ATOM     13  H   UNL     1       6.502  -9.885   2.633  0.00  0.00    +0.150 HD
BRANCH  10  14
ATOM     14  C   UNL     1       5.736  -9.085   0.821  0.00  0.00    +0.278 C 
BRANCH  14  15
ATOM     15  S   UNL     1       6.453  -7.426   0.669  0.00  0.00    +0.013 S 
ATOM     16  O   UNL     1       5.868  -6.551   1.624  0.00  0.00    -0.168 OA
ATOM     17  O   UNL     1       6.537  -7.052  -0.699  0.00  0.00    -0.168 OA
BRANCH  15  22
ATOM     18  C   UNL     1      12.184  -8.039   2.454  0.00  0.00    +0.044 C 
ATOM     19  C   UNL     1      10.752  -7.886   2.008  0.00  0.00    -0.050 A 
ATOM     20  C   UNL     1      10.421  -8.060   0.678  0.00  0.00    +0.005 A 
ATOM     21  C   UNL     1       9.107  -7.919   0.269  0.00  0.00    +0.027 A 
ATOM     22  C   UNL     1       8.126  -7.606   1.191  0.00  0.00    +0.090 A 
ATOM     23  C   UNL     1       8.458  -7.433   2.521  0.00  0.00    +0.027 A 
ATOM     24  C   UNL     1       9.771  -7.577   2.931  0.00  0.00    +0.005 A 
ENDBRANCH  15  22
ENDBRANCH  14  15
ENDBRANCH  10  14
ENDBRANCH   1  11
BRANCH   1  25
ATOM     25  N   UNL     1       3.327  -9.259   5.033  0.00  0.00    -0.277 N 
ATOM     26  C   UNL     1       2.170  -9.858   4.689  0.00  0.00    +0.251 C 
ATOM     27  O   UNL     1       2.087 -10.464   3.638  0.00  0.00    -0.270 OA
BRANCH  26  28
ATOM     28  C   UNL     1       1.003  -9.778   5.588  0.00  0.00    +0.078 A 
ATOM     29  C   UNL     1       0.509  -8.535   5.990  0.00  0.00    +0.017 A 
ATOM     30  C   UNL     1      -0.581  -8.467   6.830  0.00  0.00    +0.001 A 
ATOM     31  C   UNL     1      -1.192  -9.627   7.277  0.00  0.00    +0.004 A 
ATOM     32  C   UNL     1      -0.715 -10.863   6.888  0.00  0.00    +0.046 A 
ATOM     33  C   UNL     1       0.379 -10.950   6.039  0.00  0.00    +0.129 A 
BRANCH  33  34
ATOM     34  O   UNL     1       0.846 -12.163   5.651  0.00  0.00    -0.506 OA
ATOM     35  H   UNL     1       1.520 -12.531   6.239  0.00  0.00    +0.292 HD
ENDBRANCH  33  34
ENDBRANCH  26  28
BRANCH  25  36
ATOM     36  C   UNL     1       3.327  -8.174   6.017  0.00  0.00    +0.030 C 
ATOM     37  C   UNL     1       4.742  -7.984   6.568  0.00  0.00    +0.031 C 
ATOM     38  C   UNL     1       2.861  -6.879   5.349  0.00  0.00    +0.031 C 
ATOM     39  C   UNL     1       2.377  -8.527   7.164  0.00  0.00    +0.031 C 
ENDBRANCH  25  36
ENDBRANCH   1  25
TORSDOF 10
