REMARK  Name = ZINC36032770
REMARK  14 active torsions:
REMARK  status: ('A' for Active; 'I' for Inactive)
REMARK    1  A    between atoms: C_1  and  C_2
REMARK    2  A    between atoms: C_2  and  C_3
REMARK    3  A    between atoms: C_3  and  C_5
REMARK    4  A    between atoms: C_3  and  C_6
REMARK    5  A    between atoms: C_6  and  N_7
REMARK    6  A    between atoms: C_10  and  C_30
REMARK    7  A    between atoms: N_16  and  C_19
REMARK    8  A    between atoms: C_19  and  N_21
REMARK    9  A    between atoms: N_21  and  C_22
REMARK   10  A    between atoms: C_25  and  O_28
REMARK   11  A    between atoms: O_28  and  C_29
REMARK   12  A    between atoms: C_30  and  C_31
REMARK   13  A    between atoms: C_31  and  C_32
REMARK   14  A    between atoms: C_31  and  C_33
REMARK                            x       y       z     vdW  Elec       q    Type
REMARK                         _______ _______ _______ _____ _____    ______ ____
ROOT
ATOM      1  N   UNL     1      -3.065  -3.227  -0.182  0.00  0.00    -0.313 N 
ATOM      2  C   UNL     1      -3.704  -3.192   1.006  0.00  0.00    +0.200 C 
ATOM      3  O   UNL     1      -3.210  -2.876   2.068  0.00  0.00    -0.277 OA
ATOM      4  C   UNL     1      -5.141  -3.614   0.791  0.00  0.00    +0.019 C 
ATOM      5  N   UNL     1      -5.146  -4.278  -0.535  0.00  0.00    +0.401 N 
ATOM      6  C   UNL     1      -4.001  -3.646  -1.228  0.00  0.00    +0.006 C 
ATOM      7  C   UNL     1      -4.481  -2.434  -2.025  0.00  0.00    +0.025 C 
ATOM      8  C   UNL     1      -3.281  -1.767  -2.707  0.00  0.00    +0.107 C 
ATOM      9  N   UNL     1      -2.567  -2.776  -3.499  0.00  0.00    -0.312 N 
ATOM     10  C   UNL     1      -2.129  -4.014  -2.839  0.00  0.00    +0.107 C 
ATOM     11  C   UNL     1      -3.337  -4.662  -2.156  0.00  0.00    +0.025 C 
ATOM     12  H   UNL     1      -5.003  -5.272  -0.437  0.00  0.00    -0.082 HD
ATOM     13  H   UNL     1      -6.006  -4.087  -1.026  0.00  0.00    -0.082 HD
ENDROOT
BRANCH   9  14
ATOM     14  C   UNL     1      -2.318  -2.572  -4.808  0.00  0.00    +0.137 C 
ATOM     15  S   UNL     1      -2.729  -1.077  -5.534  0.00  0.00    -0.018 S 
BRANCH  14  16
ATOM     16  N   UNL     1      -1.745  -3.544  -5.545  0.00  0.00    -0.297 N 
ATOM     17  H   UNL     1      -2.270  -4.026  -6.203  0.00  0.00    +0.154 HD
BRANCH  16  18
ATOM     18  C   UNL     1      -0.392  -3.858  -5.361  0.00  0.00    +0.033 A 
ATOM     19  C   UNL     1       0.340  -3.220  -4.369  0.00  0.00    +0.027 A 
ATOM     20  C   UNL     1       1.673  -3.531  -4.187  0.00  0.00    +0.047 A 
ATOM     21  C   UNL     1       2.281  -4.479  -4.997  0.00  0.00    +0.120 A 
ATOM     22  C   UNL     1       1.550  -5.116  -5.989  0.00  0.00    +0.047 A 
ATOM     23  C   UNL     1       0.215  -4.811  -6.167  0.00  0.00    +0.027 A 
BRANCH  21  24
ATOM     24  O   UNL     1       3.594  -4.784  -4.818  0.00  0.00    -0.495 OA
ATOM     25  C   UNL     1       4.155  -5.769  -5.687  0.00  0.00    +0.277 C 
ENDBRANCH  21  24
ENDBRANCH  16  18
ENDBRANCH  14  16
ENDBRANCH   9  14
BRANCH   1  26
ATOM     26  C   UNL     1      -1.655  -2.892  -0.393  0.00  0.00    +0.109 C 
BRANCH  26  27
ATOM     27  C   UNL     1      -0.800  -4.148  -0.213  0.00  0.00    +0.003 C 
ATOM     28  C   UNL     1      -0.904  -4.633   1.234  0.00  0.00    +0.009 C 
BRANCH  27  30
ATOM     29  C   UNL     1       1.493  -5.103  -0.480  0.00  0.00    +0.004 C 
ATOM     30  C   UNL     1       0.659  -3.822  -0.539  0.00  0.00    +0.001 C 
ENDBRANCH  27  30
ENDBRANCH  26  27
ENDBRANCH   1  26
BRANCH   4  31
ATOM     31  C   UNL     1      -5.578  -4.594   1.881  0.00  0.00    -0.004 C 
BRANCH  31  32
ATOM     32  C   UNL     1      -7.054  -4.949   1.687  0.00  0.00    -0.018 C 
ATOM     33  C   UNL     1      -7.451  -6.041   2.682  0.00  0.00    +0.007 C 
ATOM     34  C   UNL     1      -7.913  -3.705   1.925  0.00  0.00    +0.007 C 
ENDBRANCH  31  32
ENDBRANCH   4  31
TORSDOF 9
