REMARK  Name = ZINC32969670
REMARK  4 active torsions:
REMARK  status: ('A' for Active; 'I' for Inactive)
REMARK    1  A    between atoms: C_1  and  C_2
REMARK    2  A    between atoms: C_9  and  C_10
REMARK    3  A    between atoms: C_13  and  S_16
REMARK    4  A    between atoms: S_16  and  C_17
REMARK                            x       y       z     vdW  Elec       q    Type
REMARK                         _______ _______ _______ _____ _____    ______ ____
ROOT
ATOM      1  C   UNL     1      -0.494   1.257  -0.801  0.00  0.00    +0.089 C 
ATOM      2  C   UNL     1      -0.332  -0.237  -0.685  0.00  0.00    +0.134 C 
ATOM      3  C   UNL     1      -1.322  -1.144  -0.831  0.00  0.00    +0.091 C 
ATOM      4  C   UNL     1      -0.778  -2.425  -0.660  0.00  0.00    +0.168 C 
ATOM      5  N   UNL     1      -1.383  -3.612  -0.674  0.00  0.00    -0.156 NA
ATOM      6  C   UNL     1      -0.678  -4.723  -0.415  0.00  0.00    +0.273 C 
ATOM      7  O   UNL     1      -1.189  -5.824  -0.546  0.00  0.00    -0.268 OA
ATOM      8  C   UNL     1       0.731  -4.598   0.033  0.00  0.00    +0.084 C 
ATOM      9  C   UNL     1       1.355  -5.578   0.772  0.00  0.00    +0.024 C 
ATOM     10  C   UNL     1       1.429  -3.339  -0.370  0.00  0.00    +0.176 C 
ATOM     11  N   UNL     1       2.714  -3.268  -0.604  0.00  0.00    -0.280 NA
ATOM     12  N   UNL     1       0.570  -2.253  -0.469  0.00  0.00    -0.142 N 
ATOM     13  O   UNL     1       0.822  -0.876  -0.427  0.00  0.00    -0.375 OA
ATOM     14  H   UNL     1       3.267  -4.060  -0.518  0.00  0.00    +0.188 HD
ENDROOT
BRANCH   9  15
ATOM     15  C   UNL     1       0.580  -6.699   1.305  0.00  0.00    -0.024 A 
ATOM     16  C   UNL     1       1.148  -7.980   1.372  0.00  0.00    +0.009 A 
ATOM     17  C   UNL     1       0.421  -9.021   1.870  0.00  0.00    +0.015 A 
ATOM     18  C   UNL     1      -0.886  -8.814   2.312  0.00  0.00    +0.008 A 
ATOM     19  C   UNL     1      -1.455  -7.543   2.247  0.00  0.00    +0.015 A 
ATOM     20  C   UNL     1      -0.734  -6.494   1.756  0.00  0.00    +0.009 A 
BRANCH  18  21
ATOM     21  S   UNL     1      -1.820 -10.163   2.953  0.00  0.00    -0.129 S 
ATOM     22  C   UNL     1      -3.418  -9.423   3.388  0.00  0.00    +0.090 C 
ENDBRANCH  18  21
ENDBRANCH   9  15
TORSDOF 2
