REMARK  Name = ZINC00116097
REMARK  6 active torsions:
REMARK  status: ('A' for Active; 'I' for Inactive)
REMARK    1  A    between atoms: C_1  and  C_2
REMARK    2  A    between atoms: C_3  and  C_17
REMARK    3  A    between atoms: C_4  and  C_10
REMARK    4  A    between atoms: C_13  and  O_16
REMARK    5  A    between atoms: C_17  and  O_19
REMARK    6  A    between atoms: O_19  and  C_20
REMARK                            x       y       z     vdW  Elec       q    Type
REMARK                         _______ _______ _______ _____ _____    ______ ____
ROOT
ATOM      1  C   UNL     1      -1.812   7.454  -2.931  0.00  0.00    +0.061 C 
ATOM      2  C   UNL     1      -1.464   6.919  -1.566  0.00  0.00    +0.021 C 
ATOM      3  C   UNL     1      -0.384   6.122  -1.421  0.00  0.00    +0.078 C 
ATOM      4  C   UNL     1      -0.070   5.606  -0.031  0.00  0.00    +0.143 C 
ATOM      5  N   UNL     1      -0.976   6.019   1.054  0.00  0.00    -0.288 N 
ATOM      6  C   UNL     1      -2.015   6.821   0.752  0.00  0.00    +0.304 C 
ATOM      7  O   UNL     1      -2.768   7.169   1.641  0.00  0.00    -0.252 OA
ATOM      8  N   UNL     1      -2.246   7.248  -0.496  0.00  0.00    -0.273 N 
ATOM      9  H   UNL     1      -0.827   5.721   1.966  0.00  0.00    +0.151 HD
ATOM     10  H   UNL     1      -3.012   7.824  -0.649  0.00  0.00    +0.156 HD
ENDROOT
BRANCH   4  11
ATOM     11  C   UNL     1      -0.067   4.099  -0.084  0.00  0.00    -0.022 A 
ATOM     12  C   UNL     1       1.132   3.414  -0.161  0.00  0.00    +0.009 A 
ATOM     13  C   UNL     1       1.138   2.034  -0.210  0.00  0.00    +0.046 A 
ATOM     14  C   UNL     1      -0.060   1.335  -0.181  0.00  0.00    +0.117 A 
ATOM     15  C   UNL     1      -1.262   2.025  -0.109  0.00  0.00    +0.046 A 
ATOM     16  C   UNL     1      -1.262   3.405  -0.056  0.00  0.00    +0.009 A 
BRANCH  14  17
ATOM     17  O   UNL     1      -0.057  -0.023  -0.230  0.00  0.00    -0.507 OA
ATOM     18  H   UNL     1      -0.017  -0.448   0.638  0.00  0.00    +0.292 HD
ENDBRANCH  14  17
ENDBRANCH   4  11
BRANCH   3  19
ATOM     19  C   UNL     1       0.427   5.780  -2.528  0.00  0.00    +0.339 C 
ATOM     20  O   UNL     1       0.099   6.116  -3.650  0.00  0.00    -0.245 OA
BRANCH  19  21
ATOM     21  O   UNL     1       1.566   5.081  -2.340  0.00  0.00    -0.458 OA
BRANCH  21  22
ATOM     22  C   UNL     1       2.337   4.771  -3.502  0.00  0.00    +0.177 C 
ATOM     23  C   UNL     1       1.923   3.392  -4.058  0.00  0.00    +0.044 C 
ATOM     24  C   UNL     1       3.252   2.769  -4.554  0.00  0.00    +0.004 C 
ATOM     25  C   UNL     1       4.268   3.231  -3.480  0.00  0.00    +0.004 C 
ATOM     26  C   UNL     1       3.828   4.668  -3.135  0.00  0.00    +0.044 C 
ENDBRANCH  21  22
ENDBRANCH  19  21
ENDBRANCH   3  19
TORSDOF 5
