REMARK  Name = ZINC40047770
REMARK  10 active torsions:
REMARK  status: ('A' for Active; 'I' for Inactive)
REMARK    1  A    between atoms: C_2  and  C_3
REMARK    2  A    between atoms: C_3  and  O_4
REMARK    3  A    between atoms: O_4  and  C_5
REMARK    4  A    between atoms: C_8  and  C_11
REMARK    5  A    between atoms: C_13  and  C_23
REMARK    6  A    between atoms: N_17  and  C_18
REMARK    7  A    between atoms: C_18  and  C_19
REMARK    8  A    between atoms: C_19  and  C_20
REMARK    9  A    between atoms: C_20  and  O_21
REMARK   10  A    between atoms: C_23  and  C_25
REMARK                            x       y       z     vdW  Elec       q    Type
REMARK                         _______ _______ _______ _____ _____    ______ ____
ROOT
ATOM      1  C   UNL     1      -5.330  -4.697  -1.488  0.00  0.00    +0.145 C 
ATOM      2  C   UNL     1      -6.431  -4.560  -2.513  0.00  0.00    +0.076 C 
ATOM      3  C   UNL     1      -6.514  -5.747  -3.158  0.00  0.00    +0.249 C 
ATOM      4  C   UNL     1      -5.508  -6.675  -2.599  0.00  0.00    +0.288 C 
ATOM      5  O   UNL     1      -5.334  -7.819  -2.968  0.00  0.00    -0.266 OA
ATOM      6  N   UNL     1      -4.813  -6.064  -1.620  0.00  0.00    -0.283 N 
ATOM      7  O   UNL     1      -7.382  -6.039  -4.154  0.00  0.00    -0.282 OA
ENDROOT
BRANCH   1  11
ATOM      8  C   UNL     1      -2.224  -1.870  -2.277  0.00  0.00    +0.121 A 
ATOM      9  C   UNL     1      -3.093  -1.669  -1.214  0.00  0.00    +0.046 A 
ATOM     10  C   UNL     1      -4.096  -2.584  -0.961  0.00  0.00    +0.009 A 
ATOM     11  C   UNL     1      -4.235  -3.700  -1.766  0.00  0.00    -0.022 A 
ATOM     12  C   UNL     1      -3.370  -3.902  -2.826  0.00  0.00    +0.009 A 
ATOM     13  C   UNL     1      -2.369  -2.987  -3.086  0.00  0.00    +0.046 A 
BRANCH   8  14
ATOM     14  O   UNL     1      -1.237  -0.970  -2.528  0.00  0.00    -0.488 OA
BRANCH  14  15
ATOM     15  C   UNL     1      -1.147   0.156  -1.653  0.00  0.00    +0.256 C 
BRANCH  15  17
ATOM     16  C   UNL     1      -0.163   2.335  -2.146  0.00  0.00    +0.007 C 
ATOM     17  C   UNL     1      -0.002   1.036  -2.083  0.00  0.00    +0.006 C 
ENDBRANCH  15  17
ENDBRANCH  14  15
ENDBRANCH   8  14
ENDBRANCH   1  11
BRANCH   2  18
ATOM     18  C   UNL     1      -7.250  -3.370  -2.763  0.00  0.00    +0.195 C 
ATOM     19  O   UNL     1      -7.186  -2.801  -3.836  0.00  0.00    -0.287 OA
BRANCH  18  20
ATOM     20  C   UNL     1      -8.154  -2.861  -1.710  0.00  0.00    +0.022 A 
ATOM     21  C   UNL     1      -8.314  -3.572  -0.518  0.00  0.00    +0.013 A 
ATOM     22  C   UNL     1      -9.158  -3.092   0.460  0.00  0.00    +0.016 A 
ATOM     23  C   UNL     1      -9.847  -1.907   0.263  0.00  0.00    +0.018 A 
ATOM     24  C   UNL     1      -9.693  -1.197  -0.916  0.00  0.00    +0.016 A 
ATOM     25  C   UNL     1      -8.847  -1.663  -1.899  0.00  0.00    +0.013 A 
ATOM     26 BR   UNL     1     -11.004  -1.256   1.611  0.00  0.00    -0.050 Br
ENDBRANCH  18  20
ENDBRANCH   2  18
BRANCH   6  27
ATOM     27  C   UNL     1      -3.732  -6.658  -0.829  0.00  0.00    +0.111 C 
BRANCH  27  28
ATOM     28  C   UNL     1      -4.319  -7.323   0.417  0.00  0.00    +0.047 C 
BRANCH  28  29
ATOM     29  C   UNL     1      -3.191  -7.943   1.244  0.00  0.00    +0.157 C 
BRANCH  29  30
ATOM     30  O   UNL     1      -3.739  -8.565   2.408  0.00  0.00    -0.395 OA
ATOM     31  H   UNL     1      -3.079  -8.979   2.980  0.00  0.00    +0.209 HD
ENDBRANCH  29  30
ENDBRANCH  28  29
ENDBRANCH  27  28
ENDBRANCH   6  27
TORSDOF 10
