REMARK  Name = ZINC39990833
REMARK  8 active torsions:
REMARK  status: ('A' for Active; 'I' for Inactive)
REMARK    1  A    between atoms: C_1  and  C_2
REMARK    2  A    between atoms: C_4  and  C_12
REMARK    3  A    between atoms: C_12  and  C_14
REMARK    4  A    between atoms: C_14  and  C_16
REMARK    5  A    between atoms: C_14  and  S_17
REMARK    6  A    between atoms: S_17  and  C_18
REMARK    7  A    between atoms: N_23  and  C_24
REMARK    8  A    between atoms: C_24  and  C_25
REMARK                            x       y       z     vdW  Elec       q    Type
REMARK                         _______ _______ _______ _____ _____    ______ ____
ROOT
ATOM      1  C   UNL     1      -6.034  -2.159  -2.089  0.00  0.00    +0.236 C 
ATOM      2  N   UNL     1      -6.849  -1.439  -1.096  0.00  0.00    -0.259 N 
ATOM      3  N   UNL     1      -6.986  -2.303  -0.003  0.00  0.00    -0.283 N 
ATOM      4  C   UNL     1      -6.373  -3.420  -0.205  0.00  0.00    +0.179 C 
ATOM      5  N   UNL     1      -5.753  -3.455  -1.447  0.00  0.00    -0.271 N 
ATOM      6  N   UNL     1      -6.339  -4.464   0.710  0.00  0.00    -0.299 N 
ATOM      7  C   UNL     1      -5.117  -5.260   0.905  0.00  0.00    +0.136 C 
ATOM      8  C   UNL     1      -4.813  -5.319   2.406  0.00  0.00    +0.179 C 
ATOM      9  O   UNL     1      -5.978  -5.763   3.105  0.00  0.00    -0.377 OA
ATOM     10  C   UNL     1      -7.102  -4.888   2.985  0.00  0.00    +0.179 C 
ATOM     11  C   UNL     1      -7.521  -4.803   1.517  0.00  0.00    +0.136 C 
ATOM     12  H   UNL     1      -7.218  -0.546  -1.182  0.00  0.00    +0.169 HD
ATOM     13  H   UNL     1      -7.478  -2.089   0.805  0.00  0.00    +0.187 HD
ENDROOT
BRANCH   1  14
ATOM     14  S   UNL     1      -4.490  -1.263  -2.415  0.00  0.00    -0.107 S 
BRANCH  14  15
ATOM     15  C   UNL     1      -3.759  -1.035  -0.771  0.00  0.00    +0.117 C 
ATOM     16  C   UNL     1      -4.591  -0.025   0.022  0.00  0.00    +0.027 C 
BRANCH  15  17
ATOM     17  C   UNL     1      -2.350  -0.522  -0.915  0.00  0.00    +0.174 C 
ATOM     18  O   UNL     1      -2.027   0.097  -1.909  0.00  0.00    -0.291 OA
BRANCH  17  21
ATOM     19  C   UNL     1       0.271   1.079  -0.081  0.00  0.00    +0.035 C 
ATOM     20  C   UNL     1       0.072  -0.429   0.080  0.00  0.00    +0.111 C 
ATOM     21  C   UNL     1      -1.404  -0.760   0.105  0.00  0.00    +0.027 C 
ATOM     22  C   UNL     1      -1.633  -1.346   1.337  0.00  0.00    +0.006 A 
ATOM     23  C   UNL     1      -2.795  -1.866   1.955  0.00  0.00    +0.010 A 
ATOM     24  C   UNL     1      -2.728  -2.391   3.199  0.00  0.00    +0.001 A 
ATOM     25  C   UNL     1      -1.530  -2.449   3.929  0.00  0.00    +0.002 A 
ATOM     26  C   UNL     1      -0.366  -1.980   3.431  0.00  0.00    +0.026 A 
ATOM     27  C   UNL     1      -0.350  -1.391   2.082  0.00  0.00    +0.043 A 
ATOM     28  N   UNL     1       0.611  -0.874   1.369  0.00  0.00    -0.377 N 
ATOM     29  H   UNL     1       1.537  -0.794   1.648  0.00  0.00    +0.160 HD
ENDBRANCH  17  21
ENDBRANCH  15  17
ENDBRANCH  14  15
ENDBRANCH   1  14
BRANCH   5  30
ATOM     30  C   UNL     1      -4.973  -4.560  -2.010  0.00  0.00    +0.145 C 
BRANCH  30  31
ATOM     31  C   UNL     1      -5.860  -5.403  -2.890  0.00  0.00    -0.030 A 
ATOM     32  C   UNL     1      -6.636  -6.403  -2.334  0.00  0.00    +0.005 A 
ATOM     33  C   UNL     1      -7.449  -7.176  -3.142  0.00  0.00    +0.000 A 
ATOM     34  C   UNL     1      -7.486  -6.950  -4.505  0.00  0.00    +0.000 A 
ATOM     35  C   UNL     1      -6.710  -5.949  -5.060  0.00  0.00    +0.000 A 
ATOM     36  C   UNL     1      -5.901  -5.173  -4.253  0.00  0.00    +0.005 A 
ENDBRANCH  30  31
ENDBRANCH   5  30
TORSDOF 6
