REMARK  Name = ZINC35449841
REMARK  10 active torsions:
REMARK  status: ('A' for Active; 'I' for Inactive)
REMARK    1  A    between atoms: C_1  and  C_2
REMARK    2  A    between atoms: C_2  and  C_3
REMARK    3  A    between atoms: C_3  and  C_5
REMARK    4  A    between atoms: C_3  and  S_6
REMARK    5  A    between atoms: S_6  and  C_7
REMARK    6  A    between atoms: C_14  and  C_24
REMARK    7  A    between atoms: C_28  and  O_32
REMARK    8  A    between atoms: C_29  and  O_30
REMARK    9  A    between atoms: O_30  and  C_31
REMARK   10  A    between atoms: O_32  and  C_33
REMARK                            x       y       z     vdW  Elec       q    Type
REMARK                         _______ _______ _______ _____ _____    ______ ____
ROOT
ATOM      1  C   UNL     1      -4.587  -1.461  -2.655  0.00  0.00    +0.171 A 
ATOM      2  N   UNL     1      -4.497  -1.572  -1.345  0.00  0.00    -0.208 NA
ATOM      3  C   UNL     1      -5.581  -1.796  -0.596  0.00  0.00    +0.135 A 
ATOM      4  C   UNL     1      -6.822  -1.912  -1.197  0.00  0.00    +0.069 A 
ATOM      5  C   UNL     1      -6.912  -1.795  -2.589  0.00  0.00    +0.258 A 
ATOM      6  O   UNL     1      -7.990  -1.894  -3.153  0.00  0.00    -0.267 OA
ATOM      7  N   UNL     1      -5.785  -1.566  -3.295  0.00  0.00    -0.302 N 
ATOM      8  C   UNL     1      -8.054  -2.153  -0.376  0.00  0.00    +0.096 C 
ATOM      9  C   UNL     1      -7.705  -2.662   1.000  0.00  0.00    +0.024 C 
ATOM     10  C   UNL     1      -6.459  -2.526   1.502  0.00  0.00    +0.017 C 
ATOM     11  N   UNL     1      -5.472  -1.918   0.776  0.00  0.00    -0.302 N 
ATOM     12  C   UNL     1      -6.115  -3.043   2.877  0.00  0.00    +0.051 C 
ATOM     13  C   UNL     1      -7.350  -2.970   3.778  0.00  0.00    +0.014 C 
ATOM     14  C   UNL     1      -8.467  -3.800   3.136  0.00  0.00    +0.080 C 
ATOM     15  C   UNL     1      -8.722  -3.284   1.747  0.00  0.00    +0.162 C 
ATOM     16  O   UNL     1      -9.828  -3.407   1.260  0.00  0.00    -0.292 OA
ATOM     17  H   UNL     1      -4.688  -1.569   1.228  0.00  0.00    +0.153 HD
ATOM     18  H   UNL     1      -5.827  -1.480  -4.260  0.00  0.00    +0.171 HD
ENDROOT
BRANCH   8  19
ATOM     19  C   UNL     1      -8.818  -0.861  -0.242  0.00  0.00    +0.010 A 
ATOM     20  C   UNL     1      -9.996  -0.680  -0.943  0.00  0.00    +0.008 A 
ATOM     21  C   UNL     1     -10.700   0.504  -0.823  0.00  0.00    +0.004 A 
ATOM     22  C   UNL     1     -10.229   1.512  -0.003  0.00  0.00    +0.049 A 
ATOM     23  C   UNL     1      -9.049   1.337   0.702  0.00  0.00    +0.162 A 
ATOM     24  C   UNL     1      -8.343   0.143   0.586  0.00  0.00    +0.166 A 
BRANCH  24  25
ATOM     25  O   UNL     1      -7.188  -0.036   1.280  0.00  0.00    -0.491 OA
ATOM     26  C   UNL     1      -6.030   0.649   0.800  0.00  0.00    +0.277 C 
ENDBRANCH  24  25
BRANCH  23  27
ATOM     27  O   UNL     1      -8.584   2.328   1.509  0.00  0.00    -0.491 OA
ATOM     28  C   UNL     1      -9.363   3.523   1.584  0.00  0.00    +0.277 C 
ENDBRANCH  23  27
ENDBRANCH   8  19
BRANCH   1  29
ATOM     29  S   UNL     1      -3.128  -1.164  -3.598  0.00  0.00    -0.085 S 
BRANCH  29  30
ATOM     30  C   UNL     1      -1.808  -1.101  -2.356  0.00  0.00    +0.051 C 
ATOM     31  C   UNL     1      -1.665  -2.473  -1.693  0.00  0.00    +0.019 C 
BRANCH  30  33
ATOM     32  C   UNL     1      -0.590   0.700  -3.587  0.00  0.00    +0.005 C 
ATOM     33  C   UNL     1      -0.489  -0.722  -3.033  0.00  0.00    +0.011 C 
ENDBRANCH  30  33
ENDBRANCH  29  30
ENDBRANCH   1  29
TORSDOF 6
