REMARK  Name = ZINC21583993
REMARK  12 active torsions:
REMARK  status: ('A' for Active; 'I' for Inactive)
REMARK    1  A    between atoms: C_1  and  C_2
REMARK    2  A    between atoms: C_2  and  O_3
REMARK    3  A    between atoms: O_3  and  C_4
REMARK    4  A    between atoms: C_4  and  C_6
REMARK    5  A    between atoms: C_7  and  C_19
REMARK    6  A    between atoms: C_12  and  C_14
REMARK    7  A    between atoms: C_19  and  N_20
REMARK    8  A    between atoms: N_20  and  C_21
REMARK    9  A    between atoms: N_20  and  C_22
REMARK   10  A    between atoms: C_22  and  C_23
REMARK   11  A    between atoms: C_28  and  O_33
REMARK   12  A    between atoms: O_33  and  C_34
REMARK                            x       y       z     vdW  Elec       q    Type
REMARK                         _______ _______ _______ _____ _____    ______ ____
ROOT
ATOM      1  C   UNL     1       3.260   3.001  11.451  0.00  0.00    +0.079 C 
ATOM      2  C   UNL     1       3.804   1.946  10.806  0.00  0.00    +0.008 C 
ATOM      3  N   UNL     1       5.142   1.900  10.534  0.00  0.00    -0.274 N 
ATOM      4  C   UNL     1       6.000   2.873  10.864  0.00  0.00    +0.304 C 
ATOM      5  O   UNL     1       7.174   2.745  10.574  0.00  0.00    -0.252 OA
ATOM      6  N   UNL     1       5.607   3.988  11.511  0.00  0.00    -0.285 N 
ATOM      7  C   UNL     1       4.183   4.132  11.857  0.00  0.00    +0.179 C 
ATOM      8  H   UNL     1       5.568   1.029  10.016  0.00  0.00    +0.156 HD
ATOM      9  H   UNL     1       6.322   4.780  11.781  0.00  0.00    +0.151 HD
ENDROOT
BRANCH   7  10
ATOM     10  C   UNL     1       4.082   4.302  13.351  0.00  0.00    +0.130 A 
ATOM     11  C   UNL     1       3.352   5.234  13.989  0.00  0.00    +0.047 A 
ATOM     12  C   UNL     1       3.547   5.030  15.374  0.00  0.00    +0.041 A 
ATOM     13  C   UNL     1       4.385   3.984  15.499  0.00  0.00    +0.195 A 
ATOM     14  O   UNL     1       4.700   3.544  14.271  0.00  0.00    -0.466 OA
ENDBRANCH   7  10
BRANCH   1  15
ATOM     15  C   UNL     1       1.876   3.047  11.738  0.00  0.00    +0.339 C 
ATOM     16  O   UNL     1       1.135   2.186  11.303  0.00  0.00    -0.245 OA
BRANCH  15  17
ATOM     17  O   UNL     1       1.377   4.048  12.495  0.00  0.00    -0.462 OA
BRANCH  17  19
ATOM     18  C   UNL     1      -0.407   5.234  13.612  0.00  0.00    +0.048 C 
ATOM     19  C   UNL     1      -0.030   4.032  12.744  0.00  0.00    +0.229 C 
ENDBRANCH  17  19
ENDBRANCH  15  17
ENDBRANCH   1  15
BRANCH   2  20
ATOM     20  C   UNL     1       2.922   0.799  10.386  0.00  0.00    -0.026 C 
BRANCH  20  21
ATOM     21  N   UNL     1       2.310   1.103   9.086  0.00  0.00    +0.384 N 
ATOM     22  C   UNL     1       3.304   1.034   8.007  0.00  0.00    -0.095 C 
ATOM     23  H   UNL     1       1.925   2.133   9.126  0.00  0.00    -0.081 HD
BRANCH  21  24
ATOM     24  C   UNL     1       1.176   0.208   8.816  0.00  0.00    -0.043 C 
BRANCH  24  25
ATOM     25  C   UNL     1       0.426   0.700   7.605  0.00  0.00    -0.063 A 
ATOM     26  C   UNL     1      -0.623   1.604   7.768  0.00  0.00    +0.002 A 
ATOM     27  C   UNL     1      -1.321   2.067   6.696  0.00  0.00    +0.009 A 
ATOM     28  C   UNL     1      -0.982   1.631   5.403  0.00  0.00    -0.014 A 
ATOM     29  C   UNL     1      -1.680   2.087   4.274  0.00  0.00    +0.054 A 
ATOM     30  C   UNL     1      -1.323   1.641   3.033  0.00  0.00    +0.121 A 
ATOM     31  C   UNL     1      -0.274   0.730   2.873  0.00  0.00    +0.046 A 
ATOM     32  C   UNL     1       0.425   0.273   3.946  0.00  0.00    +0.012 A 
ATOM     33  C   UNL     1       0.085   0.711   5.238  0.00  0.00    -0.017 A 
ATOM     34  C   UNL     1       0.782   0.255   6.369  0.00  0.00    +0.010 A 
BRANCH  30  35
ATOM     35  O   UNL     1      -2.000   2.083   1.941  0.00  0.00    -0.495 OA
ATOM     36  C   UNL     1      -1.580   1.581   0.671  0.00  0.00    +0.277 C 
ENDBRANCH  30  35
ENDBRANCH  24  25
ENDBRANCH  21  24
ENDBRANCH  20  21
ENDBRANCH   2  20
TORSDOF 9
