REMARK  Name = ZINC13998519
REMARK  4 active torsions:
REMARK  status: ('A' for Active; 'I' for Inactive)
REMARK    1  A    between atoms: C_1  and  C_2
REMARK    2  A    between atoms: C_7  and  C_25
REMARK    3  A    between atoms: N_9  and  C_10
REMARK    4  A    between atoms: C_10  and  N_11
REMARK                            x       y       z     vdW  Elec       q    Type
REMARK                         _______ _______ _______ _____ _____    ______ ____
ROOT
ATOM      1  N   UNL     1       0.975  -0.456   3.701  0.00  0.00    -0.340 N 
ATOM      2  C   UNL     1       1.918   0.369   4.293  0.00  0.00    +0.051 A 
ATOM      3  C   UNL     1       2.295   1.686   4.048  0.00  0.00    +0.026 A 
ATOM      4  C   UNL     1       3.285   2.273   4.806  0.00  0.00    +0.002 A 
ATOM      5  C   UNL     1       3.914   1.563   5.817  0.00  0.00    +0.001 A 
ATOM      6  C   UNL     1       3.555   0.257   6.074  0.00  0.00    +0.012 A 
ATOM      7  C   UNL     1       2.555  -0.348   5.316  0.00  0.00    +0.029 A 
ATOM      8  C   UNL     1       1.944  -1.688   5.327  0.00  0.00    +0.138 A 
ATOM      9  C   UNL     1       0.970  -1.688   4.307  0.00  0.00    +0.163 A 
ATOM     10  N   UNL     1       0.261  -2.795   4.111  0.00  0.00    -0.200 NA
ATOM     11  C   UNL     1       0.488  -3.855   4.877  0.00  0.00    +0.222 A 
ATOM     12  S   UNL     1      -0.451  -5.323   4.619  0.00  0.00    -0.008 SA
ATOM     13  N   UNL     1       1.410  -3.830   5.834  0.00  0.00    -0.121 NA
ATOM     14  N   UNL     1       2.126  -2.781   6.053  0.00  0.00    -0.143 NA
ENDROOT
BRANCH   1  15
ATOM     15  C   UNL     1       0.103  -0.067   2.590  0.00  0.00    +0.050 C 
BRANCH  15  22
ATOM     16  C   UNL     1      -0.366   1.727   0.481  0.00  0.00    -0.013 C 
ATOM     17  C   UNL     1      -0.009   0.263   0.219  0.00  0.00    -0.069 C 
ATOM     18  C   UNL     1       0.766   0.156  -1.097  0.00  0.00    -0.016 C 
ATOM     19  C   UNL     1       1.121  -1.311  -1.356  0.00  0.00    -0.003 C 
ATOM     20  C   UNL     1       1.920  -1.851  -0.166  0.00  0.00    -0.016 C 
ATOM     21  C   UNL     1       1.103  -1.669   1.115  0.00  0.00    -0.069 C 
ATOM     22  N   UNL     1       0.819  -0.243   1.320  0.00  0.00    +0.395 N 
ATOM     23  C   UNL     1      -0.214  -2.438   0.992  0.00  0.00    -0.013 C 
ATOM     24  H   UNL     1       1.687   0.271   1.351  0.00  0.00    -0.078 HD
ENDBRANCH  15  22
ENDBRANCH   1  15
TORSDOF 2
