REMARK  Name = ZINC00510145
REMARK  5 active torsions:
REMARK  status: ('A' for Active; 'I' for Inactive)
REMARK    1  A    between atoms: C_4  and  P_7
REMARK    2  A    between atoms: P_7  and  C_9
REMARK    3  A    between atoms: P_7  and  N_15
REMARK    4  A    between atoms: N_15  and  C_16
REMARK    5  A    between atoms: C_20  and  N_22
REMARK                            x       y       z     vdW  Elec       q    Type
REMARK                         _______ _______ _______ _____ _____    ______ ____
ROOT
ATOM      1  P   UNL     1       3.995  -0.865  -0.100  0.00  0.00    +0.221 P 
ATOM      2  O   UNL     1       4.370  -1.258   1.277  0.00  0.00    -0.291 OA
ENDROOT
BRANCH   1   6
ATOM      3  C   UNL     1      -0.048   1.283  -0.025  0.00  0.00    +0.000 A 
ATOM      4  C   UNL     1       1.115   1.991   0.212  0.00  0.00    +0.001 A 
ATOM      5  C   UNL     1       2.336   1.343   0.190  0.00  0.00    +0.013 A 
ATOM      6  C   UNL     1       2.393  -0.014  -0.069  0.00  0.00    +0.033 A 
ATOM      7  C   UNL     1       1.230  -0.722  -0.306  0.00  0.00    +0.013 A 
ATOM      8  C   UNL     1       0.009  -0.073  -0.285  0.00  0.00    +0.001 A 
ENDBRANCH   1   6
BRANCH   1   9
ATOM      9  C   UNL     1       3.874  -2.345  -1.141  0.00  0.00    +0.033 A 
ATOM     10  C   UNL     1       3.609  -3.574  -0.566  0.00  0.00    +0.013 A 
ATOM     11  C   UNL     1       3.516  -4.702  -1.359  0.00  0.00    +0.001 A 
ATOM     12  C   UNL     1       3.688  -4.602  -2.727  0.00  0.00    +0.000 A 
ATOM     13  C   UNL     1       3.952  -3.373  -3.302  0.00  0.00    +0.001 A 
ATOM     14  C   UNL     1       4.041  -2.244  -2.509  0.00  0.00    +0.013 A 
ENDBRANCH   1   9
BRANCH   1  15
ATOM     15  N   UNL     1       5.137   0.141  -0.711  0.00  0.00    -0.288 N 
ATOM     16  H   UNL     1       4.898   1.045  -0.971  0.00  0.00    +0.154 HD
BRANCH  15  17
ATOM     17  C   UNL     1       6.453  -0.303  -0.857  0.00  0.00    +0.035 A 
ATOM     18  C   UNL     1       6.825  -1.549  -0.369  0.00  0.00    +0.023 A 
ATOM     19  C   UNL     1       8.127  -1.985  -0.516  0.00  0.00    +0.004 A 
ATOM     20  C   UNL     1       9.060  -1.183  -1.148  0.00  0.00    +0.033 A 
ATOM     21  C   UNL     1       8.693   0.058  -1.635  0.00  0.00    +0.128 A 
ATOM     22  C   UNL     1       7.391   0.498  -1.496  0.00  0.00    +0.056 A 
BRANCH  21  23
ATOM     23  N   UNL     1       9.694   0.913  -2.309  0.00  0.00    +0.056 N 
ATOM     24  O   UNL     1      10.833   0.527  -2.435  0.00  0.00    -0.126 OA
ATOM     25  O   UNL     1       9.374   1.998  -2.735  0.00  0.00    -0.126 OA
ENDBRANCH  21  23
ENDBRANCH  15  17
ENDBRANCH   1  15
TORSDOF 5
