REMARK  Name = ZINC55491408
REMARK  5 active torsions:
REMARK  status: ('A' for Active; 'I' for Inactive)
REMARK    1  A    between atoms: C_1  and  C_2
REMARK    2  A    between atoms: C_2  and  C_4
REMARK    3  A    between atoms: C_2  and  N_10
REMARK    4  A    between atoms: C_11  and  C_13
REMARK    5  A    between atoms: C_13  and  C_14
REMARK                            x       y       z     vdW  Elec       q    Type
REMARK                         _______ _______ _______ _____ _____    ______ ____
ROOT
ATOM      1  C   UNL     1      -0.176  -1.203   4.739  0.00  0.00    +0.120 A 
ATOM      2  N   UNL     1       0.274  -1.625   5.948  0.00  0.00    -0.310 N 
ATOM      3  H   UNL     1       1.206  -1.875   6.048  0.00  0.00    +0.170 HD
ATOM      4  C   UNL     1      -0.546  -1.702   7.013  0.00  0.00    +0.260 A 
ATOM      5  O   UNL     1      -0.127  -2.082   8.092  0.00  0.00    -0.267 OA
ATOM      6  C   UNL     1      -1.922  -1.329   6.856  0.00  0.00    +0.075 A 
ATOM      7  C   UNL     1      -2.984  -1.334   7.861  0.00  0.00    -0.023 A 
ATOM      8  C   UNL     1      -4.209  -0.934   7.458  0.00  0.00    -0.004 A 
ATOM      9  S   UNL     1      -4.020  -0.533   5.742  0.00  0.00    -0.073 S 
ATOM     10  C   UNL     1      -2.293  -0.906   5.570  0.00  0.00    +0.116 A 
ATOM     11  N   UNL     1      -1.423  -0.852   4.566  0.00  0.00    -0.226 NA
ATOM     12  C   UNL     1      -5.454  -0.850   8.287  0.00  0.00    +0.043 C 
ATOM     13  C   UNL     1      -5.228  -1.641   9.583  0.00  0.00    +0.005 C 
ATOM     14  C   UNL     1      -3.877  -1.233  10.178  0.00  0.00    +0.005 C 
ATOM     15  C   UNL     1      -2.741  -1.768   9.304  0.00  0.00    +0.037 C 
ENDROOT
BRANCH   1  16
ATOM     16  C   UNL     1       0.780  -1.133   3.576  0.00  0.00    +0.170 C 
BRANCH  16  18
ATOM     17  N   UNL     1       0.711  -0.489   1.189  0.00  0.00    -0.308 N 
ATOM     18  C   UNL     1       0.051  -0.633   2.355  0.00  0.00    +0.221 C 
ATOM     19  O   UNL     1      -1.129  -0.361   2.423  0.00  0.00    -0.275 OA
ATOM     20  H   UNL     1       1.654  -0.707   1.135  0.00  0.00    +0.149 HD
BRANCH  17  22
ATOM     21  C   UNL     1      -0.019   1.526   0.010  0.00  0.00    +0.033 C 
ATOM     22  C   UNL     1       0.002  -0.004   0.002  0.00  0.00    +0.100 C 
BRANCH  22  23
ATOM     23  C   UNL     1       0.707  -0.490  -1.238  0.00  0.00    -0.027 A 
ATOM     24  C   UNL     1       2.089  -0.511  -1.284  0.00  0.00    +0.005 A 
ATOM     25  C   UNL     1       2.736  -0.957  -2.421  0.00  0.00    +0.000 A 
ATOM     26  C   UNL     1       2.002  -1.382  -3.512  0.00  0.00    +0.000 A 
ATOM     27  C   UNL     1       0.620  -1.362  -3.466  0.00  0.00    +0.000 A 
ATOM     28  C   UNL     1      -0.027  -0.920  -2.327  0.00  0.00    +0.005 A 
ENDBRANCH  22  23
ENDBRANCH  17  22
ENDBRANCH  16  18
ENDBRANCH   1  16
TORSDOF 4
