REMARK  Name = ZINC34934259
REMARK  11 active torsions:
REMARK  status: ('A' for Active; 'I' for Inactive)
REMARK    1  A    between atoms: C_1  and  C_2
REMARK    2  A    between atoms: C_2  and  C_3
REMARK    3  A    between atoms: C_2  and  C_4
REMARK    4  A    between atoms: C_4  and  C_6
REMARK    5  A    between atoms: C_4  and  N_24
REMARK    6  A    between atoms: N_8  and  C_9
REMARK    7  A    between atoms: C_9  and  C_10
REMARK    8  A    between atoms: C_10  and  C_11
REMARK    9  A    between atoms: C_11  and  C_12
REMARK   10  A    between atoms: C_11  and  C_18
REMARK   11  A    between atoms: N_27  and  C_28
REMARK                            x       y       z     vdW  Elec       q    Type
REMARK                         _______ _______ _______ _____ _____    ______ ____
ROOT
ATOM      1  C   UNL     1      -2.102  -3.080  -1.020  0.00  0.00    +0.234 C 
ATOM      2  O   UNL     1      -2.543  -4.033  -1.627  0.00  0.00    -0.274 OA
ATOM      3  N   UNL     1      -1.385  -3.271   0.105  0.00  0.00    -0.314 N 
ATOM      4  H   UNL     1      -0.971  -2.515   0.550  0.00  0.00    +0.149 HD
ENDROOT
BRANCH   1   5
ATOM      5  C   UNL     1      -2.355  -1.683  -1.524  0.00  0.00    +0.163 C 
BRANCH   5   6
ATOM      6  N   UNL     1      -3.486  -1.698  -2.456  0.00  0.00    -0.288 N 
ATOM      7  C   UNL     1      -4.216  -0.581  -2.647  0.00  0.00    +0.305 C 
ATOM      8  O   UNL     1      -3.937   0.438  -2.046  0.00  0.00    -0.252 OA
ATOM      9  N   UNL     1      -5.256  -0.595  -3.504  0.00  0.00    -0.267 N 
ATOM     10  H   UNL     1      -3.709  -2.511  -2.936  0.00  0.00    +0.151 HD
ATOM     11  H   UNL     1      -5.518  -1.423  -3.936  0.00  0.00    +0.156 HD
BRANCH   9  12
ATOM     12  C   UNL     1      -5.960   0.587  -3.770  0.00  0.00    +0.070 A 
ATOM     13  C   UNL     1      -6.069   1.567  -2.793  0.00  0.00    +0.026 A 
ATOM     14  C   UNL     1      -6.764   2.731  -3.059  0.00  0.00    +0.002 A 
ATOM     15  C   UNL     1      -7.350   2.923  -4.296  0.00  0.00    +0.003 A 
ATOM     16  C   UNL     1      -7.243   1.950  -5.273  0.00  0.00    +0.040 A 
ATOM     17  C   UNL     1      -6.545   0.784  -5.016  0.00  0.00    +0.145 A 
ATOM     18  F   UNL     1      -6.436  -0.164  -5.972  0.00  0.00    -0.204 F 
ENDBRANCH   9  12
ENDBRANCH   5   6
BRANCH   5  20
ATOM     19  C   UNL     1      -0.863  -2.002  -3.503  0.00  0.00    +0.009 C 
ATOM     20  C   UNL     1      -1.108  -1.167  -2.244  0.00  0.00    +0.012 C 
ATOM     21  C   UNL     1      -1.315   0.298  -2.636  0.00  0.00    +0.009 C 
ENDBRANCH   5  20
ENDBRANCH   1   5
BRANCH   3  22
ATOM     22  C   UNL     1      -1.232  -4.620   0.656  0.00  0.00    +0.105 C 
BRANCH  22  23
ATOM     23  C   UNL     1      -0.380  -4.558   1.926  0.00  0.00    +0.031 C 
BRANCH  23  24
ATOM     24  C   UNL     1      -0.219  -5.967   2.501  0.00  0.00    +0.050 C 
BRANCH  24  25
ATOM     25  C   UNL     1       0.565  -6.817   1.536  0.00  0.00    -0.040 A 
ATOM     26  C   UNL     1       0.051  -8.026   1.104  0.00  0.00    +0.004 A 
ATOM     27  C   UNL     1       0.771  -8.806   0.219  0.00  0.00    +0.000 A 
ATOM     28  C   UNL     1       2.004  -8.378  -0.236  0.00  0.00    +0.000 A 
ATOM     29  C   UNL     1       2.517  -7.168   0.195  0.00  0.00    +0.000 A 
ATOM     30  C   UNL     1       1.796  -6.386   1.077  0.00  0.00    +0.004 A 
ENDBRANCH  24  25
BRANCH  24  31
ATOM     31  C   UNL     1       0.514  -5.892   3.815  0.00  0.00    -0.040 A 
ATOM     32  C   UNL     1       1.713  -5.209   3.900  0.00  0.00    +0.004 A 
ATOM     33  C   UNL     1       2.386  -5.140   5.105  0.00  0.00    +0.000 A 
ATOM     34  C   UNL     1       1.860  -5.754   6.227  0.00  0.00    +0.000 A 
ATOM     35  C   UNL     1       0.660  -6.436   6.142  0.00  0.00    +0.000 A 
ATOM     36  C   UNL     1      -0.015  -6.501   4.938  0.00  0.00    +0.004 A 
ENDBRANCH  24  31
ENDBRANCH  23  24
ENDBRANCH  22  23
ENDBRANCH   3  22
TORSDOF 9
