REMARK  Name = ZINC45607388
REMARK  4 active torsions:
REMARK  status: ('A' for Active; 'I' for Inactive)
REMARK    1  A    between atoms: C_5  and  N_8
REMARK    2  A    between atoms: N_11  and  C_12
REMARK    3  A    between atoms: C_12  and  C_13
REMARK    4  A    between atoms: C_13  and  C_14
REMARK                            x       y       z     vdW  Elec       q    Type
REMARK                         _______ _______ _______ _____ _____    ______ ____
ROOT
ATOM      1  N   UNL     1       1.976  -1.046  -2.987  0.00  0.00    -0.297 N 
ATOM      2  C   UNL     1       2.617  -2.197  -2.702  0.00  0.00    +0.300 C 
ATOM      3  O   UNL     1       2.881  -2.475  -1.548  0.00  0.00    -0.253 OA
ATOM      4  N   UNL     1       2.964  -3.039  -3.695  0.00  0.00    -0.299 N 
ATOM      5  H   UNL     1       1.764  -0.824  -3.907  0.00  0.00    +0.151 HD
ATOM      6  H   UNL     1       2.753  -2.816  -4.615  0.00  0.00    +0.150 HD
ENDROOT
BRANCH   1  11
ATOM      7  C   UNL     1      -0.019   1.538   0.011  0.00  0.00    +0.000 C 
ATOM      8  C   UNL     1       1.401   2.036  -0.000  0.00  0.00    +0.000 C 
ATOM      9  C   UNL     1       1.910   2.335  -1.423  0.00  0.00    +0.002 C 
ATOM     10  C   UNL     1       1.480   1.268  -2.449  0.00  0.00    +0.022 C 
ATOM     11  C   UNL     1       1.598  -0.131  -1.907  0.00  0.00    +0.074 C 
ATOM     12  C   UNL     1       0.231  -0.548  -1.328  0.00  0.00    +0.022 C 
ATOM     13  C   UNL     1       0.002  -0.004   0.002  0.00  0.00    +0.002 C 
ENDBRANCH   1  11
BRANCH   4  14
ATOM     14  C   UNL     1       3.661  -4.290  -3.385  0.00  0.00    +0.113 C 
BRANCH  14  15
ATOM     15  C   UNL     1       3.937  -5.054  -4.681  0.00  0.00    +0.095 C 
BRANCH  15  16
ATOM     16  C   UNL     1       4.653  -6.341  -4.362  0.00  0.00    +0.135 A 
ATOM     17  N   UNL     1       5.947  -6.511  -4.286  0.00  0.00    -0.134 NA
ATOM     18  N   UNL     1       6.207  -7.736  -3.986  0.00  0.00    -0.134 NA
ATOM     19  C   UNL     1       5.093  -8.398  -3.854  0.00  0.00    +0.133 A 
ATOM     20  N   UNL     1       4.079  -7.535  -4.095  0.00  0.00    -0.315 N 
ATOM     21  C   UNL     1       2.649  -7.847  -4.085  0.00  0.00    +0.125 C 
ATOM     22  C   UNL     1       2.389  -9.012  -3.126  0.00  0.00    +0.022 C 
ATOM     23  C   UNL     1       2.517 -10.336  -3.878  0.00  0.00    +0.002 C 
ATOM     24  C   UNL     1       3.927 -10.500  -4.436  0.00  0.00    +0.008 C 
ATOM     25  C   UNL     1       4.935  -9.852  -3.491  0.00  0.00    +0.076 C 
ENDBRANCH  15  16
ENDBRANCH  14  15
ENDBRANCH   4  14
TORSDOF 4
