REMARK  Name = ZINC63557237
REMARK  9 active torsions:
REMARK  status: ('A' for Active; 'I' for Inactive)
REMARK    1  A    between atoms: C_1  and  C_2
REMARK    2  A    between atoms: C_2  and  C_3
REMARK    3  A    between atoms: C_3  and  C_4
REMARK    4  A    between atoms: C_3  and  C_6
REMARK    5  A    between atoms: C_4  and  C_5
REMARK    6  A    between atoms: C_13  and  C_15
REMARK    7  A    between atoms: N_20  and  C_22
REMARK    8  A    between atoms: C_22  and  C_23
REMARK    9  A    between atoms: C_23  and  C_24
REMARK                            x       y       z     vdW  Elec       q    Type
REMARK                         _______ _______ _______ _____ _____    ______ ____
ROOT
ATOM      1  C   UNL     1      -2.903  -6.580  -4.257  0.00  0.00    +0.101 C 
ATOM      2  C   UNL     1      -2.560  -5.890  -5.598  0.00  0.00    +0.110 C 
ATOM      3  C   UNL     1      -3.414  -6.612  -6.616  0.00  0.00    +0.216 C 
ATOM      4  O   UNL     1      -3.246  -6.573  -7.817  0.00  0.00    -0.276 OA
ATOM      5  N   UNL     1      -4.386  -7.304  -5.997  0.00  0.00    -0.300 N 
ATOM      6  C   UNL     1      -4.317  -7.135  -4.540  0.00  0.00    +0.121 C 
ENDROOT
BRANCH   1  13
ATOM      7  C   UNL     1      -1.413  -2.152   0.226  0.00  0.00    +0.157 C 
ATOM      8  N   UNL     1      -2.758  -2.732   0.013  0.00  0.00    -0.253 N 
ATOM      9  N   UNL     1      -2.843  -3.660  -1.001  0.00  0.00    -0.163 NA
ATOM     10  C   UNL     1      -1.830  -4.015  -1.728  0.00  0.00    +0.179 C 
ATOM     11  S   UNL     1      -0.475  -3.047  -1.081  0.00  0.00    -0.065 S 
ATOM     12  N   UNL     1      -1.804  -4.937  -2.771  0.00  0.00    -0.263 N 
ATOM     13  C   UNL     1      -2.932  -5.582  -3.128  0.00  0.00    +0.224 C 
ATOM     14  O   UNL     1      -3.970  -5.359  -2.542  0.00  0.00    -0.275 OA
ATOM     15  H   UNL     1      -3.525  -2.477   0.549  0.00  0.00    +0.169 HD
ATOM     16  H   UNL     1      -0.973  -5.115  -3.240  0.00  0.00    +0.157 HD
BRANCH   7  17
ATOM     17  C   UNL     1      -1.411  -0.642  -0.022  0.00  0.00    +0.021 C 
BRANCH  17  19
ATOM     18  C   UNL     1       0.621  -0.290   1.388  0.00  0.00    +0.004 C 
ATOM     19  C   UNL     1       0.029  -0.126  -0.013  0.00  0.00    +0.003 C 
ENDBRANCH  17  19
BRANCH  17  20
ATOM     20  C   UNL     1      -2.050  -0.348  -1.381  0.00  0.00    +0.003 C 
ATOM     21  C   UNL     1      -2.179   1.165  -1.567  0.00  0.00    +0.004 C 
ENDBRANCH  17  20
ENDBRANCH   7  17
ENDBRANCH   1  13
BRANCH   5  22
ATOM     22  C   UNL     1      -5.385  -8.124  -6.687  0.00  0.00    +0.112 C 
BRANCH  22  23
ATOM     23  C   UNL     1      -4.859  -9.553  -6.834  0.00  0.00    +0.052 C 
BRANCH  23  24
ATOM     24  C   UNL     1      -5.887 -10.396  -7.544  0.00  0.00    -0.040 C 
ATOM     25  C   UNL     1      -5.940 -10.671  -8.867  0.00  0.00    +0.002 A 
ATOM     26  C   UNL     1      -5.089 -10.281  -9.998  0.00  0.00    +0.048 A 
ATOM     27  C   UNL     1      -5.404 -10.722 -11.239  0.00  0.00    +0.124 A 
ATOM     28  C   UNL     1      -6.521 -11.541 -11.469  0.00  0.00    +0.040 A 
ATOM     29  C   UNL     1      -7.348 -11.939 -10.480  0.00  0.00    +0.029 A 
ATOM     30  C   UNL     1      -7.112 -11.535  -9.137  0.00  0.00    +0.043 A 
ATOM     31  N   UNL     1      -7.757 -11.785  -8.024  0.00  0.00    -0.380 N 
ATOM     32  C   UNL     1      -7.064 -11.112  -6.920  0.00  0.00    +0.144 C 
ATOM     33  F   UNL     1      -4.623 -10.364 -12.282  0.00  0.00    -0.205 F 
ATOM     34  H   UNL     1      -8.558 -12.327  -7.944  0.00  0.00    +0.160 HD
ENDBRANCH  23  24
ENDBRANCH  22  23
ENDBRANCH   5  22
TORSDOF 7
