REMARK  Name = ZINC38690127
REMARK  8 active torsions:
REMARK  status: ('A' for Active; 'I' for Inactive)
REMARK    1  A    between atoms: C_1  and  C_2
REMARK    2  A    between atoms: C_4  and  C_22
REMARK    3  A    between atoms: C_8  and  O_20
REMARK    4  A    between atoms: N_12  and  C_13
REMARK    5  A    between atoms: C_13  and  C_14
REMARK    6  A    between atoms: O_20  and  C_21
REMARK    7  A    between atoms: N_23  and  N_24
REMARK    8  A    between atoms: N_24  and  C_25
REMARK                            x       y       z     vdW  Elec       q    Type
REMARK                         _______ _______ _______ _____ _____    ______ ____
ROOT
ATOM      1  C   UNL     1      -0.019   1.526   0.010  0.00  0.00    +0.029 C 
ATOM      2  C   UNL     1       0.002  -0.004   0.002  0.00  0.00    +0.083 C 
ATOM      3  C   UNL     1       0.748  -0.520  -1.239  0.00  0.00    +0.084 C 
ATOM      4  C   UNL     1       1.916  -1.304  -0.683  0.00  0.00    -0.013 A 
ATOM      5  C   UNL     1       2.928  -1.995  -1.321  0.00  0.00    +0.051 A 
ATOM      6  C   UNL     1       3.901  -2.646  -0.579  0.00  0.00    +0.120 A 
ATOM      7  C   UNL     1       3.855  -2.600   0.806  0.00  0.00    +0.047 A 
ATOM      8  C   UNL     1       2.845  -1.911   1.443  0.00  0.00    +0.027 A 
ATOM      9  C   UNL     1       1.862  -1.254   0.700  0.00  0.00    +0.034 A 
ATOM     10  N   UNL     1       0.764  -0.508   1.148  0.00  0.00    -0.322 N 
ENDROOT
BRANCH   6  11
ATOM     11  O   UNL     1       4.898  -3.326  -1.207  0.00  0.00    -0.495 OA
ATOM     12  C   UNL     1       5.865  -3.972  -0.377  0.00  0.00    +0.277 C 
ENDBRANCH   6  11
BRANCH   3  13
ATOM     13  C   UNL     1       1.236   0.633  -2.077  0.00  0.00    +0.112 C 
ATOM     14  N   UNL     1       0.840   0.759  -3.287  0.00  0.00    -0.196 NA
BRANCH  14  15
ATOM     15  N   UNL     1       1.294   1.831  -4.066  0.00  0.00    -0.229 N 
ATOM     16  H   UNL     1       1.909   2.479  -3.687  0.00  0.00    +0.172 HD
BRANCH  15  17
ATOM     17  C   UNL     1       0.840   1.975  -5.451  0.00  0.00    +0.283 C 
ATOM     18  N   UNL     1       1.789   1.323  -6.363  0.00  0.00    -0.347 N 
ATOM     19  C   UNL     1       2.252   2.239  -7.164  0.00  0.00    +0.061 A 
ATOM     20  C   UNL     1       3.217   2.202  -8.271  0.00  0.00    +0.027 A 
ATOM     21  C   UNL     1       3.510   3.337  -8.937  0.00  0.00    +0.002 A 
ATOM     22  C   UNL     1       2.925   4.575  -8.617  0.00  0.00    +0.002 A 
ATOM     23  C   UNL     1       2.029   4.720  -7.620  0.00  0.00    +0.027 A 
ATOM     24  C   UNL     1       1.634   3.550  -6.825  0.00  0.00    +0.061 A 
ATOM     25  N   UNL     1       0.812   3.394  -5.828  0.00  0.00    -0.347 N 
ATOM     26  H   UNL     1       2.027   0.383  -6.367  0.00  0.00    +0.163 HD
ATOM     27  H   UNL     1       0.278   4.088  -5.410  0.00  0.00    +0.163 HD
ENDBRANCH  15  17
ENDBRANCH  14  15
ENDBRANCH   3  13
BRANCH  10  28
ATOM     28  C   UNL     1       0.425  -0.267   2.553  0.00  0.00    +0.140 C 
BRANCH  28  29
ATOM     29  C   UNL     1      -0.486  -1.362   3.045  0.00  0.00    -0.030 A 
ATOM     30  C   UNL     1      -1.857  -1.225   2.926  0.00  0.00    +0.005 A 
ATOM     31  C   UNL     1      -2.693  -2.229   3.378  0.00  0.00    +0.000 A 
ATOM     32  C   UNL     1      -2.158  -3.369   3.948  0.00  0.00    +0.000 A 
ATOM     33  C   UNL     1      -0.788  -3.506   4.066  0.00  0.00    +0.000 A 
ATOM     34  C   UNL     1       0.049  -2.504   3.610  0.00  0.00    +0.005 A 
ENDBRANCH  28  29
ENDBRANCH  10  28
TORSDOF 6
