REMARK  Name = ZINC02841696
REMARK  5 active torsions:
REMARK  status: ('A' for Active; 'I' for Inactive)
REMARK    1  A    between atoms: C_1  and  C_2
REMARK    2  A    between atoms: C_5  and  C_8
REMARK    3  A    between atoms: C_8  and  N_9
REMARK    4  A    between atoms: C_16  and  C_19
REMARK    5  A    between atoms: C_16  and  O_29
REMARK                            x       y       z     vdW  Elec       q    Type
REMARK                         _______ _______ _______ _____ _____    ______ ____
ROOT
ATOM      1  N   UNL     1       1.447  -4.746  -0.032  0.00  0.00    -0.264 N 
ATOM      2  C   UNL     1       2.179  -4.984  -1.196  0.00  0.00    +0.044 A 
ATOM      3  C   UNL     1       1.825  -4.853  -2.537  0.00  0.00    +0.025 A 
ATOM      4  C   UNL     1       2.737  -5.154  -3.527  0.00  0.00    +0.022 A 
ATOM      5  C   UNL     1       4.009  -5.588  -3.198  0.00  0.00    +0.041 A 
ATOM      6  C   UNL     1       4.368  -5.721  -1.867  0.00  0.00    +0.029 A 
ATOM      7  C   UNL     1       3.459  -5.421  -0.877  0.00  0.00    +0.020 A 
ATOM      8  C   UNL     1       3.532  -5.458   0.632  0.00  0.00    +0.196 C 
ATOM      9  C   UNL     1       2.163  -4.992   1.079  0.00  0.00    +0.261 C 
ATOM     10  O   UNL     1       1.782  -4.867   2.223  0.00  0.00    -0.271 OA
ATOM     11 CL   UNL     1       5.152  -5.966  -4.449  0.00  0.00    -0.084 Cl
ENDROOT
BRANCH   8  12
ATOM     12  C   UNL     1       3.800  -6.862   1.112  0.00  0.00    +0.022 A 
ATOM     13  C   UNL     1       4.850  -7.269   1.842  0.00  0.00    +0.091 A 
ATOM     14  N   UNL     1       4.755  -8.611   2.089  0.00  0.00    -0.360 N 
ATOM     15  H   UNL     1       5.397  -9.131   2.597  0.00  0.00    +0.165 HD
ATOM     16  C   UNL     1       3.611  -9.114   1.509  0.00  0.00    +0.047 A 
ATOM     17  C   UNL     1       2.959  -8.038   0.877  0.00  0.00    +0.006 A 
ATOM     18  C   UNL     1       1.756  -8.252   0.204  0.00  0.00    +0.010 A 
ATOM     19  C   UNL     1       1.214  -9.506   0.164  0.00  0.00    +0.001 A 
ATOM     20  C   UNL     1       1.851 -10.569   0.789  0.00  0.00    +0.002 A 
ATOM     21  C   UNL     1       3.044 -10.382   1.452  0.00  0.00    +0.026 A 
ENDBRANCH   8  12
BRANCH   8  22
ATOM     22  O   UNL     1       4.540  -4.564   1.107  0.00  0.00    -0.371 OA
ATOM     23  H   UNL     1       4.630  -4.548   2.069  0.00  0.00    +0.212 HD
ENDBRANCH   8  22
BRANCH   1  24
ATOM     24  C   UNL     1       0.059  -4.275  -0.021  0.00  0.00    +0.149 C 
BRANCH  24  29
ATOM     25  C   UNL     1      -0.018   1.503   0.010  0.00  0.00    +0.044 C 
ATOM     26  C   UNL     1       0.002  -0.004   0.002  0.00  0.00    -0.050 A 
ATOM     27  C   UNL     1       0.006  -0.689  -1.199  0.00  0.00    +0.003 A 
ATOM     28  C   UNL     1       0.025  -2.071  -1.206  0.00  0.00    +0.005 A 
ATOM     29  C   UNL     1       0.040  -2.768  -0.013  0.00  0.00    -0.030 A 
ATOM     30  C   UNL     1       0.037  -2.084   1.188  0.00  0.00    +0.005 A 
ATOM     31  C   UNL     1       0.023  -0.702   1.195  0.00  0.00    +0.003 A 
ENDBRANCH  24  29
ENDBRANCH   1  24
TORSDOF 4
