REMARK  Name = ZINC36863827
REMARK  5 active torsions:
REMARK  status: ('A' for Active; 'I' for Inactive)
REMARK    1  A    between atoms: C_1  and  C_2
REMARK    2  A    between atoms: C_2  and  C_3
REMARK    3  A    between atoms: C_3  and  N_4
REMARK    4  A    between atoms: C_6  and  N_23
REMARK    5  A    between atoms: C_8  and  C_9
REMARK                            x       y       z     vdW  Elec       q    Type
REMARK                         _______ _______ _______ _____ _____    ______ ____
ROOT
ATOM      1  C   UNL     1      -1.051  -2.368   2.832  0.00  0.00    +0.263 C 
ATOM      2  O   UNL     1      -0.930  -3.259   3.652  0.00  0.00    -0.268 OA
ATOM      3  N   UNL     1      -0.900  -1.082   3.206  0.00  0.00    -0.293 N 
ATOM      4  C   UNL     1      -1.020   0.006   2.226  0.00  0.00    +0.108 C 
ATOM      5  C   UNL     1       0.240   0.874   2.289  0.00  0.00    +0.019 C 
ATOM      6  C   UNL     1       0.464   1.343   3.729  0.00  0.00    +0.007 C 
ATOM      7  C   UNL     1       0.656   0.127   4.635  0.00  0.00    +0.010 C 
ATOM      8  C   UNL     1      -0.615  -0.734   4.608  0.00  0.00    +0.079 C 
ATOM      9  C   UNL     1      -1.794   0.070   5.161  0.00  0.00    +0.023 C 
ATOM     10  C   UNL     1      -1.495   0.503   6.597  0.00  0.00    +0.002 C 
ATOM     11  C   UNL     1      -0.241   1.380   6.611  0.00  0.00    +0.000 C 
ATOM     12  C   UNL     1       0.934   0.578   6.067  0.00  0.00    +0.005 C 
ENDROOT
BRANCH   1  17
ATOM     13  N   UNL     1      -1.063  -3.871   0.791  0.00  0.00    -0.341 N 
ATOM     14  C   UNL     1      -1.518  -3.795  -0.488  0.00  0.00    +0.109 A 
ATOM     15  C   UNL     1      -2.101  -2.581  -0.673  0.00  0.00    +0.043 A 
ATOM     16  C   UNL     1      -2.007  -1.873   0.533  0.00  0.00    +0.055 A 
ATOM     17  C   UNL     1      -1.363  -2.693   1.436  0.00  0.00    +0.106 A 
BRANCH  15  18
ATOM     18  N   UNL     1      -2.693  -2.118  -1.863  0.00  0.00    -0.357 N 
ATOM     19  H   UNL     1      -2.709  -2.685  -2.650  0.00  0.00    +0.142 HD
ATOM     20  H   UNL     1      -3.085  -1.231  -1.896  0.00  0.00    +0.142 HD
ENDBRANCH  15  18
BRANCH  13  21
ATOM     21  C   UNL     1      -0.374  -5.019   1.385  0.00  0.00    +0.122 C 
BRANCH  21  23
ATOM     22  C   UNL     1      -0.659  -7.046   2.817  0.00  0.00    +0.005 C 
ATOM     23  C   UNL     1      -1.392  -5.915   2.092  0.00  0.00    +0.018 C 
ENDBRANCH  21  23
ENDBRANCH  13  21
ENDBRANCH   1  17
TORSDOF 4
