REMARK  Name = ZINC27664164
REMARK  6 active torsions:
REMARK  status: ('A' for Active; 'I' for Inactive)
REMARK    1  A    between atoms: C_4  and  O_35
REMARK    2  A    between atoms: C_5  and  C_7
REMARK    3  A    between atoms: N_15  and  C_25
REMARK    4  A    between atoms: C_16  and  C_18
REMARK    5  A    between atoms: C_21  and  O_24
REMARK    6  A    between atoms: C_25  and  C_26
REMARK                            x       y       z     vdW  Elec       q    Type
REMARK                         _______ _______ _______ _____ _____    ______ ____
ROOT
ATOM      1  C   UNL     1       1.349  -2.477   0.169  0.00  0.00    +0.102 A 
ATOM      2  C   UNL     1       0.145  -3.189   0.166  0.00  0.00    +0.035 A 
ATOM      3  C   UNL     1       0.497  -4.523   0.082  0.00  0.00    +0.126 A 
ATOM      4  N   UNL     1       1.862  -4.554   0.040  0.00  0.00    -0.272 N 
ATOM      5  H   UNL     1       2.399  -5.359  -0.021  0.00  0.00    +0.189 HD
ATOM      6  N   UNL     1       2.328  -3.357   0.086  0.00  0.00    -0.173 NA
ATOM      7  C   UNL     1      -0.729  -5.329   0.075  0.00  0.00    +0.266 C 
ATOM      8  O   UNL     1      -0.762  -6.543   0.010  0.00  0.00    -0.268 OA
ATOM      9  N   UNL     1      -1.812  -4.535   0.151  0.00  0.00    -0.281 N 
ATOM     10  C   UNL     1      -1.357  -3.139   0.213  0.00  0.00    +0.142 C 
ENDROOT
BRANCH   1  15
ATOM     11  C   UNL     1       0.855   1.193  -0.485  0.00  0.00    +0.001 A 
ATOM     12  C   UNL     1       1.775   1.752   0.384  0.00  0.00    +0.004 A 
ATOM     13  C   UNL     1       2.559   0.944   1.184  0.00  0.00    +0.046 A 
ATOM     14  C   UNL     1       2.427  -0.434   1.121  0.00  0.00    +0.126 A 
ATOM     15  C   UNL     1       1.498  -1.002   0.244  0.00  0.00    +0.044 A 
ATOM     16  C   UNL     1       0.713  -0.178  -0.558  0.00  0.00    +0.014 A 
BRANCH  14  17
ATOM     17  O   UNL     1       3.197  -1.230   1.907  0.00  0.00    -0.506 OA
ATOM     18  H   UNL     1       2.805  -1.431   2.768  0.00  0.00    +0.292 HD
ENDBRANCH  14  17
ENDBRANCH   1  15
BRANCH  10  19
ATOM     19  C   UNL     1      -1.815  -2.502   1.500  0.00  0.00    -0.022 A 
ATOM     20  C   UNL     1      -1.591  -3.142   2.705  0.00  0.00    +0.009 A 
ATOM     21  C   UNL     1      -2.010  -2.560   3.886  0.00  0.00    +0.046 A 
ATOM     22  C   UNL     1      -2.655  -1.333   3.862  0.00  0.00    +0.117 A 
ATOM     23  C   UNL     1      -2.878  -0.692   2.652  0.00  0.00    +0.046 A 
ATOM     24  C   UNL     1      -2.453  -1.276   1.474  0.00  0.00    +0.009 A 
BRANCH  22  25
ATOM     25  O   UNL     1      -3.069  -0.758   5.022  0.00  0.00    -0.507 OA
ATOM     26  H   UNL     1      -2.410  -0.181   5.432  0.00  0.00    +0.292 HD
ENDBRANCH  22  25
ENDBRANCH  10  19
BRANCH   9  27
ATOM     27  C   UNL     1      -3.207  -4.984   0.169  0.00  0.00    +0.144 C 
BRANCH  27  28
ATOM     28  C   UNL     1      -3.642  -5.215   1.593  0.00  0.00    -0.026 A 
ATOM     29  C   UNL     1      -3.470  -6.458   2.174  0.00  0.00    +0.009 A 
ATOM     30  C   UNL     1      -3.867  -6.674   3.480  0.00  0.00    +0.050 A 
ATOM     31  C   UNL     1      -4.440  -5.645   4.210  0.00  0.00    +0.166 A 
ATOM     32  C   UNL     1      -4.613  -4.394   3.625  0.00  0.00    +0.167 A 
ATOM     33  C   UNL     1      -4.207  -4.182   2.317  0.00  0.00    +0.054 A 
ATOM     34  O   UNL     1      -5.192  -3.561   4.539  0.00  0.00    -0.453 OA
ATOM     35  C   UNL     1      -5.743  -4.424   5.551  0.00  0.00    +0.466 C 
ATOM     36  O   UNL     1      -4.909  -5.597   5.491  0.00  0.00    -0.453 OA
ENDBRANCH  27  28
ENDBRANCH   9  27
TORSDOF 6
