REMARK  Name = ZINC05230544
REMARK  12 active torsions:
REMARK  status: ('A' for Active; 'I' for Inactive)
REMARK    1  A    between atoms: C_1  and  C_2
REMARK    2  A    between atoms: C_2  and  C_4
REMARK    3  A    between atoms: C_2  and  C_10
REMARK    4  A    between atoms: C_4  and  C_5
REMARK    5  A    between atoms: C_5  and  C_6
REMARK    6  A    between atoms: C_6  and  C_7
REMARK    7  A    between atoms: C_7  and  C_8
REMARK    8  A    between atoms: C_7  and  C_9
REMARK    9  A    between atoms: C_16  and  C_36
REMARK   10  A    between atoms: C_26  and  O_35
REMARK   11  A    between atoms: C_27  and  C_34
REMARK   12  A    between atoms: C_30  and  O_33
REMARK                            x       y       z     vdW  Elec       q    Type
REMARK                         _______ _______ _______ _____ _____    ______ ____
ROOT
ATOM      1  C   UNL     1       0.858  -0.325   1.274  0.00  0.00    -0.002 C 
ATOM      2  C   UNL     1       0.096  -0.128   2.611  0.00  0.00    +0.004 C 
ATOM      3  C   UNL     1       0.317  -1.431   3.436  0.00  0.00    +0.004 C 
ATOM      4  C   UNL     1       1.547  -2.035   2.741  0.00  0.00    -0.001 C 
ATOM      5  C   UNL     1       1.178  -1.839   1.256  0.00  0.00    -0.026 C 
ATOM      6  C   UNL     1       2.319  -2.240   0.364  0.00  0.00    +0.007 C 
ATOM      7  C   UNL     1       2.922  -3.591   0.769  0.00  0.00    +0.005 C 
ATOM      8  C   UNL     1       2.117  -4.299   1.840  0.00  0.00    +0.002 C 
ATOM      9  C   UNL     1       1.928  -3.441   3.082  0.00  0.00    +0.004 C 
ATOM     10  C   UNL     1       0.951  -4.121   4.043  0.00  0.00    +0.081 C 
ATOM     11  C   UNL     1       1.529  -5.490   4.373  0.00  0.00    +0.165 C 
ATOM     12  O   UNL     1       0.980  -6.231   5.158  0.00  0.00    -0.294 OA
ATOM     13  C   UNL     1       2.813  -5.878   3.683  0.00  0.00    +0.131 C 
ATOM     14  C   UNL     1       2.667  -5.679   2.178  0.00  0.00    +0.007 C 
ATOM     15  C   UNL     1       3.999  -5.962   1.497  0.00  0.00    +0.012 C 
ATOM     16  C   UNL     1       4.461  -7.386   1.806  0.00  0.00    +0.032 C 
ATOM     17  C   UNL     1       4.520  -7.646   3.308  0.00  0.00    +0.118 C 
ATOM     18  C   UNL     1       3.179  -7.334   3.978  0.00  0.00    +0.074 C 
ATOM     19  C   UNL     1       1.631  -6.680   1.644  0.00  0.00    +0.015 C 
ATOM     20  C   UNL     1      -0.119  -2.543   0.858  0.00  0.00    +0.012 C 
ENDROOT
BRANCH   1  22
ATOM     21  C   UNL     1      -0.483   1.485   0.201  0.00  0.00    +0.008 C 
ATOM     22  C   UNL     1      -0.040   0.025   0.090  0.00  0.00    -0.010 C 
BRANCH  22  23
ATOM     23  C   UNL     1       0.734  -0.176  -1.214  0.00  0.00    +0.003 C 
BRANCH  23  24
ATOM     24  C   UNL     1      -0.172   0.157  -2.401  0.00  0.00    +0.001 C 
BRANCH  24  25
ATOM     25  C   UNL     1       0.602  -0.044  -3.706  0.00  0.00    +0.003 C 
BRANCH  25  26
ATOM     26  C   UNL     1      -0.304   0.288  -4.893  0.00  0.00    -0.017 C 
ATOM     27  C   UNL     1      -0.663   1.775  -4.860  0.00  0.00    +0.007 C 
ATOM     28  C   UNL     1       0.428  -0.031  -6.198  0.00  0.00    +0.007 C 
ENDBRANCH  25  26
ENDBRANCH  24  25
ENDBRANCH  23  24
ENDBRANCH  22  23
ENDBRANCH   1  22
BRANCH  17  29
ATOM     29  O   UNL     1       4.849  -9.020   3.537  0.00  0.00    -0.392 OA
ATOM     30  H   UNL     1       5.701  -9.287   3.166  0.00  0.00    +0.210 HD
ENDBRANCH  17  29
BRANCH  13  31
ATOM     31  O   UNL     1       3.888  -5.068   4.180  0.00  0.00    -0.380 OA
ATOM     32  H   UNL     1       4.038  -5.155   5.131  0.00  0.00    +0.211 HD
ENDBRANCH  13  31
TORSDOF 7
