REMARK  Name = ZINC17231548
REMARK  7 active torsions:
REMARK  status: ('A' for Active; 'I' for Inactive)
REMARK    1  A    between atoms: C_1  and  C_2
REMARK    2  A    between atoms: C_8  and  C_10
REMARK    3  A    between atoms: C_10  and  C_12
REMARK    4  A    between atoms: C_10  and  S_18
REMARK    5  A    between atoms: S_18  and  C_19
REMARK    6  A    between atoms: N_29  and  C_30
REMARK    7  A    between atoms: C_30  and  C_31
REMARK                            x       y       z     vdW  Elec       q    Type
REMARK                         _______ _______ _______ _____ _____    ______ ____
ROOT
ATOM      1  C   UNL     1      -1.027   3.905   0.028  0.00  0.00    +0.170 C 
ENDROOT
BRANCH   1   9
ATOM      2  C   UNL     1      -6.680   7.956   0.587  0.00  0.00    +0.089 C 
ATOM      3  C   UNL     1      -5.194   7.735   0.710  0.00  0.00    +0.136 A 
ATOM      4  C   UNL     1      -4.520   6.596   0.433  0.00  0.00    +0.091 A 
ATOM      5  C   UNL     1      -3.167   6.921   0.714  0.00  0.00    +0.168 A 
ATOM      6  N   UNL     1      -3.167   8.164   1.119  0.00  0.00    -0.063 NA
ATOM      7  O   UNL     1      -4.282   8.630   1.117  0.00  0.00    -0.358 OA
ATOM      8  N   UNL     1      -2.060   6.081   0.590  0.00  0.00    -0.267 N 
ATOM      9  C   UNL     1      -2.222   4.813   0.162  0.00  0.00    +0.236 C 
ATOM     10  O   UNL     1      -3.329   4.402  -0.114  0.00  0.00    -0.274 OA
ATOM     11  H   UNL     1      -1.175   6.409   0.811  0.00  0.00    +0.156 HD
ENDBRANCH   1   9
BRANCH   1  12
ATOM     12  C   UNL     1      -0.308   4.208  -1.261  0.00  0.00    -0.025 A 
ATOM     13  C   UNL     1      -0.966   4.067  -2.469  0.00  0.00    +0.005 A 
ATOM     14  C   UNL     1      -0.308   4.349  -3.651  0.00  0.00    +0.000 A 
ATOM     15  C   UNL     1       1.011   4.764  -3.627  0.00  0.00    +0.000 A 
ATOM     16  C   UNL     1       1.670   4.899  -2.420  0.00  0.00    +0.000 A 
ATOM     17  C   UNL     1       1.011   4.621  -1.237  0.00  0.00    +0.005 A 
ENDBRANCH   1  12
BRANCH   1  18
ATOM     18  S   UNL     1      -1.577   2.180   0.021  0.00  0.00    -0.070 S 
BRANCH  18  19
ATOM     19  C   UNL     1      -0.016   1.361   0.009  0.00  0.00    +0.173 A 
ATOM     20  N   UNL     1       1.072   2.091   0.003  0.00  0.00    -0.223 NA
ATOM     21  C   UNL     1       2.298   1.531  -0.012  0.00  0.00    +0.079 A 
ATOM     22  C   UNL     1       3.459   2.310  -0.019  0.00  0.00    +0.028 A 
ATOM     23  C   UNL     1       4.682   1.701  -0.035  0.00  0.00    +0.002 A 
ATOM     24  C   UNL     1       4.790   0.316  -0.044  0.00  0.00    +0.001 A 
ATOM     25  C   UNL     1       3.673  -0.473  -0.037  0.00  0.00    +0.015 A 
ATOM     26  C   UNL     1       2.412   0.122  -0.021  0.00  0.00    +0.065 A 
ATOM     27  C   UNL     1       1.178  -0.674  -0.013  0.00  0.00    +0.263 A 
ATOM     28  O   UNL     1       1.211  -1.891  -0.021  0.00  0.00    -0.267 OA
ATOM     29  N   UNL     1       0.002  -0.004   0.002  0.00  0.00    -0.283 N 
BRANCH  29  30
ATOM     30  C   UNL     1      -1.260  -0.749   0.010  0.00  0.00    +0.154 C 
BRANCH  30  31
ATOM     31  C   UNL     1      -1.706  -0.997  -1.408  0.00  0.00    -0.013 C 
ATOM     32  C   UNL     1      -1.954  -2.217  -1.813  0.00  0.00    +0.005 C 
ENDBRANCH  30  31
ENDBRANCH  29  30
ENDBRANCH  18  19
ENDBRANCH   1  18
TORSDOF 6
