REMARK  Name = ZINC46762042
REMARK  10 active torsions:
REMARK  status: ('A' for Active; 'I' for Inactive)
REMARK    1  A    between atoms: C_1  and  C_2
REMARK    2  A    between atoms: C_5  and  C_32
REMARK    3  A    between atoms: N_8  and  C_10
REMARK    4  A    between atoms: C_10  and  C_11
REMARK    5  A    between atoms: C_11  and  C_12
REMARK    6  A    between atoms: C_12  and  C_13
REMARK    7  A    between atoms: C_13  and  N_14
REMARK    8  A    between atoms: N_17  and  N_18
REMARK    9  A    between atoms: C_19  and  C_21
REMARK   10  A    between atoms: C_21  and  C_22
REMARK                            x       y       z     vdW  Elec       q    Type
REMARK                         _______ _______ _______ _____ _____    ______ ____
ROOT
ATOM      1  N   UNL     1       5.080   0.042   6.073  0.00  0.00    -0.298 N 
ATOM      2  C   UNL     1       6.321   0.522   6.290  0.00  0.00    +0.316 C 
ATOM      3  O   UNL     1       6.816   1.305   5.503  0.00  0.00    -0.251 OA
ATOM      4  N   UNL     1       7.013   0.133   7.379  0.00  0.00    -0.218 N 
ATOM      5  H   UNL     1       4.685  -0.583   6.701  0.00  0.00    +0.150 HD
ATOM      6  H   UNL     1       7.906   0.478   7.535  0.00  0.00    +0.174 HD
ENDROOT
BRANCH   4   7
ATOM      7  N   UNL     1       6.442  -0.770   8.286  0.00  0.00    -0.233 N 
ATOM      8  C   UNL     1       7.134  -1.160   9.375  0.00  0.00    +0.234 C 
ATOM      9  O   UNL     1       8.251  -0.728   9.570  0.00  0.00    -0.274 OA
ATOM     10  H   UNL     1       5.549  -1.115   8.130  0.00  0.00    +0.173 HD
BRANCH   8  11
ATOM     11  C   UNL     1       6.521  -2.131  10.350  0.00  0.00    +0.134 C 
BRANCH  11  12
ATOM     12  C   UNL     1       7.492  -2.400  11.470  0.00  0.00    -0.014 A 
ATOM     13  C   UNL     1       8.364  -3.418  11.544  0.00  0.00    +0.087 A 
ATOM     14  N   UNL     1       9.081  -3.336  12.707  0.00  0.00    -0.360 N 
ATOM     15  H   UNL     1       9.770  -3.960  12.982  0.00  0.00    +0.165 HD
ATOM     16  C   UNL     1       8.678  -2.234  13.428  0.00  0.00    +0.047 A 
ATOM     17  C   UNL     1       7.670  -1.596  12.682  0.00  0.00    +0.003 A 
ATOM     18  C   UNL     1       7.072  -0.433  13.171  0.00  0.00    +0.010 A 
ATOM     19  C   UNL     1       7.472   0.082  14.372  0.00  0.00    +0.001 A 
ATOM     20  C   UNL     1       8.469  -0.541  15.109  0.00  0.00    +0.002 A 
ATOM     21  C   UNL     1       9.066  -1.695  14.650  0.00  0.00    +0.026 A 
ENDBRANCH  11  12
ENDBRANCH   8  11
ENDBRANCH   4   7
BRANCH   1  22
ATOM     22  C   UNL     1       4.328   0.465   4.889  0.00  0.00    +0.106 C 
BRANCH  22  23
ATOM     23  C   UNL     1       2.960  -0.221   4.882  0.00  0.00    +0.017 C 
BRANCH  23  24
ATOM     24  C   UNL     1       2.174   0.221   3.646  0.00  0.00    -0.017 C 
BRANCH  24  25
ATOM     25  C   UNL     1       0.807  -0.464   3.639  0.00  0.00    -0.079 C 
BRANCH  25  31
ATOM     26  C   UNL     1      -0.019   1.526   0.010  0.00  0.00    +0.005 C 
ATOM     27  C   UNL     1       0.002  -0.004   0.002  0.00  0.00    -0.031 C 
ATOM     28  C   UNL     1      -1.434  -0.535   0.015  0.00  0.00    +0.003 C 
ATOM     29  C   UNL     1      -2.117  -0.099   1.315  0.00  0.00    -0.031 C 
ATOM     30  C   UNL     1      -1.302  -0.604   2.507  0.00  0.00    -0.076 C 
ATOM     31  N   UNL     1       0.052  -0.040   2.452  0.00  0.00    +0.380 N 
ATOM     32  C   UNL     1       0.740  -0.512   1.242  0.00  0.00    -0.076 C 
ATOM     33  C   UNL     1      -3.528  -0.689   1.373  0.00  0.00    +0.005 C 
ATOM     34  H   UNL     1      -0.004   0.967   2.434  0.00  0.00    -0.082 HD
ENDBRANCH  25  31
ENDBRANCH  24  25
ENDBRANCH  23  24
ENDBRANCH  22  23
ENDBRANCH   1  22
TORSDOF 8
