REMARK  Name = ZINC08723354
REMARK  9 active torsions:
REMARK  status: ('A' for Active; 'I' for Inactive)
REMARK    1  A    between atoms: C_1  and  C_2
REMARK    2  A    between atoms: C_5  and  C_8
REMARK    3  A    between atoms: C_8  and  S_9
REMARK    4  A    between atoms: S_9  and  C_10
REMARK    5  A    between atoms: C_13  and  C_16
REMARK    6  A    between atoms: C_21  and  N_22
REMARK    7  A    between atoms: N_22  and  C_23
REMARK    8  A    between atoms: C_25  and  C_36
REMARK    9  A    between atoms: N_27  and  C_30
REMARK                            x       y       z     vdW  Elec       q    Type
REMARK                         _______ _______ _______ _____ _____    ______ ____
ROOT
ATOM      1  C   UNL     1       1.161 -10.723  -0.050  0.00  0.00    +0.029 A 
ATOM      2  C   UNL     1       2.271 -11.558  -0.160  0.00  0.00    +0.012 A 
ATOM      3  C   UNL     1       2.104 -12.927  -0.180  0.00  0.00    +0.001 A 
ATOM      4  C   UNL     1       0.836 -13.477  -0.091  0.00  0.00    +0.002 A 
ATOM      5  C   UNL     1      -0.272 -12.660   0.019  0.00  0.00    +0.024 A 
ATOM      6  C   UNL     1      -0.120 -11.281   0.046  0.00  0.00    +0.040 A 
ENDROOT
BRANCH   1  10
ATOM      7  C   UNL     1       1.640  -6.615   0.019  0.00  0.00    +0.213 A 
ATOM      8  N   UNL     1       2.263  -7.293  -0.938  0.00  0.00    -0.180 NA
ATOM      9  C   UNL     1       2.134  -8.613  -0.994  0.00  0.00    +0.300 A 
ATOM     10  C   UNL     1       1.335  -9.252  -0.028  0.00  0.00    +0.161 A 
ATOM     11  N   UNL     1       0.739  -8.516   0.903  0.00  0.00    -0.141 NA
ATOM     12  N   UNL     1       0.895  -7.239   0.924  0.00  0.00    -0.122 NA
ATOM     13  O   UNL     1       2.758  -9.329  -1.959  0.00  0.00    -0.263 OA
BRANCH   7  14
ATOM     14  S   UNL     1       1.811  -4.863   0.093  0.00  0.00    -0.080 S 
BRANCH  14  15
ATOM     15  C   UNL     1       0.808  -4.385   1.528  0.00  0.00    +0.112 C 
BRANCH  15  20
ATOM     16  C   UNL     1       1.037   1.348   2.216  0.00  0.00    +0.044 C 
ATOM     17  C   UNL     1       0.977  -0.147   2.036  0.00  0.00    -0.050 A 
ATOM     18  C   UNL     1      -0.006  -0.709   1.243  0.00  0.00    +0.003 A 
ATOM     19  C   UNL     1      -0.060  -2.081   1.079  0.00  0.00    +0.005 A 
ATOM     20  C   UNL     1       0.869  -2.890   1.706  0.00  0.00    -0.037 A 
ATOM     21  C   UNL     1       1.852  -2.328   2.498  0.00  0.00    +0.005 A 
ATOM     22  C   UNL     1       1.909  -0.956   2.660  0.00  0.00    +0.003 A 
ENDBRANCH  15  20
ENDBRANCH  14  15
ENDBRANCH   7  14
ENDBRANCH   1  10
BRANCH   6  23
ATOM     23  N   UNL     1      -1.238 -10.455   0.164  0.00  0.00    -0.319 N 
ATOM     24  H   UNL     1      -1.138  -9.492   0.097  0.00  0.00    +0.152 HD
BRANCH  23  25
ATOM     25  C   UNL     1      -2.458 -10.994   0.370  0.00  0.00    +0.087 C 
ATOM     26  C   UNL     1      -3.567 -10.174   0.487  0.00  0.00    +0.075 C 
ATOM     27  C   UNL     1      -4.961 -10.581   0.718  0.00  0.00    +0.070 C 
ATOM     28  N   UNL     1      -5.682  -9.502   0.761  0.00  0.00    -0.176 NA
ATOM     29  N   UNL     1      -4.900  -8.362   0.578  0.00  0.00    -0.156 N 
ATOM     30  C   UNL     1      -3.607  -8.708   0.413  0.00  0.00    +0.273 C 
ATOM     31  O   UNL     1      -2.663  -7.957   0.236  0.00  0.00    -0.268 OA
ATOM     32  C   UNL     1      -5.463 -11.993   0.875  0.00  0.00    +0.068 C 
BRANCH  29  33
ATOM     33  C   UNL     1      -5.385  -7.048   0.573  0.00  0.00    +0.060 A 
ATOM     34  C   UNL     1      -4.514  -5.985   0.374  0.00  0.00    +0.025 A 
ATOM     35  C   UNL     1      -4.996  -4.691   0.369  0.00  0.00    +0.002 A 
ATOM     36  C   UNL     1      -6.345  -4.453   0.561  0.00  0.00    +0.000 A 
ATOM     37  C   UNL     1      -7.215  -5.509   0.759  0.00  0.00    +0.002 A 
ATOM     38  C   UNL     1      -6.740  -6.806   0.760  0.00  0.00    +0.025 A 
ENDBRANCH  29  33
ENDBRANCH  23  25
ENDBRANCH   6  23
TORSDOF 7
