REMARK  Name = ZINC35418750
REMARK  8 active torsions:
REMARK  status: ('A' for Active; 'I' for Inactive)
REMARK    1  A    between atoms: C_1  and  C_2
REMARK    2  A    between atoms: C_5  and  S_8
REMARK    3  A    between atoms: S_8  and  N_11
REMARK    4  A    between atoms: C_12  and  C_28
REMARK    5  A    between atoms: C_14  and  C_21
REMARK    6  A    between atoms: C_16  and  C_19
REMARK    7  A    between atoms: C_17  and  N_18
REMARK    8  A    between atoms: C_28  and  C_30
REMARK                            x       y       z     vdW  Elec       q    Type
REMARK                         _______ _______ _______ _____ _____    ______ ____
ROOT
ATOM      1  N   UNL     1       1.651  -4.999  -0.034  0.00  0.00    -0.178 N 
ATOM      2  C   UNL     1       2.455  -5.226  -1.242  0.00  0.00    +0.182 C 
ATOM      3  C   UNL     1       3.841  -5.639  -0.713  0.00  0.00    +0.092 C 
ATOM      4  C   UNL     1       3.681  -5.605   0.792  0.00  0.00    +0.076 C 
ATOM      5  C   UNL     1       2.409  -5.227   1.077  0.00  0.00    +0.119 C 
ENDROOT
BRANCH   3   6
ATOM      6  C   UNL     1       4.192  -7.029  -1.178  0.00  0.00    -0.037 A 
ATOM      7  C   UNL     1       3.384  -8.097  -0.836  0.00  0.00    +0.006 A 
ATOM      8  C   UNL     1       3.706  -9.372  -1.263  0.00  0.00    +0.020 A 
ATOM      9  C   UNL     1       4.837  -9.579  -2.033  0.00  0.00    +0.041 A 
ATOM     10  C   UNL     1       5.645  -8.509  -2.375  0.00  0.00    +0.020 A 
ATOM     11  C   UNL     1       5.319  -7.234  -1.952  0.00  0.00    +0.006 A 
ATOM     12 CL   UNL     1       5.241 -11.179  -2.569  0.00  0.00    -0.084 Cl
ENDBRANCH   3   6
BRANCH   1  13
ATOM     13  S   UNL     1       0.063  -4.530  -0.023  0.00  0.00    +0.076 S 
ATOM     14  O   UNL     1      -0.476  -4.950   1.223  0.00  0.00    -0.150 OA
ATOM     15  O   UNL     1      -0.490  -4.937  -1.267  0.00  0.00    -0.150 OA
BRANCH  13  20
ATOM     16  C   UNL     1      -0.018   1.503   0.010  0.00  0.00    +0.044 C 
ATOM     17  C   UNL     1       0.002  -0.004   0.002  0.00  0.00    -0.050 A 
ATOM     18  C   UNL     1       0.006  -0.689  -1.199  0.00  0.00    +0.005 A 
ATOM     19  C   UNL     1       0.025  -2.071  -1.206  0.00  0.00    +0.029 A 
ATOM     20  C   UNL     1       0.040  -2.768  -0.013  0.00  0.00    +0.109 A 
ATOM     21  C   UNL     1       0.037  -2.084   1.188  0.00  0.00    +0.029 A 
ATOM     22  C   UNL     1       0.023  -0.702   1.195  0.00  0.00    +0.005 A 
ENDBRANCH  13  20
ENDBRANCH   1  13
BRANCH   5  23
ATOM     23  N   UNL     1       1.931  -5.091   2.358  0.00  0.00    -0.344 N 
ATOM     24  H   UNL     1       1.012  -4.821   2.506  0.00  0.00    +0.144 HD
ATOM     25  H   UNL     1       2.513  -5.266   3.114  0.00  0.00    +0.144 HD
ENDBRANCH   5  23
BRANCH   4  26
ATOM     26  C   UNL     1       4.699  -5.913   1.750  0.00  0.00    +0.099 C 
ATOM     27  N   UNL     1       5.507  -6.158   2.511  0.00  0.00    -0.191 NA
ENDBRANCH   4  26
BRANCH   2  28
ATOM     28  C   UNL     1       2.555  -3.960  -2.053  0.00  0.00    +0.186 C 
ATOM     29  O   UNL     1       2.314  -2.889  -1.537  0.00  0.00    -0.290 OA
BRANCH  28  30
ATOM     30  C   UNL     1       2.945  -4.022  -3.470  0.00  0.00    +0.019 A 
ATOM     31  C   UNL     1       3.218  -5.255  -4.071  0.00  0.00    +0.011 A 
ATOM     32  C   UNL     1       3.582  -5.306  -5.400  0.00  0.00    +0.001 A 
ATOM     33  C   UNL     1       3.678  -4.140  -6.139  0.00  0.00    +0.000 A 
ATOM     34  C   UNL     1       3.410  -2.915  -5.552  0.00  0.00    +0.001 A 
ATOM     35  C   UNL     1       3.039  -2.849  -4.226  0.00  0.00    +0.011 A 
ENDBRANCH  28  30
ENDBRANCH   2  28
TORSDOF 7
