REMARK  Name = ZINC03977950
REMARK  15 active torsions:
REMARK  status: ('A' for Active; 'I' for Inactive)
REMARK    1  A    between atoms: C_1  and  C_2
REMARK    2  A    between atoms: C_2  and  C_3
REMARK    3  A    between atoms: C_3  and  C_4
REMARK    4  A    between atoms: C_7  and  C_11
REMARK    5  A    between atoms: C_10  and  N_61
REMARK    6  A    between atoms: N_13  and  C_14
REMARK    7  A    between atoms: C_14  and  C_16
REMARK    8  A    between atoms: C_14  and  C_32
REMARK    9  A    between atoms: C_18  and  O_31
REMARK   10  A    between atoms: C_20  and  O_30
REMARK   11  A    between atoms: C_22  and  O_29
REMARK   12  A    between atoms: C_24  and  S_27
REMARK   13  A    between atoms: S_27  and  C_28
REMARK   14  A    between atoms: C_32  and  C_34
REMARK   15  A    between atoms: C_32  and  O_35
REMARK                            x       y       z     vdW  Elec       q    Type
REMARK                         _______ _______ _______ _____ _____    ______ ____
ROOT
ATOM      1  C   UNL     1       0.052  -0.002   7.122  0.00  0.00    +0.132 C 
ENDROOT
BRANCH   1   2
ATOM      2  C   UNL     1       0.739  -1.137   7.885  0.00  0.00    +0.173 C 
ATOM      3  C   UNL     1      -0.111  -2.407   7.785  0.00  0.00    +0.176 C 
ATOM      4  C   UNL     1      -1.469  -2.157   8.447  0.00  0.00    +0.177 C 
ATOM      5  C   UNL     1      -1.245  -1.720   9.898  0.00  0.00    +0.184 C 
ATOM      6  C   UNL     1      -0.352  -0.477   9.916  0.00  0.00    +0.207 C 
ATOM      7  O   UNL     1       0.882  -0.769   9.258  0.00  0.00    -0.356 OA
BRANCH   6   8
ATOM      8  S   UNL     1      -0.023   0.005  11.634  0.00  0.00    -0.131 S 
ATOM      9  C   UNL     1       0.771   1.630  11.489  0.00  0.00    +0.087 C 
ENDBRANCH   6   8
BRANCH   5  10
ATOM     10  O   UNL     1      -0.610  -2.776  10.622  0.00  0.00    -0.386 OA
ATOM     11  H   UNL     1      -0.433  -2.566  11.549  0.00  0.00    +0.210 HD
ENDBRANCH   5  10
BRANCH   4  12
ATOM     12  O   UNL     1      -2.163  -1.127   7.739  0.00  0.00    -0.386 OA
ATOM     13  H   UNL     1      -3.030  -0.912   8.109  0.00  0.00    +0.210 HD
ENDBRANCH   4  12
BRANCH   3  14
ATOM     14  O   UNL     1      -0.304  -2.744   6.410  0.00  0.00    -0.387 OA
ATOM     15  H   UNL     1      -0.835  -3.540   6.271  0.00  0.00    +0.210 HD
ENDBRANCH   3  14
ENDBRANCH   1   2
BRANCH   1  18
ATOM     16  C   UNL     1      -1.165   0.152   5.017  0.00  0.00    +0.200 C 
ATOM     17  O   UNL     1      -1.869   1.002   5.520  0.00  0.00    -0.278 OA
ATOM     18  N   UNL     1      -0.175  -0.414   5.734  0.00  0.00    -0.309 N 
ATOM     19  H   UNL     1       0.388  -1.094   5.332  0.00  0.00    +0.149 HD
BRANCH  16  22
ATOM     20  C   UNL     1      -1.284   0.764   1.373  0.00  0.00    -0.029 C 
ATOM     21  C   UNL     1      -0.447   0.485   2.638  0.00  0.00    -0.005 C 
ATOM     22  C   UNL     1      -1.399  -0.272   3.590  0.00  0.00    +0.019 C 
ATOM     23  C   UNL     1      -2.671   0.152   1.666  0.00  0.00    -0.075 C 
ATOM     24  C   UNL     1      -3.763  -0.854   3.595  0.00  0.00    -0.095 C 
ATOM     25  N   UNL     1      -2.729   0.123   3.132  0.00  0.00    +0.386 N 
ATOM     26  H   UNL     1      -2.961   1.056   3.492  0.00  0.00    -0.081 HD
BRANCH  20  27
ATOM     27  C   UNL     1      -0.650   0.085   0.157  0.00  0.00    +0.001 C 
BRANCH  27  29
ATOM     28  C   UNL     1      -0.831  -0.262  -2.311  0.00  0.00    +0.004 C 
ATOM     29  C   UNL     1      -1.465   0.417  -1.095  0.00  0.00    -0.003 C 
ENDBRANCH  27  29
ENDBRANCH  20  27
ENDBRANCH  16  22
ENDBRANCH   1  18
BRANCH   1  30
ATOM     30  C   UNL     1       0.944   1.241   7.146  0.00  0.00    +0.134 C 
ATOM     31  C   UNL     1       0.245   2.383   6.405  0.00  0.00    +0.039 C 
BRANCH  30  32
ATOM     32  O   UNL     1       2.187   0.948   6.506  0.00  0.00    -0.390 OA
ATOM     33  H   UNL     1       2.685   0.232   6.923  0.00  0.00    +0.210 HD
ENDBRANCH  30  32
ENDBRANCH   1  30
TORSDOF 11
