REMARK  Name = ZINC35449793
REMARK  10 active torsions:
REMARK  status: ('A' for Active; 'I' for Inactive)
REMARK    1  A    between atoms: C_1  and  C_2
REMARK    2  A    between atoms: C_2  and  C_3
REMARK    3  A    between atoms: C_3  and  C_5
REMARK    4  A    between atoms: C_3  and  S_6
REMARK    5  A    between atoms: S_6  and  C_7
REMARK    6  A    between atoms: C_14  and  C_24
REMARK    7  A    between atoms: C_27  and  O_32
REMARK    8  A    between atoms: C_28  and  O_30
REMARK    9  A    between atoms: O_30  and  C_31
REMARK   10  A    between atoms: O_32  and  C_33
REMARK                            x       y       z     vdW  Elec       q    Type
REMARK                         _______ _______ _______ _____ _____    ______ ____
ROOT
ATOM      1  C   UNL     1      -3.900  -0.616   1.373  0.00  0.00    +0.171 A 
ATOM      2  N   UNL     1      -4.255  -1.208   0.251  0.00  0.00    -0.208 NA
ATOM      3  C   UNL     1      -5.509  -1.634   0.061  0.00  0.00    +0.135 A 
ATOM      4  C   UNL     1      -6.456  -1.450   1.054  0.00  0.00    +0.069 A 
ATOM      5  C   UNL     1      -6.073  -0.822   2.244  0.00  0.00    +0.258 A 
ATOM      6  O   UNL     1      -6.881  -0.646   3.143  0.00  0.00    -0.267 OA
ATOM      7  N   UNL     1      -4.792  -0.420   2.384  0.00  0.00    -0.302 N 
ATOM      8  C   UNL     1      -7.870  -1.911   0.860  0.00  0.00    +0.093 C 
ATOM      9  C   UNL     1      -7.971  -2.912  -0.263  0.00  0.00    +0.024 C 
ATOM     10  C   UNL     1      -6.992  -3.032  -1.183  0.00  0.00    +0.017 C 
ATOM     11  N   UNL     1      -5.866  -2.258  -1.118  0.00  0.00    -0.302 N 
ATOM     12  C   UNL     1      -7.110  -4.021  -2.318  0.00  0.00    +0.051 C 
ATOM     13  C   UNL     1      -7.920  -5.235  -1.860  0.00  0.00    +0.014 C 
ATOM     14  C   UNL     1      -9.299  -4.752  -1.399  0.00  0.00    +0.080 C 
ATOM     15  C   UNL     1      -9.121  -3.720  -0.319  0.00  0.00    +0.162 C 
ATOM     16  O   UNL     1      -9.987  -3.582   0.521  0.00  0.00    -0.292 OA
ATOM     17  H   UNL     1      -5.313  -2.146  -1.907  0.00  0.00    +0.153 HD
ATOM     18  H   UNL     1      -4.507   0.014   3.203  0.00  0.00    +0.171 HD
ENDROOT
BRANCH   8  19
ATOM     19  C   UNL     1      -8.736  -0.721   0.538  0.00  0.00    -0.032 A 
ATOM     20  C   UNL     1      -8.474   0.039  -0.587  0.00  0.00    +0.008 A 
ATOM     21  C   UNL     1      -9.266   1.132  -0.887  0.00  0.00    +0.050 A 
ATOM     22  C   UNL     1     -10.326   1.467  -0.060  0.00  0.00    +0.162 A 
ATOM     23  C   UNL     1     -10.590   0.702   1.072  0.00  0.00    +0.162 A 
ATOM     24  C   UNL     1      -9.796  -0.395   1.364  0.00  0.00    +0.054 A 
BRANCH  23  25
ATOM     25  O   UNL     1     -11.630   1.026   1.887  0.00  0.00    -0.491 OA
ATOM     26  C   UNL     1     -11.842   0.196   3.030  0.00  0.00    +0.277 C 
ENDBRANCH  23  25
BRANCH  22  27
ATOM     27  O   UNL     1     -11.106   2.542  -0.353  0.00  0.00    -0.491 OA
ATOM     28  C   UNL     1     -10.775   3.281  -1.531  0.00  0.00    +0.277 C 
ENDBRANCH  22  27
ENDBRANCH   8  19
BRANCH   1  29
ATOM     29  S   UNL     1      -2.236  -0.073   1.573  0.00  0.00    -0.085 S 
BRANCH  29  30
ATOM     30  C   UNL     1      -1.433  -0.534   0.013  0.00  0.00    +0.051 C 
ATOM     31  C   UNL     1      -1.416  -2.058  -0.121  0.00  0.00    +0.019 C 
BRANCH  30  33
ATOM     32  C   UNL     1      -0.019   1.526   0.010  0.00  0.00    +0.005 C 
ATOM     33  C   UNL     1       0.002  -0.004   0.002  0.00  0.00    +0.011 C 
ENDBRANCH  30  33
ENDBRANCH  29  30
ENDBRANCH   1  29
TORSDOF 6
