REMARK  Name = ZINC01092091
REMARK  9 active torsions:
REMARK  status: ('A' for Active; 'I' for Inactive)
REMARK    1  A    between atoms: C_1  and  C_2
REMARK    2  A    between atoms: C_2  and  O_3
REMARK    3  A    between atoms: O_3  and  C_4
REMARK    4  A    between atoms: C_7  and  C_11
REMARK    5  A    between atoms: C_9  and  O_10
REMARK    6  A    between atoms: N_12  and  N_13
REMARK    7  A    between atoms: C_14  and  C_16
REMARK    8  A    between atoms: C_21  and  C_22
REMARK    9  A    between atoms: C_21  and  N_55
REMARK                            x       y       z     vdW  Elec       q    Type
REMARK                         _______ _______ _______ _____ _____    ______ ____
ROOT
ATOM      1  N   UNL     1       2.873   5.218   6.167  0.00  0.00    -0.207 N 
ATOM      2  C   UNL     1       2.076   5.726   5.207  0.00  0.00    +0.235 C 
ATOM      3  O   UNL     1       1.216   6.532   5.495  0.00  0.00    -0.274 OA
ATOM      4  H   UNL     1       3.561   4.574   5.937  0.00  0.00    +0.177 HD
ENDROOT
BRANCH   2   5
ATOM      5  C   UNL     1       2.253   5.294   3.774  0.00  0.00    +0.073 C 
ATOM      6  C   UNL     1       1.230   6.014   2.892  0.00  0.00    -0.006 C 
ATOM      7  C   UNL     1       1.374   5.526   1.449  0.00  0.00    -0.078 C 
ATOM      8  C   UNL     1       2.156   3.359   2.199  0.00  0.00    -0.078 C 
ATOM      9  C   UNL     1       2.035   3.783   3.665  0.00  0.00    -0.006 C 
ATOM     10  N   UNL     1       1.129   4.069   1.408  0.00  0.00    +0.382 N 
ATOM     11  H   UNL     1       0.205   3.875   1.812  0.00  0.00    -0.081 HD
BRANCH  10  12
ATOM     12  C   UNL     1       1.150   3.592   0.010  0.00  0.00    -0.043 C 
BRANCH  12  13
ATOM     13  C   UNL     1       1.171   2.086   0.002  0.00  0.00    -0.064 A 
ATOM     14  C   UNL     1      -0.017   1.378   0.010  0.00  0.00    +0.003 A 
ATOM     15  C   UNL     1       0.002  -0.004   0.002  0.00  0.00    +0.020 A 
ATOM     16  C   UNL     1       1.210  -0.679  -0.013  0.00  0.00    +0.041 A 
ATOM     17  C   UNL     1       2.398   0.030  -0.021  0.00  0.00    +0.020 A 
ATOM     18  C   UNL     1       2.378   1.412  -0.013  0.00  0.00    +0.003 A 
ATOM     19 CL   UNL     1       1.234  -2.415  -0.022  0.00  0.00    -0.084 Cl
ENDBRANCH  12  13
ENDBRANCH  10  12
ENDBRANCH   2   5
BRANCH   1  21
ATOM     20  C   UNL     1       3.476   5.131   8.425  0.00  0.00    +0.138 C 
ATOM     21  N   UNL     1       2.708   5.620   7.499  0.00  0.00    -0.188 NA
BRANCH  20  25
ATOM     22  C   UNL     1       2.972   6.354  12.462  0.00  0.00    +0.162 A 
ATOM     23  C   UNL     1       2.152   6.875  11.472  0.00  0.00    +0.050 A 
ATOM     24  C   UNL     1       2.316   6.485  10.160  0.00  0.00    +0.013 A 
ATOM     25  C   UNL     1       3.303   5.554   9.826  0.00  0.00    -0.002 A 
ATOM     26  C   UNL     1       4.128   5.028  10.823  0.00  0.00    +0.058 A 
ATOM     27  C   UNL     1       3.962   5.428  12.136  0.00  0.00    +0.159 A 
BRANCH  27  28
ATOM     28  O   UNL     1       4.763   4.919  13.109  0.00  0.00    -0.503 OA
ATOM     29  H   UNL     1       5.569   5.431  13.262  0.00  0.00    +0.292 HD
ENDBRANCH  27  28
BRANCH  22  30
ATOM     30  O   UNL     1       2.810   6.746  13.753  0.00  0.00    -0.489 OA
BRANCH  30  32
ATOM     31  C   UNL     1       1.746   8.014  15.514  0.00  0.00    +0.048 C 
ATOM     32  C   UNL     1       1.777   7.697  14.018  0.00  0.00    +0.226 C 
ENDBRANCH  30  32
ENDBRANCH  22  30
ENDBRANCH  20  25
ENDBRANCH   1  21
TORSDOF 8
