REMARK  Name = ZINC12100279
REMARK  7 active torsions:
REMARK  status: ('A' for Active; 'I' for Inactive)
REMARK    1  A    between atoms: C_1  and  C_2
REMARK    2  A    between atoms: C_2  and  C_15
REMARK    3  A    between atoms: N_5  and  C_9
REMARK    4  A    between atoms: C_9  and  C_10
REMARK    5  A    between atoms: C_20  and  C_21
REMARK    6  A    between atoms: C_20  and  N_53
REMARK    7  A    between atoms: C_26  and  O_27
REMARK                            x       y       z     vdW  Elec       q    Type
REMARK                         _______ _______ _______ _____ _____    ______ ____
ROOT
ATOM      1  C   UNL     1       1.420   2.051  -0.001  0.00  0.00    +0.018 C 
ATOM      2  C   UNL     1      -0.019   1.526   0.010  0.00  0.00    -0.013 C 
ATOM      3  C   UNL     1       0.002  -0.004   0.002  0.00  0.00    -0.078 C 
ATOM      4  C   UNL     1       2.103  -0.026  -1.205  0.00  0.00    -0.078 C 
ATOM      5  C   UNL     1       2.145   1.503  -1.232  0.00  0.00    -0.013 C 
ATOM      6  N   UNL     1       0.693  -0.468  -1.220  0.00  0.00    +0.382 N 
ATOM      7  H   UNL     1       0.226  -0.063  -2.040  0.00  0.00    -0.081 HD
ENDROOT
BRANCH   1   9
ATOM      8  C   UNL     1       0.613   4.068  -1.268  0.00  0.00    +0.042 C 
ATOM      9  C   UNL     1       1.405   3.580  -0.053  0.00  0.00    +0.112 C 
ATOM     10  C   UNL     1       2.819   4.126  -0.081  0.00  0.00    +0.247 C 
ATOM     11  O   UNL     1       3.664   3.930  -0.928  0.00  0.00    -0.273 OA
ATOM     12  N   UNL     1       2.942   4.875   1.033  0.00  0.00    -0.220 N 
ATOM     13  C   UNL     1       1.814   4.878   1.753  0.00  0.00    +0.310 C 
ATOM     14  O   UNL     1       1.682   5.482   2.799  0.00  0.00    -0.252 OA
ATOM     15  N   UNL     1       0.843   4.137   1.189  0.00  0.00    -0.285 N 
ATOM     16  H   UNL     1      -0.053   3.997   1.534  0.00  0.00    +0.151 HD
BRANCH  12  17
ATOM     17  C   UNL     1       4.160   5.597   1.409  0.00  0.00    +0.153 C 
BRANCH  17  18
ATOM     18  C   UNL     1       5.033   4.705   2.254  0.00  0.00    -0.023 A 
ATOM     19  C   UNL     1       5.980   3.888   1.665  0.00  0.00    +0.013 A 
ATOM     20  C   UNL     1       6.748   3.098   2.454  0.00  0.00    +0.045 A 
ATOM     21  S   UNL     1       6.138   3.497   4.083  0.00  0.00    -0.105 S 
ATOM     22  C   UNL     1       4.904   4.695   3.603  0.00  0.00    +0.050 A 
ENDBRANCH  17  18
ENDBRANCH  12  17
ENDBRANCH   1   9
BRANCH   6  23
ATOM     23  C   UNL     1       0.626  -1.941  -1.309  0.00  0.00    -0.039 C 
BRANCH  23  24
ATOM     24  C   UNL     1       1.139  -2.369  -2.660  0.00  0.00    -0.021 A 
ATOM     25  C   UNL     1       0.249  -2.670  -3.673  0.00  0.00    +0.025 A 
ATOM     26  C   UNL     1       0.719  -3.064  -4.913  0.00  0.00    +0.041 A 
ATOM     27  C   UNL     1       2.081  -3.156  -5.142  0.00  0.00    +0.023 A 
ATOM     28  C   UNL     1       2.974  -2.857  -4.131  0.00  0.00    +0.047 A 
ATOM     29  C   UNL     1       2.504  -2.456  -2.888  0.00  0.00    +0.118 A 
ATOM     30 CL   UNL     1      -0.400  -3.441  -6.186  0.00  0.00    -0.084 Cl
BRANCH  29  31
ATOM     31  O   UNL     1       3.381  -2.155  -1.894  0.00  0.00    -0.507 OA
ATOM     32  H   UNL     1       3.625  -2.911  -1.343  0.00  0.00    +0.292 HD
ENDBRANCH  29  31
ENDBRANCH  23  24
ENDBRANCH   6  23
TORSDOF 6
