REMARK  Name = ZINC43222448
REMARK  10 active torsions:
REMARK  status: ('A' for Active; 'I' for Inactive)
REMARK    1  A    between atoms: C_1  and  C_2
REMARK    2  A    between atoms: C_2  and  C_4
REMARK    3  A    between atoms: C_2  and  C_32
REMARK    4  A    between atoms: C_4  and  N_5
REMARK    5  A    between atoms: C_6  and  C_8
REMARK    6  A    between atoms: C_13  and  C_15
REMARK    7  A    between atoms: N_17  and  C_18
REMARK    8  A    between atoms: C_18  and  C_19
REMARK    9  A    between atoms: C_19  and  C_20
REMARK   10  A    between atoms: C_19  and  C_26
REMARK                            x       y       z     vdW  Elec       q    Type
REMARK                         _______ _______ _______ _____ _____    ______ ____
ROOT
ATOM      1  C   UNL     1       1.718   1.181  -6.339  0.00  0.00    +0.068 C 
ATOM      2  C   UNL     1       1.793   2.617  -6.900  0.00  0.00    -0.069 C 
ATOM      3  N   UNL     1       2.585   2.489  -8.150  0.00  0.00    +0.380 N 
ATOM      4  C   UNL     1       2.108   1.220  -8.757  0.00  0.00    -0.069 C 
ATOM      5  C   UNL     1       1.923   0.259  -7.559  0.00  0.00    +0.068 C 
ATOM      6  H   UNL     1       2.400   3.266  -8.767  0.00  0.00    -0.086 HD
ATOM      7  H   UNL     1       3.570   2.431  -7.940  0.00  0.00    -0.086 HD
ENDROOT
BRANCH   1   9
ATOM      8  N   UNL     1       2.834   1.685  -4.190  0.00  0.00    -0.315 N 
ATOM      9  C   UNL     1       2.809   0.957  -5.325  0.00  0.00    +0.215 C 
ATOM     10  O   UNL     1       3.665   0.122  -5.529  0.00  0.00    -0.276 OA
ATOM     11  H   UNL     1       2.150   2.352  -4.027  0.00  0.00    +0.149 HD
BRANCH   8  12
ATOM     12  C   UNL     1       3.896   1.467  -3.204  0.00  0.00    +0.112 C 
BRANCH  12  14
ATOM     13  C   UNL     1       3.866   3.861  -2.488  0.00  0.00    +0.014 C 
ATOM     14  C   UNL     1       3.693   2.414  -2.020  0.00  0.00    +0.033 C 
BRANCH  14  15
ATOM     15  C   UNL     1       4.711   2.107  -0.952  0.00  0.00    -0.043 A 
ATOM     16  C   UNL     1       6.060   2.214  -1.231  0.00  0.00    +0.004 A 
ATOM     17  C   UNL     1       6.994   1.933  -0.251  0.00  0.00    +0.000 A 
ATOM     18  C   UNL     1       6.578   1.545   1.009  0.00  0.00    +0.000 A 
ATOM     19  C   UNL     1       5.228   1.439   1.289  0.00  0.00    +0.000 A 
ATOM     20  C   UNL     1       4.295   1.725   0.310  0.00  0.00    +0.004 A 
ENDBRANCH  14  15
ENDBRANCH  12  14
ENDBRANCH   8  12
ENDBRANCH   1   9
BRANCH   5  21
ATOM     21  C   UNL     1       0.712  -0.613  -7.767  0.00  0.00    +0.215 C 
ATOM     22  O   UNL     1      -0.238  -0.520  -7.018  0.00  0.00    -0.276 OA
ATOM     23  N   UNL     1       0.683  -1.496  -8.785  0.00  0.00    -0.314 N 
ATOM     24  H   UNL     1       1.443  -1.570  -9.384  0.00  0.00    +0.149 HD
BRANCH  23  25
ATOM     25  C   UNL     1      -0.494  -2.343  -8.987  0.00  0.00    +0.117 C 
BRANCH  25  26
ATOM     26  C   UNL     1      -0.270  -3.248 -10.200  0.00  0.00    +0.066 C 
BRANCH  26  27
ATOM     27  C   UNL     1       0.863  -4.200  -9.914  0.00  0.00    -0.038 A 
ATOM     28  C   UNL     1       1.921  -4.301 -10.798  0.00  0.00    +0.004 A 
ATOM     29  C   UNL     1       2.959  -5.175 -10.536  0.00  0.00    +0.000 A 
ATOM     30  C   UNL     1       2.940  -5.947  -9.389  0.00  0.00    +0.000 A 
ATOM     31  C   UNL     1       1.883  -5.845  -8.505  0.00  0.00    +0.000 A 
ATOM     32  C   UNL     1       0.846  -4.968  -8.765  0.00  0.00    +0.004 A 
ENDBRANCH  26  27
BRANCH  26  33
ATOM     33  C   UNL     1      -1.526  -4.031 -10.482  0.00  0.00    -0.038 A 
ATOM     34  C   UNL     1      -2.135  -4.748  -9.470  0.00  0.00    +0.004 A 
ATOM     35  C   UNL     1      -3.287  -5.466  -9.728  0.00  0.00    +0.000 A 
ATOM     36  C   UNL     1      -3.830  -5.468 -10.999  0.00  0.00    +0.000 A 
ATOM     37  C   UNL     1      -3.221  -4.750 -12.012  0.00  0.00    +0.000 A 
ATOM     38  C   UNL     1      -2.072  -4.028 -11.752  0.00  0.00    +0.004 A 
ENDBRANCH  26  33
ENDBRANCH  25  26
ENDBRANCH  23  25
ENDBRANCH   5  21
TORSDOF 9
