REMARK  Name = ZINC05275026
REMARK  3 active torsions:
REMARK  status: ('A' for Active; 'I' for Inactive)
REMARK    1  A    between atoms: C_4  and  C_7
REMARK    2  A    between atoms: C_13  and  C_25
REMARK    3  A    between atoms: C_13  and  O_29
REMARK                            x       y       z     vdW  Elec       q    Type
REMARK                         _______ _______ _______ _____ _____    ______ ____
ROOT
ATOM      1  C   UNL     1      -7.797  -1.485   1.055  0.00  0.00    +0.080 A 
ATOM      2  C   UNL     1      -8.820  -0.626   0.765  0.00  0.00    +0.077 A 
ATOM      3  S   UNL     1      -7.908   0.872   0.416  0.00  0.00    -0.058 S 
ATOM      4  C   UNL     1      -6.271   0.203   0.681  0.00  0.00    +0.184 A 
ATOM      5  N   UNL     1      -6.548  -1.048   1.005  0.00  0.00    -0.223 NA
ATOM      6  N   UNL     1      -5.042   0.830   0.578  0.00  0.00    -0.160 N 
ATOM      7  C   UNL     1      -4.804   2.247   0.206  0.00  0.00    +0.259 C 
ATOM      8  C   UNL     1      -3.378   2.168  -0.352  0.00  0.00    +0.105 C 
ATOM      9  C   UNL     1      -2.463   3.298   0.133  0.00  0.00    +0.050 C 
ATOM     10  C   UNL     1      -1.138   2.602   0.389  0.00  0.00    -0.038 A 
ATOM     11  C   UNL     1       0.136   3.103   0.549  0.00  0.00    +0.004 A 
ATOM     12  C   UNL     1       1.210   2.243   0.692  0.00  0.00    +0.000 A 
ATOM     13  C   UNL     1       1.015   0.873   0.667  0.00  0.00    +0.001 A 
ATOM     14  C   UNL     1      -0.256   0.355   0.529  0.00  0.00    +0.010 A 
ATOM     15  C   UNL     1      -1.349   1.217   0.413  0.00  0.00    +0.001 A 
ATOM     16  C   UNL     1      -2.804   0.961   0.391  0.00  0.00    +0.075 C 
ATOM     17  N   UNL     1      -3.789   0.247   0.805  0.00  0.00    -0.179 NA
ENDROOT
BRANCH   1  21
ATOM     18  C   UNL     1      -8.617  -5.523   2.105  0.00  0.00    +0.000 A 
ATOM     19  C   UNL     1      -9.649  -4.689   1.714  0.00  0.00    +0.001 A 
ATOM     20  C   UNL     1      -9.389  -3.378   1.372  0.00  0.00    +0.010 A 
ATOM     21  C   UNL     1      -8.083  -2.893   1.422  0.00  0.00    +0.001 A 
ATOM     22  C   UNL     1      -7.046  -3.739   1.812  0.00  0.00    +0.010 A 
ATOM     23  C   UNL     1      -7.318  -5.047   2.156  0.00  0.00    +0.001 A 
ENDBRANCH   1  21
BRANCH   7  24
ATOM     24  C   UNL     1      -4.865   3.157   1.434  0.00  0.00    +0.438 C 
ATOM     25  F   UNL     1      -4.583   4.473   1.054  0.00  0.00    -0.166 F 
ATOM     26  F   UNL     1      -6.146   3.098   1.994  0.00  0.00    -0.166 F 
ATOM     27  F   UNL     1      -3.924   2.732   2.377  0.00  0.00    -0.166 F 
ENDBRANCH   7  24
BRANCH   7  28
ATOM     28  O   UNL     1      -5.726   2.677  -0.797  0.00  0.00    -0.363 OA
ATOM     29  H   UNL     1      -6.640   2.742  -0.490  0.00  0.00    +0.212 HD
ENDBRANCH   7  28
TORSDOF 3
