REMARK  Name = ZINC02126904
REMARK  10 active torsions:
REMARK  status: ('A' for Active; 'I' for Inactive)
REMARK    1  A    between atoms: C_1  and  C_2
REMARK    2  A    between atoms: C_2  and  C_3
REMARK    3  A    between atoms: C_3  and  O_4
REMARK    4  A    between atoms: O_4  and  C_5
REMARK    5  A    between atoms: C_8  and  C_13
REMARK    6  A    between atoms: C_10  and  O_11
REMARK    7  A    between atoms: O_11  and  C_12
REMARK    8  A    between atoms: N_20  and  C_35
REMARK    9  A    between atoms: C_23  and  C_34
REMARK   10  A    between atoms: C_35  and  C_36
REMARK                            x       y       z     vdW  Elec       q    Type
REMARK                         _______ _______ _______ _____ _____    ______ ____
ROOT
ATOM      1  C   UNL     1       0.629   6.410   0.030  0.00  0.00    +0.069 C 
ATOM      2  C   UNL     1      -0.139   7.654   0.494  0.00  0.00    +0.122 C 
ATOM      3  N   UNL     1      -1.439   7.697  -0.200  0.00  0.00    -0.280 N 
ATOM      4  C   UNL     1      -1.690   8.693  -1.053  0.00  0.00    +0.234 C 
ATOM      5  O   UNL     1      -0.899   9.612  -1.101  0.00  0.00    -0.274 OA
ATOM      6  C   UNL     1      -2.882   8.749  -1.953  0.00  0.00    +0.204 C 
ATOM      7  N   UNL     1      -3.721   7.569  -1.826  0.00  0.00    -0.286 N 
ATOM      8  C   UNL     1      -3.513   6.608  -0.926  0.00  0.00    +0.246 C 
ATOM      9  O   UNL     1      -4.276   5.665  -0.912  0.00  0.00    -0.273 OA
ATOM     10  C   UNL     1      -2.398   6.625   0.066  0.00  0.00    +0.151 C 
ATOM     11  C   UNL     1      -1.653   5.311   0.046  0.00  0.00    +0.054 A 
ATOM     12  C   UNL     1      -0.304   5.226   0.035  0.00  0.00    -0.008 A 
ATOM     13  C   UNL     1       0.031   3.817   0.023  0.00  0.00    +0.004 A 
ATOM     14  C   UNL     1       1.250   3.133   0.007  0.00  0.00    +0.010 A 
ATOM     15  C   UNL     1       1.191   1.761   0.000  0.00  0.00    +0.001 A 
ATOM     16  C   UNL     1      -0.013   1.076   0.008  0.00  0.00    +0.002 A 
ATOM     17  C   UNL     1      -1.234   1.728   0.017  0.00  0.00    +0.026 A 
ATOM     18  C   UNL     1      -1.205   3.121   0.029  0.00  0.00    +0.047 A 
ATOM     19  N   UNL     1      -2.199   4.056   0.042  0.00  0.00    -0.356 N 
ATOM     20  H   UNL     1      -3.149   3.861   0.046  0.00  0.00    +0.166 HD
ATOM     21  C   UNL     1      -2.997   6.832   1.459  0.00  0.00    +0.048 C 
ENDROOT
BRANCH   1  25
ATOM     22  C   UNL     1       2.114   7.044  -3.930  0.00  0.00    +0.162 A 
ATOM     23  C   UNL     1       0.752   7.102  -3.680  0.00  0.00    +0.050 A 
ATOM     24  C   UNL     1       0.275   6.891  -2.400  0.00  0.00    +0.008 A 
ATOM     25  C   UNL     1       1.154   6.633  -1.365  0.00  0.00    -0.035 A 
ATOM     26  C   UNL     1       2.514   6.574  -1.607  0.00  0.00    +0.053 A 
ATOM     27  C   UNL     1       2.998   6.779  -2.889  0.00  0.00    +0.162 A 
BRANCH  27  28
ATOM     28  O   UNL     1       4.335   6.720  -3.130  0.00  0.00    -0.491 OA
ATOM     29  C   UNL     1       5.184   6.442  -2.014  0.00  0.00    +0.277 C 
ENDBRANCH  27  28
BRANCH  22  30
ATOM     30  O   UNL     1       2.584   7.245  -5.190  0.00  0.00    -0.488 OA
BRANCH  30  31
ATOM     31  C   UNL     1       1.618   7.513  -6.208  0.00  0.00    +0.229 C 
BRANCH  31  33
ATOM     32  C   UNL     1       1.296   7.997  -8.638  0.00  0.00    +0.007 C 
ATOM     33  C   UNL     1       2.330   7.710  -7.548  0.00  0.00    +0.038 C 
ENDBRANCH  31  33
ENDBRANCH  30  31
ENDBRANCH  22  30
ENDBRANCH   1  25
BRANCH   7  34
ATOM     34  C   UNL     1      -4.857   7.427  -2.739  0.00  0.00    +0.143 C 
BRANCH  34  35
ATOM     35  C   UNL     1      -4.418   6.689  -3.978  0.00  0.00    -0.030 A 
ATOM     36  C   UNL     1      -3.936   7.392  -5.066  0.00  0.00    +0.005 A 
ATOM     37  C   UNL     1      -3.529   6.715  -6.200  0.00  0.00    +0.000 A 
ATOM     38  C   UNL     1      -3.613   5.336  -6.250  0.00  0.00    +0.000 A 
ATOM     39  C   UNL     1      -4.100   4.634  -5.163  0.00  0.00    +0.000 A 
ATOM     40  C   UNL     1      -4.503   5.311  -4.027  0.00  0.00    +0.005 A 
ENDBRANCH  34  35
ENDBRANCH   7  34
TORSDOF 7
