REMARK  Name = ZINC39689322
REMARK  6 active torsions:
REMARK  status: ('A' for Active; 'I' for Inactive)
REMARK    1  A    between atoms: C_1  and  C_2
REMARK    2  A    between atoms: C_6  and  C_8
REMARK    3  A    between atoms: C_8  and  C_9
REMARK    4  A    between atoms: C_9  and  N_10
REMARK    5  A    between atoms: C_11  and  C_13
REMARK    6  A    between atoms: C_24  and  C_26
REMARK                            x       y       z     vdW  Elec       q    Type
REMARK                         _______ _______ _______ _____ _____    ______ ____
ROOT
ATOM      1  C   UNL     1       2.723  -4.614   6.044  0.00  0.00    +0.100 C 
ATOM      2  C   UNL     1       2.183  -3.821   7.254  0.00  0.00    +0.121 C 
ATOM      3  N   UNL     1       3.004  -4.279   8.399  0.00  0.00    -0.296 N 
ATOM      4  C   UNL     1       4.372  -4.411   7.843  0.00  0.00    +0.115 C 
ATOM      5  C   UNL     1       4.160  -4.999   6.433  0.00  0.00    -0.004 C 
ATOM      6  C   UNL     1       5.156  -4.387   5.452  0.00  0.00    -0.010 C 
ATOM      7  C   UNL     1       6.573  -4.831   5.825  0.00  0.00    -0.082 C 
ATOM      8  N   UNL     1       6.654  -6.296   5.787  0.00  0.00    +0.379 N 
ATOM      9  C   UNL     1       5.762  -6.874   6.799  0.00  0.00    -0.082 C 
ATOM     10  C   UNL     1       4.311  -6.517   6.466  0.00  0.00    -0.010 C 
ATOM     11  C   UNL     1       2.599  -4.522   9.662  0.00  0.00    +0.247 C 
ATOM     12  O   UNL     1       3.414  -4.810  10.517  0.00  0.00    -0.270 OA
ATOM     13  H   UNL     1       6.380  -6.623   4.873  0.00  0.00    -0.086 HD
ATOM     14  H   UNL     1       7.603  -6.584   5.974  0.00  0.00    -0.086 HD
ENDROOT
BRANCH  11  15
ATOM     15  C   UNL     1       1.165  -4.438  10.007  0.00  0.00    +0.045 A 
ATOM     16  C   UNL     1       0.420  -3.311   9.642  0.00  0.00    +0.014 A 
ATOM     17  C   UNL     1      -0.918  -3.230   9.962  0.00  0.00    +0.001 A 
ATOM     18  C   UNL     1      -1.540  -4.262  10.648  0.00  0.00    +0.012 A 
ATOM     19  C   UNL     1      -0.817  -5.390  11.020  0.00  0.00    +0.031 A 
ATOM     20  C   UNL     1       0.545  -5.488  10.695  0.00  0.00    +0.006 A 
ATOM     21  C   UNL     1       1.062  -6.785  11.200  0.00  0.00    -0.006 A 
ATOM     22  C   UNL     1       2.324  -7.363  11.147  0.00  0.00    +0.009 A 
ATOM     23  C   UNL     1       2.538  -8.612  11.709  0.00  0.00    +0.001 A 
ATOM     24  C   UNL     1       1.504  -9.290  12.324  0.00  0.00    +0.001 A 
ATOM     25  C   UNL     1       0.239  -8.726  12.384  0.00  0.00    +0.012 A 
ATOM     26  C   UNL     1       0.010  -7.475  11.825  0.00  0.00    +0.030 A 
ATOM     27  C   UNL     1      -1.201  -6.625  11.744  0.00  0.00    +0.194 C 
ATOM     28  O   UNL     1      -2.303  -6.894  12.178  0.00  0.00    -0.287 OA
ENDBRANCH  11  15
BRANCH   1  30
ATOM     29  N   UNL     1       2.724  -4.319   3.588  0.00  0.00    -0.315 N 
ATOM     30  C   UNL     1       2.728  -3.750   4.809  0.00  0.00    +0.218 C 
ATOM     31  O   UNL     1       2.734  -2.542   4.915  0.00  0.00    -0.275 OA
ATOM     32  H   UNL     1       2.719  -5.286   3.503  0.00  0.00    +0.149 HD
BRANCH  29  33
ATOM     33  C   UNL     1       2.729  -3.479   2.388  0.00  0.00    +0.109 C 
BRANCH  33  34
ATOM     34  C   UNL     1       2.724  -4.368   1.143  0.00  0.00    +0.054 C 
BRANCH  34  40
ATOM     35  C   UNL     1       0.234  -1.871  -2.409  0.00  0.00    +0.044 C 
ATOM     36  C   UNL     1       1.537  -2.309  -1.791  0.00  0.00    -0.050 A 
ATOM     37  C   UNL     1       2.736  -1.919  -2.357  0.00  0.00    +0.003 A 
ATOM     38  C   UNL     1       3.931  -2.321  -1.791  0.00  0.00    +0.001 A 
ATOM     39  C   UNL     1       3.927  -3.113  -0.658  0.00  0.00    +0.004 A 
ATOM     40  C   UNL     1       2.728  -3.503  -0.092  0.00  0.00    -0.046 A 
ATOM     41  C   UNL     1       1.533  -3.098  -0.656  0.00  0.00    +0.007 A 
ENDBRANCH  34  40
ENDBRANCH  33  34
ENDBRANCH  29  33
ENDBRANCH   1  30
TORSDOF 5
