REMARK  Name = ZINC12696680
REMARK  10 active torsions:
REMARK  status: ('A' for Active; 'I' for Inactive)
REMARK    1  A    between atoms: C_1  and  C_2
REMARK    2  A    between atoms: C_2  and  O_3
REMARK    3  A    between atoms: O_3  and  C_4
REMARK    4  A    between atoms: C_4  and  C_6
REMARK    5  A    between atoms: C_7  and  C_15
REMARK    6  A    between atoms: C_12  and  C_14
REMARK    7  A    between atoms: C_15  and  O_16
REMARK    8  A    between atoms: O_16  and  C_17
REMARK    9  A    between atoms: C_17  and  C_19
REMARK   10  A    between atoms: C_21  and  N_22
REMARK                            x       y       z     vdW  Elec       q    Type
REMARK                         _______ _______ _______ _____ _____    ______ ____
ROOT
ATOM      1  C   UNL     1      -3.884  -1.166   0.147  0.00  0.00    +0.284 C 
ENDROOT
BRANCH   1   3
ATOM      2  C   UNL     1      -5.639   0.093  -1.049  0.00  0.00    +0.077 C 
ATOM      3  C   UNL     1      -4.965  -0.117   0.102  0.00  0.00    +0.061 C 
ATOM      4  N   UNL     1      -5.250   0.602   1.228  0.00  0.00    -0.269 N 
ATOM      5  C   UNL     1      -6.189   1.556   1.281  0.00  0.00    +0.304 C 
ATOM      6  O   UNL     1      -6.367   2.146   2.329  0.00  0.00    -0.252 OA
ATOM      7  N   UNL     1      -6.945   1.879   0.213  0.00  0.00    -0.292 N 
ATOM      8  C   UNL     1      -6.719   1.157  -1.050  0.00  0.00    +0.110 C 
ATOM      9  C   UNL     1      -6.365   2.186  -2.125  0.00  0.00    +0.033 C 
ATOM     10  H   UNL     1      -4.696   0.410   2.158  0.00  0.00    +0.156 HD
ATOM     11  H   UNL     1      -7.716   2.661   0.269  0.00  0.00    +0.151 HD
BRANCH   2  12
ATOM     12  C   UNL     1      -5.349  -0.655  -2.213  0.00  0.00    +0.339 C 
ATOM     13  O   UNL     1      -6.069  -1.581  -2.537  0.00  0.00    -0.245 OA
BRANCH  12  14
ATOM     14  O   UNL     1      -4.273  -0.342  -2.966  0.00  0.00    -0.462 OA
BRANCH  14  16
ATOM     15  C   UNL     1      -2.786  -0.638  -4.848  0.00  0.00    +0.048 C 
ATOM     16  C   UNL     1      -4.040  -1.139  -4.128  0.00  0.00    +0.229 C 
ENDBRANCH  14  16
ENDBRANCH  12  14
ENDBRANCH   2  12
ENDBRANCH   1   3
BRANCH   1  17
ATOM     17  O   UNL     1      -2.600  -0.528   0.381  0.00  0.00    -0.454 OA
BRANCH  17  18
ATOM     18  C   UNL     1      -1.521  -1.333   0.449  0.00  0.00    +0.360 C 
ATOM     19  O   UNL     1      -1.649  -2.533   0.317  0.00  0.00    -0.243 OA
BRANCH  18  20
ATOM     20  C   UNL     1      -0.183  -0.754   0.684  0.00  0.00    +0.169 A 
ATOM     21  C   UNL     1       0.903  -1.569   0.751  0.00  0.00    +0.095 A 
ATOM     22  C   UNL     1       2.223  -0.963   0.987  0.00  0.00    +0.067 A 
ATOM     23  C   UNL     1       2.297   0.450   1.132  0.00  0.00    +0.100 A 
ATOM     24  C   UNL     1       1.167   1.185   1.050  0.00  0.00    +0.150 A 
ATOM     25  N   UNL     1      -0.043   0.605   0.833  0.00  0.00    -0.226 NA
ATOM     26 CL   UNL     1       1.262   2.909   1.228  0.00  0.00    -0.060 Cl
ATOM     27 CL   UNL     1       3.826   1.223   1.412  0.00  0.00    -0.078 Cl
ATOM     28 CL   UNL     1       0.736  -3.287   0.563  0.00  0.00    -0.079 Cl
BRANCH  22  29
ATOM     29  N   UNL     1       3.309  -1.710   1.060  0.00  0.00    -0.356 N 
ATOM     30  H   UNL     1       4.288  -1.241   1.236  0.00  0.00    +0.142 HD
ATOM     31  H   UNL     1       3.235  -2.802   0.945  0.00  0.00    +0.142 HD
ENDBRANCH  22  29
ENDBRANCH  18  20
ENDBRANCH  17  18
ENDBRANCH   1  17
TORSDOF 8
