REMARK  Name = ZINC40476548
REMARK  9 active torsions:
REMARK  status: ('A' for Active; 'I' for Inactive)
REMARK    1  A    between atoms: C_1  and  C_2
REMARK    2  A    between atoms: C_6  and  C_8
REMARK    3  A    between atoms: C_15  and  S_28
REMARK    4  A    between atoms: C_24  and  C_26
REMARK    5  A    between atoms: C_24  and  C_27
REMARK    6  A    between atoms: S_28  and  C_29
REMARK    7  A    between atoms: C_29  and  C_30
REMARK    8  A    between atoms: C_30  and  C_31
REMARK    9  A    between atoms: C_30  and  C_32
REMARK                            x       y       z     vdW  Elec       q    Type
REMARK                         _______ _______ _______ _____ _____    ______ ____
ROOT
ATOM      1  C   UNL     1       0.054  -2.845   2.489  0.00  0.00    +0.092 C 
ATOM      2  C   UNL     1      -1.173  -3.703   2.571  0.00  0.00    +0.069 A 
ATOM      3  C   UNL     1      -2.413  -3.136   2.885  0.00  0.00    +0.258 A 
ATOM      4  O   UNL     1      -2.513  -1.938   3.098  0.00  0.00    -0.267 OA
ATOM      5  N   UNL     1      -3.497  -3.938   2.947  0.00  0.00    -0.302 N 
ATOM      6  H   UNL     1      -4.365  -3.563   3.164  0.00  0.00    +0.171 HD
ATOM      7  C   UNL     1      -3.374  -5.273   2.706  0.00  0.00    +0.171 A 
ATOM      8  N   UNL     1      -2.209  -5.812   2.411  0.00  0.00    -0.208 NA
ATOM      9  C   UNL     1      -1.102  -5.065   2.337  0.00  0.00    +0.135 A 
ATOM     10  N   UNL     1       0.114  -5.645   2.031  0.00  0.00    -0.302 N 
ATOM     11  C   UNL     1       1.286  -5.003   2.325  0.00  0.00    +0.017 C 
ATOM     12  C   UNL     1       1.310  -3.675   2.558  0.00  0.00    +0.024 C 
ATOM     13  C   UNL     1       2.513  -3.020   2.877  0.00  0.00    +0.162 C 
ATOM     14  O   UNL     1       2.503  -1.821   3.076  0.00  0.00    -0.292 OA
ATOM     15  C   UNL     1       3.811  -3.772   2.975  0.00  0.00    +0.086 C 
ATOM     16  C   UNL     1       3.519  -5.219   3.389  0.00  0.00    -0.023 C 
ATOM     17  C   UNL     1       2.552  -5.824   2.375  0.00  0.00    +0.058 C 
ATOM     18  C   UNL     1       2.886  -5.238   4.782  0.00  0.00    +0.011 C 
ATOM     19  C   UNL     1       4.821  -6.023   3.403  0.00  0.00    +0.011 C 
ATOM     20  H   UNL     1       0.137  -6.515   1.605  0.00  0.00    +0.153 HD
ENDROOT
BRANCH   1  26
ATOM     21  C   UNL     1      -0.018   1.503   0.010  0.00  0.00    +0.044 C 
ATOM     22  C   UNL     1       0.002  -0.004   0.002  0.00  0.00    -0.050 A 
ATOM     23  C   UNL     1       0.006  -0.689  -1.199  0.00  0.00    +0.003 A 
ATOM     24  C   UNL     1       0.025  -2.071  -1.207  0.00  0.00    +0.001 A 
ATOM     25  C   UNL     1       0.040  -2.768  -0.013  0.00  0.00    +0.004 A 
ATOM     26  C   UNL     1       0.037  -2.084   1.188  0.00  0.00    -0.035 A 
ATOM     27  C   UNL     1       0.023  -0.702   1.195  0.00  0.00    +0.008 A 
ENDBRANCH   1  26
BRANCH   7  28
ATOM     28  S   UNL     1      -4.804  -6.300   2.790  0.00  0.00    -0.088 S 
BRANCH  28  29
ATOM     29  C   UNL     1      -4.176  -7.958   2.406  0.00  0.00    +0.080 C 
BRANCH  29  30
ATOM     30  C   UNL     1      -5.330  -8.962   2.446  0.00  0.00    -0.007 C 
ATOM     31  C   UNL     1      -4.825 -10.336   2.001  0.00  0.00    +0.008 C 
ATOM     32  C   UNL     1      -5.875  -9.056   3.872  0.00  0.00    +0.008 C 
ENDBRANCH  29  30
ENDBRANCH  28  29
ENDBRANCH   7  28
TORSDOF 4
