REMARK  Name = ZINC66401564
REMARK  11 active torsions:
REMARK  status: ('A' for Active; 'I' for Inactive)
REMARK    1  A    between atoms: C_1  and  C_2
REMARK    2  A    between atoms: C_2  and  C_3
REMARK    3  A    between atoms: C_6  and  O_9
REMARK    4  A    between atoms: O_9  and  C_10
REMARK    5  A    between atoms: C_10  and  C_11
REMARK    6  A    between atoms: C_11  and  C_13
REMARK    7  A    between atoms: C_11  and  O_28
REMARK    8  A    between atoms: C_13  and  S_14
REMARK    9  A    between atoms: S_14  and  C_15
REMARK   10  A    between atoms: N_19  and  C_20
REMARK   11  A    between atoms: C_20  and  C_21
REMARK                            x       y       z     vdW  Elec       q    Type
REMARK                         _______ _______ _______ _____ _____    ______ ____
ROOT
ATOM      1  C   UNL     1       6.098  -2.171  -6.189  0.00  0.00    +0.112 C 
ENDROOT
BRANCH   1   2
ATOM      2  C   UNL     1       4.596  -1.960  -6.385  0.00  0.00    +0.162 C 
BRANCH   2   3
ATOM      3  O   UNL     1       3.955  -3.227  -6.551  0.00  0.00    -0.388 OA
ATOM      4  H   UNL     1       4.063  -3.824  -5.798  0.00  0.00    +0.210 HD
ENDBRANCH   2   3
BRANCH   2   5
ATOM      5  C   UNL     1       4.016  -1.251  -5.160  0.00  0.00    +0.261 C 
BRANCH   5   6
ATOM      6  O   UNL     1       2.638  -0.950  -5.391  0.00  0.00    -0.489 OA
BRANCH   6  10
ATOM      7  C   UNL     1       0.607   0.975  -2.360  0.00  0.00    -0.047 A 
ATOM      8  C   UNL     1      -0.049   0.652  -3.533  0.00  0.00    +0.007 A 
ATOM      9  C   UNL     1       0.629   0.007  -4.550  0.00  0.00    +0.046 A 
ATOM     10  C   UNL     1       1.969  -0.316  -4.393  0.00  0.00    +0.121 A 
ATOM     11  C   UNL     1       2.625   0.010  -3.214  0.00  0.00    +0.046 A 
ATOM     12  C   UNL     1       1.944   0.660  -2.203  0.00  0.00    +0.007 A 
BRANCH   7  14
ATOM     13  C   UNL     1      -0.019   3.192  -1.442  0.00  0.00    +0.009 C 
ATOM     14  C   UNL     1      -0.135   1.678  -1.252  0.00  0.00    +0.032 C 
ENDBRANCH   7  14
ENDBRANCH   6  10
ENDBRANCH   5   6
ENDBRANCH   2   5
ENDBRANCH   1   2
BRANCH   1  15
ATOM     15  S   UNL     1       6.812  -2.876  -7.700  0.00  0.00    -0.083 S 
BRANCH  15  16
ATOM     16  C   UNL     1       8.523  -3.057  -7.319  0.00  0.00    +0.193 A 
ATOM     17  N   UNL     1       9.097  -2.743  -6.183  0.00  0.00    -0.121 NA
ATOM     18  N   UNL     1      10.462  -3.041  -6.291  0.00  0.00    -0.112 NA
ATOM     19  C   UNL     1      10.677  -3.527  -7.489  0.00  0.00    +0.220 A 
ATOM     20  N   UNL     1       9.484  -3.554  -8.154  0.00  0.00    -0.291 N 
ATOM     21  N   UNL     1      11.902  -3.945  -7.992  0.00  0.00    -0.295 N 
ATOM     22  C   UNL     1      12.802  -3.002  -8.676  0.00  0.00    +0.136 C 
ATOM     23  C   UNL     1      14.196  -3.125  -8.052  0.00  0.00    +0.179 C 
ATOM     24  O   UNL     1      14.594  -4.498  -8.055  0.00  0.00    -0.377 OA
ATOM     25  C   UNL     1      13.757  -5.352  -7.271  0.00  0.00    +0.179 C 
ATOM     26  C   UNL     1      12.342  -5.342  -7.851  0.00  0.00    +0.136 C 
BRANCH  20  27
ATOM     27  C   UNL     1       9.273  -4.030  -9.524  0.00  0.00    +0.124 C 
ATOM     28  C   UNL     1       9.348  -2.847 -10.491  0.00  0.00    +0.027 C 
ENDBRANCH  20  27
ENDBRANCH  15  16
ENDBRANCH   1  15
TORSDOF 9
