REMARK  Name = ZINC03850642
REMARK  7 active torsions:
REMARK  status: ('A' for Active; 'I' for Inactive)
REMARK    1  A    between atoms: C_13  and  C_14
REMARK    2  A    between atoms: C_14  and  O_15
REMARK    3  A    between atoms: O_15  and  C_16
REMARK    4  A    between atoms: N_18  and  CA_19
REMARK    5  A    between atoms: CA_19  and  C_21
REMARK    6  A    between atoms: CA_19  and  C_23
REMARK    7  A    between atoms: C_21  and  O_22
REMARK                            x       y       z     vdW  Elec       q    Type
REMARK                         _______ _______ _______ _____ _____    ______ ____
ROOT
ATOM      1  C   UNL     1      -0.369   5.982  -1.218  0.00  0.00    +0.246 C 
ENDROOT
BRANCH   1  14
ATOM      2  C   UNL     1      -0.013   1.076   0.008  0.00  0.00    +0.001 A 
ATOM      3  C   UNL     1      -1.221   1.748   0.017  0.00  0.00    +0.000 A 
ATOM      4  C   UNL     1      -1.246   3.132   0.030  0.00  0.00    +0.005 A 
ATOM      5  C   UNL     1      -0.064   3.843   0.023  0.00  0.00    -0.029 A 
ATOM      6  C   UNL     1       1.157   3.175   0.008  0.00  0.00    -0.014 A 
ATOM      7  C   UNL     1       1.174   1.779   0.000  0.00  0.00    +0.009 A 
ATOM      8  C   UNL     1       2.262   4.166   0.002  0.00  0.00    -0.014 A 
ATOM      9  C   UNL     1       3.648   3.998  -0.013  0.00  0.00    +0.009 A 
ATOM     10  C   UNL     1       4.476   5.101  -0.015  0.00  0.00    +0.001 A 
ATOM     11  C   UNL     1       3.938   6.376  -0.003  0.00  0.00    +0.000 A 
ATOM     12  C   UNL     1       2.566   6.550   0.011  0.00  0.00    +0.005 A 
ATOM     13  C   UNL     1       1.731   5.452   0.014  0.00  0.00    -0.029 A 
ATOM     14  C   UNL     1       0.227   5.323   0.028  0.00  0.00    +0.088 C 
ENDBRANCH   1  14
BRANCH   1  15
ATOM     15  O   UNL     1      -1.819   5.954  -1.132  0.00  0.00    -0.449 OA
BRANCH  15  16
ATOM     16  C   UNL     1      -2.502   6.498  -2.157  0.00  0.00    +0.401 C 
ATOM     17  O   UNL     1      -1.903   6.983  -3.097  0.00  0.00    -0.226 OA
ATOM     18  N   UNL     1      -3.849   6.505  -2.140  0.00  0.00    -0.268 N 
ATOM     19  H   UNL     1      -4.327   6.118  -1.390  0.00  0.00    +0.153 HD
BRANCH  18  20
ATOM     20  CA  UNL     1      -4.593   7.097  -3.255  0.00  0.00    +0.187 C 
BRANCH  20  21
ATOM     21  C   UNL     1      -5.951   7.540  -2.775  0.00  0.00    +0.233 C 
ATOM     22  O   UNL     1      -6.267   7.377  -1.615  0.00  0.00    -0.274 OA
ATOM     23  N   UNL     1      -6.814   8.116  -3.634  0.00  0.00    -0.328 N 
ATOM     24  H   UNL     1      -6.562   8.247  -4.561  0.00  0.00    +0.145 HD
ATOM     25  H   UNL     1      -7.689   8.401  -3.325  0.00  0.00    +0.145 HD
ENDBRANCH  20  21
BRANCH  20  26
ATOM     26  C   UNL     1      -4.758   6.058  -4.366  0.00  0.00    +0.187 C 
BRANCH  26  27
ATOM     27  O   UNL     1      -5.574   4.984  -3.896  0.00  0.00    -0.393 OA
ATOM     28  H   UNL     1      -5.722   4.287  -4.550  0.00  0.00    +0.209 HD
ENDBRANCH  26  27
ENDBRANCH  20  26
ENDBRANCH  18  20
ENDBRANCH  15  16
ENDBRANCH   1  15
TORSDOF 7
