REMARK  Name = ZINC08295804
REMARK  3 active torsions:
REMARK  status: ('A' for Active; 'I' for Inactive)
REMARK    1  A    between atoms: C_4  and  C_7
REMARK    2  A    between atoms: C_7  and  N_8
REMARK    3  A    between atoms: C_15  and  O_26
REMARK                            x       y       z     vdW  Elec       q    Type
REMARK                         _______ _______ _______ _____ _____    ______ ____
ROOT
ATOM      1  N   UNL     1      -2.298   5.617   1.186  0.00  0.00    -0.324 N 
ATOM      2  C   UNL     1      -2.459   6.966   1.400  0.00  0.00    +0.150 C 
ATOM      3  N   UNL     1      -1.964   7.967   0.676  0.00  0.00    -0.255 NA
ATOM      4  C   UNL     1      -2.127   9.319   1.185  0.00  0.00    +0.165 C 
ATOM      5  C   UNL     1      -2.307  10.480   0.193  0.00  0.00    +0.230 C 
ATOM      6  C   UNL     1      -1.918  11.712   1.066  0.00  0.00    +0.158 C 
ATOM      7  C   UNL     1      -2.480  11.463   2.479  0.00  0.00    +0.051 C 
ATOM      8  C   UNL     1      -3.830  10.689   2.343  0.00  0.00    +0.116 C 
ATOM      9  C   UNL     1      -3.530   9.327   1.894  0.00  0.00    +0.096 C 
ATOM     10  S   UNL     1      -3.380   7.767   2.732  0.00  0.00    -0.084 S 
ATOM     11  C   UNL     1      -4.378  11.287   1.003  0.00  0.00    +0.312 C 
ATOM     12  O   UNL     1      -5.237  12.132   0.920  0.00  0.00    -0.250 OA
ATOM     13  O   UNL     1      -3.729  10.718  -0.085  0.00  0.00    -0.456 OA
ATOM     14  H   UNL     1      -2.707   4.978   1.790  0.00  0.00    +0.148 HD
ENDROOT
BRANCH   6  15
ATOM     15  O   UNL     1      -0.495  11.838   1.123  0.00  0.00    -0.388 OA
ATOM     16  H   UNL     1      -0.187  12.565   1.680  0.00  0.00    +0.210 HD
ENDBRANCH   6  15
BRANCH   1  17
ATOM     17  C   UNL     1      -1.510   5.146   0.044  0.00  0.00    +0.107 C 
BRANCH  17  21
ATOM     18  C   UNL     1      -0.013   1.086   0.008  0.00  0.00    +0.000 C 
ATOM     19  C   UNL     1      -0.729   1.579   1.267  0.00  0.00    +0.000 C 
ATOM     20  C   UNL     1      -0.750   3.109   1.275  0.00  0.00    +0.005 C 
ATOM     21  C   UNL     1      -1.490   3.616   0.036  0.00  0.00    +0.006 C 
ATOM     22  C   UNL     1      -0.773   3.123  -1.223  0.00  0.00    +0.005 C 
ATOM     23  C   UNL     1      -0.753   1.593  -1.232  0.00  0.00    +0.000 C 
ENDBRANCH  17  21
ENDBRANCH   1  17
TORSDOF 3
