REMARK  Name = ZINC36531205
REMARK  11 active torsions:
REMARK  status: ('A' for Active; 'I' for Inactive)
REMARK    1  A    between atoms: C_1  and  C_2
REMARK    2  A    between atoms: C_5  and  S_8
REMARK    3  A    between atoms: S_8  and  C_11
REMARK    4  A    between atoms: C_11  and  N_12
REMARK    5  A    between atoms: C_13  and  C_15
REMARK    6  A    between atoms: C_15  and  C_17
REMARK    7  A    between atoms: C_15  and  N_26
REMARK    8  A    between atoms: N_26  and  C_27
REMARK    9  A    between atoms: C_28  and  C_30
REMARK   10  A    between atoms: C_31  and  O_37
REMARK   11  A    between atoms: C_35  and  O_36
REMARK                            x       y       z     vdW  Elec       q    Type
REMARK                         _______ _______ _______ _____ _____    ______ ____
ROOT
ATOM      1  C   UNL     1       3.256  -4.899   3.569  0.00  0.00    +0.192 C 
ENDROOT
BRANCH   1   2
ATOM      2  C   UNL     1       4.654  -4.333   3.580  0.00  0.00    -0.015 A 
ATOM      3  C   UNL     1       4.854  -2.996   3.866  0.00  0.00    +0.010 A 
ATOM      4  C   UNL     1       6.133  -2.473   3.879  0.00  0.00    +0.050 A 
ATOM      5  C   UNL     1       7.219  -3.289   3.604  0.00  0.00    +0.166 A 
ATOM      6  C   UNL     1       7.017  -4.636   3.316  0.00  0.00    +0.167 A 
ATOM      7  C   UNL     1       5.732  -5.155   3.311  0.00  0.00    +0.055 A 
ATOM      8  O   UNL     1       8.229  -5.219   3.084  0.00  0.00    -0.453 OA
ATOM      9  C   UNL     1       9.137  -4.130   2.831  0.00  0.00    +0.466 C 
ATOM     10  O   UNL     1       8.557  -3.027   3.552  0.00  0.00    -0.453 OA
ENDBRANCH   1   2
BRANCH   1  12
ATOM     11  N   UNL     1       2.904  -4.447   1.162  0.00  0.00    -0.294 N 
ATOM     12  C   UNL     1       2.905  -5.341   2.171  0.00  0.00    +0.239 C 
ATOM     13  O   UNL     1       2.624  -6.500   1.955  0.00  0.00    -0.273 OA
ATOM     14  H   UNL     1       3.128  -3.520   1.335  0.00  0.00    +0.150 HD
BRANCH  11  15
ATOM     15  C   UNL     1       2.562  -4.877  -0.196  0.00  0.00    +0.278 C 
BRANCH  15  16
ATOM     16  S   UNL     1       0.800  -4.574  -0.501  0.00  0.00    +0.013 S 
ATOM     17  O   UNL     1       0.025  -5.053   0.590  0.00  0.00    -0.168 OA
ATOM     18  O   UNL     1       0.466  -4.927  -1.836  0.00  0.00    -0.168 OA
BRANCH  16  23
ATOM     19  C   UNL     1       0.197   1.426  -0.300  0.00  0.00    +0.044 C 
ATOM     20  C   UNL     1       0.348  -0.072  -0.350  0.00  0.00    -0.050 A 
ATOM     21  C   UNL     1       0.632  -0.699  -1.550  0.00  0.00    +0.005 A 
ATOM     22  C   UNL     1       0.770  -2.074  -1.595  0.00  0.00    +0.027 A 
ATOM     23  C   UNL     1       0.625  -2.822  -0.442  0.00  0.00    +0.090 A 
ATOM     24  C   UNL     1       0.342  -2.195   0.757  0.00  0.00    +0.027 A 
ATOM     25  C   UNL     1       0.207  -0.820   0.804  0.00  0.00    +0.005 A 
ENDBRANCH  16  23
ENDBRANCH  15  16
ENDBRANCH  11  15
ENDBRANCH   1  12
BRANCH   1  26
ATOM     26  N   UNL     1       3.187  -6.047   4.476  0.00  0.00    -0.285 N 
ATOM     27  C   UNL     1       3.992  -7.241   4.210  0.00  0.00    +0.133 C 
ATOM     28  C   UNL     1       2.381  -6.004   5.556  0.00  0.00    +0.254 C 
ATOM     29  O   UNL     1       1.712  -5.013   5.777  0.00  0.00    -0.270 OA
BRANCH  28  30
ATOM     30  C   UNL     1       2.311  -7.158   6.468  0.00  0.00    +0.119 A 
ATOM     31  C   UNL     1       3.179  -7.244   7.566  0.00  0.00    +0.133 A 
ATOM     32  C   UNL     1       3.104  -8.334   8.418  0.00  0.00    +0.046 A 
ATOM     33  C   UNL     1       2.178  -9.334   8.189  0.00  0.00    +0.007 A 
ATOM     34  C   UNL     1       1.317  -9.260   7.109  0.00  0.00    +0.046 A 
ATOM     35  C   UNL     1       1.371  -8.176   6.248  0.00  0.00    +0.133 A 
BRANCH  35  36
ATOM     36  O   UNL     1       0.522  -8.102   5.193  0.00  0.00    -0.506 OA
ATOM     37  H   UNL     1       0.861  -8.512   4.385  0.00  0.00    +0.292 HD
ENDBRANCH  35  36
BRANCH  31  38
ATOM     38  O   UNL     1       4.089  -6.264   7.793  0.00  0.00    -0.506 OA
ATOM     39  H   UNL     1       3.765  -5.549   8.357  0.00  0.00    +0.292 HD
ENDBRANCH  31  38
ENDBRANCH  28  30
ENDBRANCH   1  26
TORSDOF 9
