REMARK  Name = ZINC35483437
REMARK  13 active torsions:
REMARK  status: ('A' for Active; 'I' for Inactive)
REMARK    1  A    between atoms: C_1  and  C_2
REMARK    2  A    between atoms: C_2  and  C_3
REMARK    3  A    between atoms: C_3  and  C_4
REMARK    4  A    between atoms: C_4  and  N_5
REMARK    5  A    between atoms: N_5  and  C_6
REMARK    6  A    between atoms: N_5  and  C_10
REMARK    7  A    between atoms: C_6  and  C_7
REMARK    8  A    between atoms: C_7  and  C_8
REMARK    9  A    between atoms: C_8  and  C_9
REMARK   10  A    between atoms: C_10  and  C_11
REMARK   11  A    between atoms: C_11  and  C_12
REMARK   12  A    between atoms: C_12  and  N_13
REMARK   13  A    between atoms: C_14  and  C_29
REMARK                            x       y       z     vdW  Elec       q    Type
REMARK                         _______ _______ _______ _____ _____    ______ ____
ROOT
ATOM      1  N   UNL     1      -5.768  -6.661   0.116  0.00  0.00    -0.284 N 
ATOM      2  C   UNL     1      -6.743  -6.789   1.212  0.00  0.00    +0.144 C 
ATOM      3  C   UNL     1      -7.987  -7.332   0.589  0.00  0.00    +0.072 A 
ATOM      4  C   UNL     1      -9.288  -7.679   1.172  0.00  0.00    +0.199 A 
ATOM      5  O   UNL     1      -9.604  -7.394   2.313  0.00  0.00    -0.287 OA
ATOM      6  C   UNL     1     -10.182  -8.409   0.238  0.00  0.00    +0.064 A 
ATOM      7  C   UNL     1     -11.368  -8.980   0.698  0.00  0.00    +0.015 A 
ATOM      8  C   UNL     1     -12.178  -9.654  -0.173  0.00  0.00    +0.001 A 
ATOM      9  C   UNL     1     -11.823  -9.770  -1.510  0.00  0.00    +0.004 A 
ATOM     10  C   UNL     1     -10.657  -9.210  -1.981  0.00  0.00    +0.047 A 
ATOM     11  C   UNL     1      -9.814  -8.516  -1.113  0.00  0.00    +0.139 A 
ATOM     12  O   UNL     1      -8.678  -7.966  -1.599  0.00  0.00    -0.450 OA
ATOM     13  C   UNL     1      -7.748  -7.495  -0.746  0.00  0.00    +0.199 A 
ATOM     14  C   UNL     1      -6.364  -7.071  -1.022  0.00  0.00    +0.283 C 
ATOM     15  O   UNL     1      -5.836  -7.089  -2.117  0.00  0.00    -0.267 OA
ENDROOT
BRANCH   2  16
ATOM     16  C   UNL     1      -7.014  -5.440   1.827  0.00  0.00    -0.022 A 
ATOM     17  C   UNL     1      -7.133  -4.324   1.020  0.00  0.00    +0.007 A 
ATOM     18  C   UNL     1      -7.382  -3.087   1.583  0.00  0.00    +0.015 A 
ATOM     19  C   UNL     1      -7.512  -2.966   2.955  0.00  0.00    +0.018 A 
ATOM     20  C   UNL     1      -7.393  -4.083   3.762  0.00  0.00    +0.015 A 
ATOM     21  C   UNL     1      -7.149  -5.320   3.197  0.00  0.00    +0.007 A 
ATOM     22 BR   UNL     1      -7.852  -1.273   3.727  0.00  0.00    -0.050 Br
ENDBRANCH   2  16
BRANCH   1  23
ATOM     23  C   UNL     1      -4.394  -6.169   0.240  0.00  0.00    +0.107 C 
BRANCH  23  24
ATOM     24  C   UNL     1      -4.375  -4.653   0.038  0.00  0.00    +0.000 C 
BRANCH  24  25
ATOM     25  C   UNL     1      -2.940  -4.139   0.168  0.00  0.00    -0.077 C 
BRANCH  25  26
ATOM     26  N   UNL     1      -2.903  -2.705  -0.150  0.00  0.00    +0.380 N 
ATOM     27  H   UNL     1      -3.306  -2.552  -1.062  0.00  0.00    -0.082 HD
BRANCH  26  28
ATOM     28  C   UNL     1      -3.672  -1.961   0.857  0.00  0.00    -0.079 C 
BRANCH  28  29
ATOM     29  C   UNL     1      -3.738  -0.485   0.459  0.00  0.00    -0.019 C 
BRANCH  29  31
ATOM     30  C   UNL     1      -4.605   1.766   1.110  0.00  0.00    +0.004 C 
ATOM     31  C   UNL     1      -4.539   0.290   1.508  0.00  0.00    -0.005 C 
ENDBRANCH  29  31
ENDBRANCH  28  29
ENDBRANCH  26  28
BRANCH  26  32
ATOM     32  C   UNL     1      -1.510  -2.238  -0.145  0.00  0.00    -0.079 C 
BRANCH  32  33
ATOM     33  C   UNL     1      -0.748  -2.897  -1.297  0.00  0.00    -0.019 C 
BRANCH  33  34
ATOM     34  C   UNL     1       0.721  -2.473  -1.245  0.00  0.00    -0.005 C 
ATOM     35  C   UNL     1       1.484  -3.132  -2.396  0.00  0.00    +0.004 C 
ENDBRANCH  33  34
ENDBRANCH  32  33
ENDBRANCH  26  32
ENDBRANCH  25  26
ENDBRANCH  24  25
ENDBRANCH  23  24
ENDBRANCH   1  23
TORSDOF 11
