REMARK  Name = ZINC39695825
REMARK  11 active torsions:
REMARK  status: ('A' for Active; 'I' for Inactive)
REMARK    1  A    between atoms: C_1  and  C_2
REMARK    2  A    between atoms: C_2  and  C_3
REMARK    3  A    between atoms: C_3  and  C_4
REMARK    4  A    between atoms: C_4  and  C_5
REMARK    5  A    between atoms: C_5  and  C_7
REMARK    6  A    between atoms: C_5  and  C_8
REMARK    7  A    between atoms: C_12  and  C_21
REMARK    8  A    between atoms: N_23  and  C_24
REMARK    9  A    between atoms: C_24  and  C_26
REMARK   10  A    between atoms: C_24  and  C_27
REMARK   11  A    between atoms: C_33  and  C_37
REMARK                            x       y       z     vdW  Elec       q    Type
REMARK                         _______ _______ _______ _____ _____    ______ ____
ROOT
ATOM      1  C   UNL     1       1.609  -3.777   2.573  0.00  0.00    +0.218 C 
ATOM      2  O   UNL     1       1.026  -4.292   1.642  0.00  0.00    -0.275 OA
ATOM      3  N   UNL     1       2.118  -4.544   3.558  0.00  0.00    -0.300 N 
ATOM      4  C   UNL     1       2.850  -4.101   4.768  0.00  0.00    +0.121 C 
ATOM      5  C   UNL     1       2.333  -5.021   5.896  0.00  0.00    +0.100 C 
ATOM      6  C   UNL     1       1.825  -6.280   5.173  0.00  0.00    -0.004 C 
ATOM      7  C   UNL     1       2.066  -6.020   3.678  0.00  0.00    +0.115 C 
ATOM      8  C   UNL     1       2.611  -7.505   5.630  0.00  0.00    -0.010 C 
ATOM      9  C   UNL     1       2.049  -8.752   4.941  0.00  0.00    -0.082 C 
ATOM     10  N   UNL     1       0.629  -8.903   5.279  0.00  0.00    +0.379 N 
ATOM     11  C   UNL     1      -0.134  -7.764   4.754  0.00  0.00    -0.082 C 
ATOM     12  C   UNL     1       0.335  -6.476   5.435  0.00  0.00    -0.010 C 
ATOM     13  H   UNL     1       0.277  -9.758   4.874  0.00  0.00    -0.086 HD
ATOM     14  H   UNL     1       0.525  -8.942   6.282  0.00  0.00    -0.086 HD
ENDROOT
BRANCH   5  15
ATOM     15  C   UNL     1       1.208  -4.354   6.644  0.00  0.00    +0.219 C 
ATOM     16  O   UNL     1       0.476  -3.575   6.070  0.00  0.00    -0.275 OA
ATOM     17  N   UNL     1       1.015  -4.622   7.950  0.00  0.00    -0.305 N 
ATOM     18  H   UNL     1       1.600  -5.245   8.409  0.00  0.00    +0.149 HD
BRANCH  17  19
ATOM     19  C   UNL     1      -0.079  -3.973   8.678  0.00  0.00    +0.136 C 
ATOM     20  C   UNL     1      -1.369  -4.769   8.475  0.00  0.00    +0.036 C 
BRANCH  19  21
ATOM     21  C   UNL     1       0.255  -3.923  10.147  0.00  0.00    +0.128 A 
ATOM     22  H   UNL     1      -0.859  -2.294  10.825  0.00  0.00    +0.167 HD
ATOM     23  N   UNL     1       1.062  -4.742  10.756  0.00  0.00    -0.231 NA
ATOM     24  C   UNL     1       1.136  -4.416  12.072  0.00  0.00    +0.089 A 
ATOM     25  C   UNL     1       1.836  -4.946  13.158  0.00  0.00    +0.030 A 
ATOM     26  C   UNL     1       1.702  -4.383  14.396  0.00  0.00    +0.005 A 
ATOM     27  C   UNL     1       0.875  -3.285  14.587  0.00  0.00    -0.048 A 
ATOM     28  C   UNL     1       0.174  -2.745  13.529  0.00  0.00    +0.031 A 
ATOM     29  C   UNL     1       0.299  -3.304  12.265  0.00  0.00    +0.067 A 
ATOM     30  N   UNL     1      -0.240  -3.013  11.028  0.00  0.00    -0.340 N 
ATOM     31  C   UNL     1       0.741  -2.680  15.961  0.00  0.00    +0.044 C 
ENDBRANCH  19  21
ENDBRANCH  17  19
ENDBRANCH   5  15
BRANCH   1  32
ATOM     32  C   UNL     1       1.765  -2.279   2.627  0.00  0.00    +0.072 C 
ATOM     33  C   UNL     1       3.253  -1.921   2.644  0.00  0.00    +0.017 C 
BRANCH  32  34
ATOM     34  C   UNL     1       1.103  -1.652   1.398  0.00  0.00    +0.012 C 
BRANCH  34  35
ATOM     35  C   UNL     1       1.152  -0.127   1.515  0.00  0.00    +0.000 C 
BRANCH  35  37
ATOM     36  C   UNL     1       0.538   2.024   0.403  0.00  0.00    +0.004 C 
ATOM     37  C   UNL     1       0.490   0.499   0.286  0.00  0.00    -0.003 C 
ENDBRANCH  35  37
ENDBRANCH  34  35
ENDBRANCH  32  34
ENDBRANCH   1  32
TORSDOF 7
