REMARK  Name = ZINC40388673
REMARK  2 active torsions:
REMARK  status: ('A' for Active; 'I' for Inactive)
REMARK    1  A    between atoms: C_2  and  N_9
REMARK    2  A    between atoms: C_10  and  C_12
REMARK                            x       y       z     vdW  Elec       q    Type
REMARK                         _______ _______ _______ _____ _____    ______ ____
ROOT
ATOM      1  C   UNL     1       2.293   5.675   0.225  0.00  0.00    +0.122 C 
ATOM      2  C   UNL     1       1.605   6.275  -1.003  0.00  0.00    +0.114 C 
ATOM      3  C   UNL     1       2.509   6.149  -2.201  0.00  0.00    +0.219 C 
ATOM      4  O   UNL     1       2.032   5.906  -3.289  0.00  0.00    -0.275 OA
ATOM      5  N   UNL     1       3.838   6.303  -2.077  0.00  0.00    -0.270 N 
ATOM      6  C   UNL     1       4.421   6.476  -0.834  0.00  0.00    +0.138 A 
ATOM      7  C   UNL     1       3.703   6.194   0.315  0.00  0.00    +0.069 A 
ATOM      8  C   UNL     1       4.305   6.396   1.560  0.00  0.00    +0.258 A 
ATOM      9  O   UNL     1       3.695   6.167   2.592  0.00  0.00    -0.267 OA
ATOM     10  N   UNL     1       5.577   6.849   1.599  0.00  0.00    -0.295 N 
ATOM     11  H   UNL     1       6.008   7.011   2.452  0.00  0.00    +0.172 HD
ATOM     12  C   UNL     1       6.253   7.079   0.440  0.00  0.00    +0.200 A 
ATOM     13  N   UNL     1       5.688   6.893  -0.733  0.00  0.00    -0.200 NA
ATOM     14  N   UNL     1       7.550   7.514   0.497  0.00  0.00    -0.301 N 
ATOM     15  C   UNL     1       8.318   7.761   1.727  0.00  0.00    +0.108 C 
ATOM     16  C   UNL     1       9.714   8.261   1.302  0.00  0.00    +0.020 C 
ATOM     17  C   UNL     1       9.468   8.807  -0.129  0.00  0.00    +0.020 C 
ATOM     18  C   UNL     1       8.411   7.805  -0.664  0.00  0.00    +0.108 C 
ATOM     19  H   UNL     1       4.397   6.293  -2.870  0.00  0.00    +0.156 HD
ENDROOT
BRANCH   1  21
ATOM     20  N   UNL     1       1.161   3.487   0.009  0.00  0.00    -0.285 N 
ATOM     21  C   UNL     1       2.317   4.173   0.104  0.00  0.00    +0.225 C 
ATOM     22  O   UNL     1       3.376   3.583   0.091  0.00  0.00    -0.275 OA
ATOM     23  H   UNL     1       0.317   3.962  -0.048  0.00  0.00    +0.155 HD
BRANCH  20  25
ATOM     24  C   UNL     1       0.154   1.373   0.602  0.00  0.00    +0.043 A 
ATOM     25  C   UNL     1       1.178   2.088  -0.006  0.00  0.00    +0.036 A 
ATOM     26  C   UNL     1       2.218   1.411  -0.630  0.00  0.00    +0.043 A 
ATOM     27  C   UNL     1       2.232   0.029  -0.644  0.00  0.00    +0.044 A 
ATOM     28  C   UNL     1       1.210  -0.681  -0.038  0.00  0.00    +0.040 A 
ATOM     29  C   UNL     1       0.173  -0.009   0.585  0.00  0.00    +0.044 A 
ATOM     30 CL   UNL     1      -1.106  -0.903   1.345  0.00  0.00    -0.083 Cl
ATOM     31 CL   UNL     1       3.532  -0.817  -1.424  0.00  0.00    -0.083 Cl
ENDBRANCH  20  25
ENDBRANCH   1  21
TORSDOF 2
