REMARK  Name = ZINC63666909
REMARK  7 active torsions:
REMARK  status: ('A' for Active; 'I' for Inactive)
REMARK    1  A    between atoms: C_6  and  C_10
REMARK    2  A    between atoms: C_10  and  C_11
REMARK    3  A    between atoms: C_11  and  C_12
REMARK    4  A    between atoms: C_12  and  N_13
REMARK    5  A    between atoms: C_14  and  C_16
REMARK    6  A    between atoms: N_19  and  C_22
REMARK    7  A    between atoms: C_26  and  N_29
REMARK                            x       y       z     vdW  Elec       q    Type
REMARK                         _______ _______ _______ _____ _____    ______ ____
ROOT
ATOM      1  N   UNL     1       2.980  -6.295  -2.622  0.00  0.00    -0.315 N 
ATOM      2  C   UNL     1       3.278  -7.139  -3.629  0.00  0.00    +0.216 C 
ATOM      3  O   UNL     1       3.966  -6.762  -4.553  0.00  0.00    -0.276 OA
ATOM      4  H   UNL     1       2.429  -6.596  -1.883  0.00  0.00    +0.149 HD
ENDROOT
BRANCH   2   5
ATOM      5  C   UNL     1       2.756  -8.553  -3.606  0.00  0.00    +0.077 C 
ATOM      6  C   UNL     1       1.225  -8.533  -3.591  0.00  0.00    +0.028 C 
ATOM      7  C   UNL     1       0.700  -9.970  -3.629  0.00  0.00    +0.088 C 
ATOM      8  N   UNL     1       1.186 -10.637  -4.843  0.00  0.00    -0.271 NA
ATOM      9  C   UNL     1       2.653 -10.711  -4.858  0.00  0.00    +0.088 C 
ATOM     10  C   UNL     1       3.236  -9.296  -4.856  0.00  0.00    +0.028 C 
BRANCH   8  11
ATOM     11  C   UNL     1       0.591 -11.973  -4.984  0.00  0.00    +0.260 C 
ATOM     12  N   UNL     1       1.033 -12.878  -3.899  0.00  0.00    -0.159 NA
ATOM     13  N   UNL     1       1.448 -13.992  -4.151  0.00  0.00    -0.156 NA
ATOM     14  C   UNL     1       1.521 -14.473  -5.549  0.00  0.00    +0.279 C 
ATOM     15  S   UNL     1       1.288 -12.870  -6.442  0.00  0.00    -0.069 S 
BRANCH  14  16
ATOM     16  N   UNL     1       0.438 -15.414  -5.848  0.00  0.00    -0.270 N 
ATOM     17  C   UNL     1      -0.930 -14.982  -5.592  0.00  0.00    +0.111 C 
ATOM     18  C   UNL     1      -1.919 -15.849  -6.372  0.00  0.00    +0.019 C 
ATOM     19  C   UNL     1      -1.600 -17.324  -6.101  0.00  0.00    +0.011 C 
ATOM     20  C   UNL     1      -0.243 -17.649  -6.732  0.00  0.00    +0.096 C 
ATOM     21  C   UNL     1       0.766 -16.608  -6.342  0.00  0.00    +0.218 C 
ATOM     22  O   UNL     1       1.942 -16.869  -6.479  0.00  0.00    -0.276 OA
ENDBRANCH  14  16
ENDBRANCH   8  11
ENDBRANCH   2   5
BRANCH   1  23
ATOM     23  C   UNL     1       3.487  -4.920  -2.644  0.00  0.00    +0.104 C 
BRANCH  23  24
ATOM     24  C   UNL     1       3.007  -4.179  -1.394  0.00  0.00    +0.022 C 
BRANCH  24  25
ATOM     25  C   UNL     1       3.537  -2.744  -1.417  0.00  0.00    +0.048 C 
BRANCH  25  31
ATOM     26  C   UNL     1      -0.021   1.412  -0.190  0.00  0.00    +0.002 A 
ATOM     27  C   UNL     1       1.156   2.183  -0.194  0.00  0.00    +0.002 A 
ATOM     28  C   UNL     1       2.386   1.631  -0.191  0.00  0.00    +0.027 A 
ATOM     29  C   UNL     1       2.524   0.168  -0.181  0.00  0.00    +0.060 A 
ATOM     30  N   UNL     1       3.558  -0.623  -0.176  0.00  0.00    -0.363 N 
ATOM     31  C   UNL     1       3.056  -2.003  -0.168  0.00  0.00    +0.174 C 
ATOM     32  N   UNL     1       1.591  -1.911  -0.169  0.00  0.00    -0.363 N 
ATOM     33  C   UNL     1       1.279  -0.647  -0.177  0.00  0.00    +0.060 A 
ATOM     34  C   UNL     1      -0.006   0.064  -0.182  0.00  0.00    +0.027 A 
ATOM     35  H   UNL     1       4.489  -0.351  -0.178  0.00  0.00    +0.162 HD
ATOM     36  H   UNL     1       0.969  -2.656  -0.165  0.00  0.00    +0.162 HD
ENDBRANCH  25  31
ENDBRANCH  24  25
ENDBRANCH  23  24
ENDBRANCH   1  23
TORSDOF 7
