REMARK  Name = ZINC64875256
REMARK  1 active torsions:
REMARK  status: ('A' for Active; 'I' for Inactive)
REMARK    1  A    between atoms: C_5  and  C_6
REMARK                            x       y       z     vdW  Elec       q    Type
REMARK                         _______ _______ _______ _____ _____    ______ ____
ROOT
ATOM      1  C   UNL     1      -1.178  -0.884   0.009  0.00  0.00    +0.198 A 
ATOM      2  N   UNL     1      -1.155  -2.267   0.006  0.00  0.00    -0.287 N 
ATOM      3  H   UNL     1      -0.359  -2.822   0.000  0.00  0.00    +0.172 HD
ATOM      4  C   UNL     1      -2.428  -2.711   0.014  0.00  0.00    +0.342 A 
ATOM      5  O   UNL     1      -2.782  -3.876   0.015  0.00  0.00    -0.245 OA
ATOM      6  N   UNL     1      -3.238  -1.632   0.021  0.00  0.00    -0.226 N 
ATOM      7  H   UNL     1      -4.208  -1.644   0.028  0.00  0.00    +0.194 HD
ATOM      8  N   UNL     1      -2.424  -0.492   0.023  0.00  0.00    -0.148 NA
ENDROOT
BRANCH   1  13
ATOM      9  C   UNL     1      -0.016   1.358   0.009  0.00  0.00    +0.054 A 
ATOM     10  C   UNL     1       1.326   1.782  -0.001  0.00  0.00    +0.057 A 
ATOM     11  C   UNL     1       2.092   0.671  -0.014  0.00  0.00    +0.171 A 
ATOM     12  O   UNL     1       1.289  -0.406  -0.012  0.00  0.00    -0.445 OA
ATOM     13  C   UNL     1       0.002  -0.004   0.002  0.00  0.00    +0.173 A 
ATOM     14 BR   UNL     1       3.982   0.635  -0.033  0.00  0.00    -0.008 Br
ENDBRANCH   1  13
TORSDOF 1
