REMARK  Name = ZINC39686318
REMARK  11 active torsions:
REMARK  status: ('A' for Active; 'I' for Inactive)
REMARK    1  A    between atoms: C_1  and  C_2
REMARK    2  A    between atoms: C_2  and  C_3
REMARK    3  A    between atoms: C_3  and  C_5
REMARK    4  A    between atoms: C_3  and  C_6
REMARK    5  A    between atoms: C_6  and  C_7
REMARK    6  A    between atoms: C_11  and  C_20
REMARK    7  A    between atoms: N_22  and  C_23
REMARK    8  A    between atoms: C_29  and  C_31
REMARK    9  A    between atoms: C_31  and  C_32
REMARK   10  A    between atoms: C_32  and  C_33
REMARK   11  A    between atoms: C_32  and  C_34
REMARK                            x       y       z     vdW  Elec       q    Type
REMARK                         _______ _______ _______ _____ _____    ______ ____
ROOT
ATOM      1  C   UNL     1      -2.974  -2.592   0.243  0.00  0.00    +0.216 C 
ATOM      2  O   UNL     1      -3.917  -1.833   0.298  0.00  0.00    -0.276 OA
ATOM      3  N   UNL     1      -3.167  -3.918   0.392  0.00  0.00    -0.300 N 
ATOM      4  C   UNL     1      -2.147  -4.993   0.363  0.00  0.00    +0.121 C 
ATOM      5  C   UNL     1      -2.586  -5.978   1.470  0.00  0.00    +0.100 C 
ATOM      6  C   UNL     1      -4.096  -5.736   1.634  0.00  0.00    -0.004 C 
ATOM      7  C   UNL     1      -4.446  -4.629   0.628  0.00  0.00    +0.115 C 
ATOM      8  C   UNL     1      -4.406  -5.268   3.053  0.00  0.00    -0.010 C 
ATOM      9  C   UNL     1      -5.918  -5.089   3.207  0.00  0.00    -0.082 C 
ATOM     10  N   UNL     1      -6.594  -6.363   2.933  0.00  0.00    +0.379 N 
ATOM     11  C   UNL     1      -6.367  -6.759   1.538  0.00  0.00    -0.082 C 
ATOM     12  C   UNL     1      -4.873  -7.008   1.312  0.00  0.00    -0.010 C 
ATOM     13  H   UNL     1      -6.229  -7.075   3.547  0.00  0.00    -0.086 HD
ATOM     14  H   UNL     1      -7.585  -6.258   3.094  0.00  0.00    -0.086 HD
ENDROOT
BRANCH   5  15
ATOM     15  C   UNL     1      -2.323  -7.399   1.043  0.00  0.00    +0.218 C 
ATOM     16  O   UNL     1      -2.379  -7.699  -0.131  0.00  0.00    -0.275 OA
ATOM     17  N   UNL     1      -2.026  -8.335   1.965  0.00  0.00    -0.312 N 
ATOM     18  H   UNL     1      -1.982  -8.095   2.904  0.00  0.00    +0.149 HD
BRANCH  17  19
ATOM     19  C   UNL     1      -1.770  -9.717   1.550  0.00  0.00    +0.076 C 
ATOM     20  C   UNL     1      -3.099 -10.467   1.427  0.00  0.00    +0.041 C 
ATOM     21  C   UNL     1      -2.830 -11.900   0.960  0.00  0.00    +0.109 C 
ATOM     22  N   UNL     1      -1.868 -12.525   1.877  0.00  0.00    -0.301 N 
ATOM     23  C   UNL     1      -0.594 -11.841   2.137  0.00  0.00    +0.109 C 
ATOM     24  C   UNL     1      -0.887 -10.407   2.591  0.00  0.00    +0.041 C 
ATOM     25  C   UNL     1      -2.148 -13.702   2.470  0.00  0.00    +0.216 C 
ATOM     26  O   UNL     1      -3.203 -14.257   2.248  0.00  0.00    -0.276 OA
BRANCH  25  27
ATOM     27  C   UNL     1      -1.150 -14.330   3.409  0.00  0.00    +0.099 C 
BRANCH  27  28
ATOM     28  C   UNL     1      -1.710 -15.651   3.940  0.00  0.00    -0.008 C 
ATOM     29  C   UNL     1      -0.649 -16.348   4.794  0.00  0.00    +0.008 C 
ATOM     30  C   UNL     1      -2.949 -15.373   4.793  0.00  0.00    +0.008 C 
ENDBRANCH  27  28
ENDBRANCH  25  27
ENDBRANCH  17  19
ENDBRANCH   5  15
BRANCH   1  31
ATOM     31  C   UNL     1      -1.586  -2.054   0.009  0.00  0.00    +0.099 C 
BRANCH  31  32
ATOM     32  C   UNL     1      -1.645  -0.531  -0.124  0.00  0.00    -0.006 C 
ATOM     33  C   UNL     1      -2.440  -0.160  -1.378  0.00  0.00    +0.008 C 
BRANCH  32  35
ATOM     34  C   UNL     1      -0.276   1.555  -0.246  0.00  0.00    +0.004 C 
ATOM     35  C   UNL     1      -0.225   0.026  -0.238  0.00  0.00    +0.000 C 
ENDBRANCH  32  35
ENDBRANCH  31  32
ENDBRANCH   1  31
TORSDOF 7
