REMARK  Name = ZINC67639774
REMARK  9 active torsions:
REMARK  status: ('A' for Active; 'I' for Inactive)
REMARK    1  A    between atoms: C_6  and  C_11
REMARK    2  A    between atoms: C_11  and  C_13
REMARK    3  A    between atoms: C_11  and  O_30
REMARK    4  A    between atoms: C_13  and  N_14
REMARK    5  A    between atoms: N_17  and  C_18
REMARK    6  A    between atoms: C_18  and  C_19
REMARK    7  A    between atoms: C_19  and  N_20
REMARK    8  A    between atoms: C_21  and  C_23
REMARK    9  A    between atoms: C_23  and  C_24
REMARK                            x       y       z     vdW  Elec       q    Type
REMARK                         _______ _______ _______ _____ _____    ______ ____
ROOT
ATOM      1  N   UNL     1       6.665  -3.753  -1.519  0.00  0.00    -0.297 N 
ATOM      2  C   UNL     1       7.195  -4.160  -2.689  0.00  0.00    +0.300 C 
ATOM      3  O   UNL     1       6.608  -3.943  -3.731  0.00  0.00    -0.253 OA
ATOM      4  N   UNL     1       8.377  -4.808  -2.704  0.00  0.00    -0.298 N 
ATOM      5  H   UNL     1       7.134  -3.926  -0.688  0.00  0.00    +0.150 HD
ATOM      6  H   UNL     1       8.846  -4.981  -1.873  0.00  0.00    +0.150 HD
ENDROOT
BRANCH   1   7
ATOM      7  C   UNL     1       5.380  -3.049  -1.503  0.00  0.00    +0.141 C 
BRANCH   7   8
ATOM      8  C   UNL     1       5.008  -2.700  -0.060  0.00  0.00    +0.162 C 
BRANCH   8  14
ATOM      9  C   UNL     1      -0.016   1.357   0.009  0.00  0.00    +0.001 A 
ATOM     10  C   UNL     1       1.169   2.091   0.002  0.00  0.00    +0.001 A 
ATOM     11  C   UNL     1       2.378   1.468  -0.013  0.00  0.00    +0.008 A 
ATOM     12  C   UNL     1       2.438   0.063  -0.021  0.00  0.00    -0.018 A 
ATOM     13  C   UNL     1       3.668  -0.615  -0.036  0.00  0.00    +0.014 A 
ATOM     14  C   UNL     1       3.687  -1.976  -0.043  0.00  0.00    -0.017 A 
ATOM     15  C   UNL     1       2.502  -2.710  -0.036  0.00  0.00    +0.007 A 
ATOM     16  C   UNL     1       1.292  -2.087  -0.021  0.00  0.00    +0.009 A 
ATOM     17  C   UNL     1       1.233  -0.683  -0.013  0.00  0.00    -0.018 A 
ATOM     18  C   UNL     1       0.002  -0.004   0.002  0.00  0.00    +0.008 A 
ENDBRANCH   8  14
BRANCH   8  19
ATOM     19  O   UNL     1       4.903  -3.901   0.708  0.00  0.00    -0.386 OA
ATOM     20  H   UNL     1       4.234  -4.519   0.382  0.00  0.00    +0.210 HD
ENDBRANCH   8  19
ENDBRANCH   7   8
ENDBRANCH   1   7
BRANCH   4  21
ATOM     21  C   UNL     1       8.954  -5.250  -3.976  0.00  0.00    +0.124 C 
BRANCH  21  22
ATOM     22  C   UNL     1      10.287  -5.954  -3.715  0.00  0.00    +0.123 C 
BRANCH  22  23
ATOM     23  N   UNL     1      10.864  -6.396  -4.987  0.00  0.00    -0.314 N 
ATOM     24  C   UNL     1      12.045  -7.044  -5.002  0.00  0.00    +0.213 C 
ATOM     25  O   UNL     1      12.632  -7.261  -3.962  0.00  0.00    -0.276 OA
ATOM     26  H   UNL     1      10.395  -6.223  -5.818  0.00  0.00    +0.149 HD
BRANCH  24  27
ATOM     27  C   UNL     1      12.638  -7.500  -6.310  0.00  0.00    +0.099 C 
BRANCH  27  28
ATOM     28  C   UNL     1      13.972  -8.203  -6.048  0.00  0.00    -0.002 C 
ATOM     29  C   UNL     1      14.975  -7.198  -5.477  0.00  0.00    +0.004 C 
ATOM     30  C   UNL     1      16.308  -7.901  -5.216  0.00  0.00    +0.000 C 
ATOM     31  C   UNL     1      16.849  -8.472  -6.528  0.00  0.00    +0.000 C 
ATOM     32  C   UNL     1      15.847  -9.477  -7.099  0.00  0.00    +0.000 C 
ATOM     33  C   UNL     1      14.513  -8.774  -7.360  0.00  0.00    +0.004 C 
ENDBRANCH  27  28
ENDBRANCH  24  27
ENDBRANCH  22  23
ENDBRANCH  21  22
ENDBRANCH   4  21
TORSDOF 9
