REMARK  Name = ZINC20757130
REMARK  8 active torsions:
REMARK  status: ('A' for Active; 'I' for Inactive)
REMARK    1  A    between atoms: C_1  and  C_2
REMARK    2  A    between atoms: C_2  and  C_3
REMARK    3  A    between atoms: C_3  and  C_5
REMARK    4  A    between atoms: C_3  and  N_6
REMARK    5  A    between atoms: N_6  and  S_7
REMARK    6  A    between atoms: S_7  and  C_10
REMARK    7  A    between atoms: C_23  and  C_26
REMARK    8  A    between atoms: C_29  and  N_32
REMARK                            x       y       z     vdW  Elec       q    Type
REMARK                         _______ _______ _______ _____ _____    ______ ____
ROOT
ATOM      1  C   UNL     1      -5.307   2.293   0.984  0.00  0.00    +0.106 A 
ATOM      2  C   UNL     1      -5.175   3.359   1.857  0.00  0.00    +0.030 A 
ATOM      3  C   UNL     1      -3.912   3.746   2.291  0.00  0.00    +0.025 A 
ATOM      4  C   UNL     1      -2.789   3.065   1.838  0.00  0.00    +0.031 A 
ATOM      5  C   UNL     1      -2.922   1.994   0.956  0.00  0.00    -0.018 A 
ATOM      6  C   UNL     1      -4.191   1.617   0.537  0.00  0.00    +0.034 A 
ATOM      7  C   UNL     1      -1.741   1.231   0.447  0.00  0.00    +0.049 C 
ATOM      8  C   UNL     1      -1.431   1.585  -0.988  0.00  0.00    -0.023 C 
ATOM      9  C   UNL     1      -0.135   1.586  -1.185  0.00  0.00    -0.030 C 
ATOM     10  C   UNL     1       0.597   1.228   0.093  0.00  0.00    +0.033 C 
ATOM     11  C   UNL     1      -0.438   1.557   1.210  0.00  0.00    +0.029 C 
ATOM     12  C   UNL     1      -0.354   3.062   1.480  0.00  0.00    +0.105 C 
ATOM     13  N   UNL     1      -1.521   3.469   2.270  0.00  0.00    -0.336 N 
ATOM     14  H   UNL     1      -1.386   4.075   3.178  0.00  0.00    +0.147 HD
ENDROOT
BRANCH  12  15
ATOM     15  C   UNL     1      -0.345   3.810   0.172  0.00  0.00    -0.027 A 
ATOM     16  C   UNL     1       0.855   4.102  -0.450  0.00  0.00    +0.008 A 
ATOM     17  C   UNL     1       0.863   4.785  -1.652  0.00  0.00    +0.033 A 
ATOM     18  C   UNL     1      -0.329   5.183  -2.228  0.00  0.00    +0.126 A 
ATOM     19  C   UNL     1      -1.529   4.896  -1.604  0.00  0.00    +0.033 A 
ATOM     20  C   UNL     1      -1.537   4.210  -0.404  0.00  0.00    +0.008 A 
BRANCH  18  21
ATOM     21  N   UNL     1      -0.321   5.917  -3.514  0.00  0.00    +0.056 N 
ATOM     22  O   UNL     1      -1.371   6.268  -4.021  0.00  0.00    -0.126 OA
ATOM     23  O   UNL     1       0.737   6.170  -4.063  0.00  0.00    -0.126 OA
ENDBRANCH  18  21
ENDBRANCH  12  15
BRANCH   1  24
ATOM     24  S   UNL     1      -6.909   1.799   0.441  0.00  0.00    +0.059 S 
ATOM     25  O   UNL     1      -7.752   2.935   0.574  0.00  0.00    -0.153 OA
ATOM     26  O   UNL     1      -6.727   1.125  -0.797  0.00  0.00    -0.153 OA
BRANCH  24  27
ATOM     27  N   UNL     1      -7.464   0.669   1.517  0.00  0.00    -0.187 NA
ATOM     28  H   UNL     1      -7.474  -0.391   1.226  0.00  0.00    +0.148 HD
BRANCH  27  29
ATOM     29  C   UNL     1      -7.728   1.050   2.907  0.00  0.00    +0.073 C 
ATOM     30  C   UNL     1      -9.209   1.397   3.068  0.00  0.00    +0.025 C 
BRANCH  29  32
ATOM     31  C   UNL     1      -5.869  -0.385   3.763  0.00  0.00    +0.005 C 
ATOM     32  C   UNL     1      -7.374  -0.118   3.831  0.00  0.00    +0.017 C 
ENDBRANCH  29  32
ENDBRANCH  27  29
ENDBRANCH  24  27
ENDBRANCH   1  24
TORSDOF 6
