REMARK  Name = ZINC44264514
REMARK  3 active torsions:
REMARK  status: ('A' for Active; 'I' for Inactive)
REMARK    1  A    between atoms: C_6  and  C_7
REMARK    2  A    between atoms: C_8  and  C_17
REMARK    3  A    between atoms: C_18  and  C_19
REMARK                            x       y       z     vdW  Elec       q    Type
REMARK                         _______ _______ _______ _____ _____    ______ ____
ROOT
ATOM      1  C   UNL     1      -1.404  -0.745  -0.102  0.00  0.00    +0.097 A 
ATOM      2  C   UNL     1      -1.532  -2.043  -0.612  0.00  0.00    +0.074 A 
ATOM      3  N   UNL     1      -2.758  -2.511  -0.175  0.00  0.00    -0.298 N 
ATOM      4  C   UNL     1      -3.404  -3.695  -0.362  0.00  0.00    +0.113 A 
ATOM      5  C   UNL     1      -4.624  -3.908   0.185  0.00  0.00    +0.058 A 
ATOM      6  C   UNL     1      -5.236  -2.906   0.952  0.00  0.00    +0.025 A 
ATOM      7  C   UNL     1      -4.596  -1.719   1.144  0.00  0.00    +0.048 A 
ATOM      8  C   UNL     1      -3.328  -1.515   0.568  0.00  0.00    +0.139 A 
ATOM      9  N   UNL     1      -2.500  -0.474   0.603  0.00  0.00    -0.227 NA
ATOM     10 CL   UNL     1      -5.432  -5.424  -0.065  0.00  0.00    -0.082 Cl
ENDROOT
BRANCH   1  16
ATOM     11  C   UNL     1      -0.455   1.538  -0.420  0.00  0.00    +0.013 A 
ATOM     12  C   UNL     1       0.622   2.378  -0.609  0.00  0.00    +0.039 A 
ATOM     13  C   UNL     1       1.905   1.859  -0.683  0.00  0.00    +0.123 A 
ATOM     14  C   UNL     1       2.112   0.493  -0.570  0.00  0.00    +0.039 A 
ATOM     15  C   UNL     1       1.042  -0.356  -0.381  0.00  0.00    +0.013 A 
ATOM     16  C   UNL     1      -0.251   0.162  -0.305  0.00  0.00    +0.003 A 
ATOM     17  F   UNL     1       2.957   2.686  -0.868  0.00  0.00    -0.205 F 
ENDBRANCH   1  16
BRANCH   2  18
ATOM     18  C   UNL     1      -0.601  -2.732  -1.410  0.00  0.00    +0.033 C 
ATOM     19  C   UNL     1      -0.952  -3.153  -2.658  0.00  0.00    +0.069 C 
BRANCH  19  20
ATOM     20  C   UNL     1      -2.198  -2.782  -3.202  0.00  0.00    +0.234 C 
ATOM     21  O   UNL     1      -2.915  -1.998  -2.604  0.00  0.00    -0.271 OA
ATOM     22  N   UNL     1      -2.597  -3.294  -4.383  0.00  0.00    -0.326 N 
ATOM     23  H   UNL     1      -2.027  -3.918  -4.858  0.00  0.00    +0.145 HD
ATOM     24  H   UNL     1      -3.455  -3.039  -4.757  0.00  0.00    +0.145 HD
ENDBRANCH  19  20
ENDBRANCH   2  18
TORSDOF 3
