REMARK  Name = ZINC35518686
REMARK  16 active torsions:
REMARK  status: ('A' for Active; 'I' for Inactive)
REMARK    1  A    between atoms: C_1  and  C_2
REMARK    2  A    between atoms: C_2  and  C_3
REMARK    3  A    between atoms: C_2  and  C_4
REMARK    4  A    between atoms: C_4  and  N_5
REMARK    5  A    between atoms: N_5  and  C_6
REMARK    6  A    between atoms: N_5  and  C_16
REMARK    7  A    between atoms: C_6  and  C_7
REMARK    8  A    between atoms: C_10  and  N_13
REMARK    9  A    between atoms: N_13  and  C_14
REMARK   10  A    between atoms: N_13  and  C_15
REMARK   11  A    between atoms: C_16  and  C_17
REMARK   12  A    between atoms: N_19  and  C_20
REMARK   13  A    between atoms: N_19  and  C_32
REMARK   14  A    between atoms: C_20  and  C_21
REMARK   15  A    between atoms: C_21  and  C_22
REMARK   16  A    between atoms: C_32  and  C_33
REMARK                            x       y       z     vdW  Elec       q    Type
REMARK                         _______ _______ _______ _____ _____    ______ ____
ROOT
ATOM      1  C   UNL     1      -4.181   0.658   0.074  0.00  0.00    +0.199 C 
ATOM      2  O   UNL     1      -3.489   1.456   0.669  0.00  0.00    -0.278 OA
ATOM      3  N   UNL     1      -5.489   0.542   0.378  0.00  0.00    -0.298 N 
ENDROOT
BRANCH   1   4
ATOM      4  C   UNL     1      -3.580  -0.204  -1.006  0.00  0.00    +0.019 C 
BRANCH   4   5
ATOM      5  N   UNL     1      -2.126   0.005  -1.046  0.00  0.00    +0.388 N 
ATOM      6  H   UNL     1      -1.931   0.988  -1.161  0.00  0.00    -0.081 HD
BRANCH   5   7
ATOM      7  C   UNL     1      -1.528  -0.470   0.209  0.00  0.00    -0.075 C 
BRANCH   7   9
ATOM      8  C   UNL     1       0.129   1.399   0.188  0.00  0.00    +0.005 C 
ATOM      9  C   UNL     1      -0.039  -0.121   0.229  0.00  0.00    -0.034 C 
ATOM     10  C   UNL     1       0.597  -0.670   1.508  0.00  0.00    +0.005 C 
ENDBRANCH   7   9
ENDBRANCH   5   7
BRANCH   5  11
ATOM     11  C   UNL     1      -1.555  -0.742  -2.174  0.00  0.00    -0.042 C 
BRANCH  11  12
ATOM     12  C   UNL     1      -2.064  -0.164  -3.469  0.00  0.00    -0.064 A 
ATOM     13  C   UNL     1      -3.163  -0.727  -4.092  0.00  0.00    +0.003 A 
ATOM     14  C   UNL     1      -3.633  -0.199  -5.278  0.00  0.00    +0.023 A 
ATOM     15  C   UNL     1      -2.999   0.899  -5.847  0.00  0.00    +0.029 A 
ATOM     16  C   UNL     1      -1.895   1.462  -5.219  0.00  0.00    +0.023 A 
ATOM     17  C   UNL     1      -1.435   0.933  -4.030  0.00  0.00    +0.003 A 
BRANCH  15  18
ATOM     18  N   UNL     1      -3.471   1.435  -7.048  0.00  0.00    -0.336 N 
ATOM     19  C   UNL     1      -4.707   0.921  -7.644  0.00  0.00    +0.129 C 
ATOM     20  C   UNL     1      -2.730   2.511  -7.710  0.00  0.00    +0.129 C 
ENDBRANCH  15  18
ENDBRANCH  11  12
ENDBRANCH   5  11
ENDBRANCH   4   5
ENDBRANCH   1   4
BRANCH   3  21
ATOM     21  C   UNL     1      -6.101   1.460   1.342  0.00  0.00    +0.113 C 
BRANCH  21  22
ATOM     22  C   UNL     1      -6.644   2.686   0.605  0.00  0.00    +0.056 C 
BRANCH  22  23
ATOM     23  C   UNL     1      -7.273   3.631   1.597  0.00  0.00    -0.021 A 
ATOM     24  C   UNL     1      -8.573   3.690   1.929  0.00  0.00    +0.087 A 
ATOM     25  N   UNL     1      -8.771   4.671   2.862  0.00  0.00    -0.360 N 
ATOM     26  H   UNL     1      -9.628   4.902   3.254  0.00  0.00    +0.165 HD
ATOM     27  C   UNL     1      -7.574   5.282   3.161  0.00  0.00    +0.047 A 
ATOM     28  C   UNL     1      -6.582   4.653   2.387  0.00  0.00    +0.003 A 
ATOM     29  C   UNL     1      -5.253   5.066   2.488  0.00  0.00    +0.010 A 
ATOM     30  C   UNL     1      -4.921   6.079   3.343  0.00  0.00    +0.001 A 
ATOM     31  C   UNL     1      -5.895   6.700   4.112  0.00  0.00    +0.002 A 
ATOM     32  C   UNL     1      -7.215   6.314   4.021  0.00  0.00    +0.026 A 
ENDBRANCH  22  23
ENDBRANCH  21  22
ENDBRANCH   3  21
BRANCH   3  33
ATOM     33  C   UNL     1      -6.299  -0.501  -0.255  0.00  0.00    +0.142 C 
BRANCH  33  34
ATOM     34  C   UNL     1      -6.372  -1.701   0.654  0.00  0.00    -0.030 A 
ATOM     35  C   UNL     1      -5.380  -2.663   0.609  0.00  0.00    +0.006 A 
ATOM     36  C   UNL     1      -5.446  -3.764   1.443  0.00  0.00    +0.020 A 
ATOM     37  C   UNL     1      -6.506  -3.903   2.321  0.00  0.00    +0.041 A 
ATOM     38  C   UNL     1      -7.498  -2.940   2.365  0.00  0.00    +0.020 A 
ATOM     39  C   UNL     1      -7.428  -1.837   1.536  0.00  0.00    +0.006 A 
ATOM     40 CL   UNL     1      -6.590  -5.285   3.368  0.00  0.00    -0.084 Cl
ENDBRANCH  33  34
ENDBRANCH   3  33
TORSDOF 12
