REMARK  Name = ZINC58950452
REMARK  8 active torsions:
REMARK  status: ('A' for Active; 'I' for Inactive)
REMARK    1  A    between atoms: C_1  and  C_2
REMARK    2  A    between atoms: N_8  and  C_9
REMARK    3  A    between atoms: C_9  and  C_10
REMARK    4  A    between atoms: C_13  and  C_16
REMARK    5  A    between atoms: C_16  and  N_17
REMARK    6  A    between atoms: C_18  and  C_20
REMARK    7  A    between atoms: C_20  and  N_21
REMARK    8  A    between atoms: C_22  and  C_24
REMARK                            x       y       z     vdW  Elec       q    Type
REMARK                         _______ _______ _______ _____ _____    ______ ____
ROOT
ATOM      1  N   UNL     1       3.805  -2.278   6.927  0.00  0.00    -0.310 N 
ATOM      2  C   UNL     1       4.211  -2.754   8.121  0.00  0.00    +0.230 C 
ATOM      3  O   UNL     1       5.321  -2.491   8.533  0.00  0.00    -0.274 OA
ATOM      4  H   UNL     1       2.918  -2.488   6.597  0.00  0.00    +0.149 HD
ENDROOT
BRANCH   1   5
ATOM      5  C   UNL     1       4.705  -1.444   6.127  0.00  0.00    +0.139 C 
BRANCH   5   9
ATOM      6  C   UNL     1       2.754  -0.315   2.498  0.00  0.00    -0.064 A 
ATOM      7  C   UNL     1       2.638   0.481   3.622  0.00  0.00    +0.002 A 
ATOM      8  C   UNL     1       3.269   0.116   4.796  0.00  0.00    +0.005 A 
ATOM      9  C   UNL     1       4.016  -1.046   4.847  0.00  0.00    -0.030 A 
ATOM     10  C   UNL     1       4.131  -1.843   3.723  0.00  0.00    +0.005 A 
ATOM     11  C   UNL     1       3.497  -1.480   2.550  0.00  0.00    +0.002 A 
BRANCH   6  12
ATOM     12  C   UNL     1       2.066   0.083   1.218  0.00  0.00    -0.043 C 
BRANCH  12  19
ATOM     13  C   UNL     1      -0.019   1.526   0.010  0.00  0.00    -0.013 C 
ATOM     14  C   UNL     1       0.002  -0.004   0.002  0.00  0.00    -0.071 C 
ATOM     15  C   UNL     1      -1.434  -0.533   0.011  0.00  0.00    -0.016 C 
ATOM     16  C   UNL     1      -1.408  -2.064   0.003  0.00  0.00    -0.003 C 
ATOM     17  C   UNL     1      -0.600  -2.558   1.206  0.00  0.00    -0.019 C 
ATOM     18  C   UNL     1       0.805  -1.954   1.152  0.00  0.00    -0.078 C 
ATOM     19  N   UNL     1       0.713  -0.490   1.191  0.00  0.00    +0.384 N 
ATOM     20  H   UNL     1       0.213  -0.206   2.020  0.00  0.00    -0.081 HD
ENDBRANCH  12  19
ENDBRANCH   6  12
ENDBRANCH   5   9
ENDBRANCH   1   5
BRANCH   2  21
ATOM     21  C   UNL     1       3.285  -3.612   8.944  0.00  0.00    +0.200 C 
BRANCH  21  22
ATOM     22  N   UNL     1       3.955  -3.999  10.188  0.00  0.00    -0.303 N 
ATOM     23  C   UNL     1       3.314  -4.773  11.086  0.00  0.00    +0.246 C 
ATOM     24  O   UNL     1       2.180  -5.150  10.864  0.00  0.00    -0.270 OA
ATOM     25  H   UNL     1       4.860  -3.698  10.366  0.00  0.00    +0.150 HD
BRANCH  23  26
ATOM     26  C   UNL     1       3.989  -5.163  12.341  0.00  0.00    +0.055 A 
ATOM     27  C   UNL     1       5.290  -4.726  12.602  0.00  0.00    +0.016 A 
ATOM     28  C   UNL     1       5.915  -5.094  13.774  0.00  0.00    +0.021 A 
ATOM     29  C   UNL     1       5.257  -5.895  14.693  0.00  0.00    +0.042 A 
ATOM     30  C   UNL     1       3.967  -6.331  14.441  0.00  0.00    +0.040 A 
ATOM     31  C   UNL     1       3.328  -5.965  13.274  0.00  0.00    +0.054 A 
ATOM     32 CL   UNL     1       1.708  -6.507  12.963  0.00  0.00    -0.083 Cl
ATOM     33 CL   UNL     1       6.052  -6.353  16.167  0.00  0.00    -0.083 Cl
ENDBRANCH  23  26
ENDBRANCH  21  22
ENDBRANCH   2  21
TORSDOF 7
