REMARK  Name = ZINC20532016
REMARK  5 active torsions:
REMARK  status: ('A' for Active; 'I' for Inactive)
REMARK    1  A    between atoms: C_1  and  C_2
REMARK    2  A    between atoms: C_7  and  C_18
REMARK    3  A    between atoms: N_20  and  C_21
REMARK    4  A    between atoms: C_21  and  C_22
REMARK    5  A    between atoms: C_22  and  C_23
REMARK                            x       y       z     vdW  Elec       q    Type
REMARK                         _______ _______ _______ _____ _____    ______ ____
ROOT
ATOM      1  C   UNL     1       1.421   1.619  -0.003  0.00  0.00    +0.054 C 
ATOM      2  C   UNL     1      -0.013   1.086   0.008  0.00  0.00    +0.190 C 
ATOM      3  C   UNL     1      -0.759   1.596  -1.227  0.00  0.00    +0.166 C 
ATOM      4  N   UNL     1      -2.172   1.196  -1.141  0.00  0.00    -0.339 N 
ATOM      5  C   UNL     1      -2.853   0.993  -2.281  0.00  0.00    +0.103 A 
ATOM      6  C   UNL     1      -4.183   0.636  -2.299  0.00  0.00    +0.100 A 
ATOM      7  C   UNL     1      -4.892   0.467  -1.021  0.00  0.00    +0.203 A 
ATOM      8  O   UNL     1      -6.071   0.159  -0.982  0.00  0.00    -0.286 OA
ATOM      9  C   UNL     1      -4.113   0.686   0.212  0.00  0.00    +0.068 A 
ATOM     10  C   UNL     1      -2.759   1.041   0.101  0.00  0.00    +0.097 A 
ATOM     11  C   UNL     1      -2.013   1.230   1.267  0.00  0.00    +0.145 A 
ATOM     12  C   UNL     1      -2.610   1.085   2.504  0.00  0.00    +0.049 A 
ATOM     13  C   UNL     1      -3.950   0.745   2.606  0.00  0.00    +0.024 A 
ATOM     14  C   UNL     1      -4.704   0.543   1.469  0.00  0.00    +0.054 A 
ATOM     15 CL   UNL     1      -6.381   0.113   1.600  0.00  0.00    -0.083 Cl
ATOM     16  O   UNL     1      -0.689   1.551   1.182  0.00  0.00    -0.485 OA
ENDROOT
BRANCH   6  17
ATOM     17  C   UNL     1      -4.884   0.426  -3.575  0.00  0.00    +0.249 C 
ATOM     18  O   UNL     1      -6.059   0.111  -3.580  0.00  0.00    -0.270 OA
ATOM     19  N   UNL     1      -4.224   0.584  -4.740  0.00  0.00    -0.311 N 
ATOM     20  H   UNL     1      -3.161   0.869  -4.736  0.00  0.00    +0.149 HD
BRANCH  19  21
ATOM     21  C   UNL     1      -4.921   0.375  -6.011  0.00  0.00    +0.109 C 
BRANCH  21  22
ATOM     22  C   UNL     1      -3.952   0.616  -7.170  0.00  0.00    +0.056 C 
BRANCH  22  23
ATOM     23  C   UNL     1      -4.669   0.402  -8.478  0.00  0.00    -0.021 A 
ATOM     24  C   UNL     1      -4.687  -0.728  -9.203  0.00  0.00    +0.087 A 
ATOM     25  N   UNL     1      -5.444  -0.548 -10.328  0.00  0.00    -0.360 N 
ATOM     26  H   UNL     1      -5.576  -1.375 -11.041  0.00  0.00    +0.165 HD
ATOM     27  C   UNL     1      -5.938   0.737 -10.360  0.00  0.00    +0.047 A 
ATOM     28  C   UNL     1      -5.475   1.388  -9.202  0.00  0.00    +0.003 A 
ATOM     29  C   UNL     1      -5.823   2.719  -8.965  0.00  0.00    +0.010 A 
ATOM     30  C   UNL     1      -6.614   3.384  -9.860  0.00  0.00    +0.001 A 
ATOM     31  C   UNL     1      -7.073   2.746 -11.003  0.00  0.00    +0.002 A 
ATOM     32  C   UNL     1      -6.742   1.433 -11.257  0.00  0.00    +0.026 A 
ENDBRANCH  22  23
ENDBRANCH  21  22
ENDBRANCH  19  21
ENDBRANCH   6  17
TORSDOF 4
