REMARK  Name = ZINC59605606
REMARK  6 active torsions:
REMARK  status: ('A' for Active; 'I' for Inactive)
REMARK    1  A    between atoms: C_12  and  C_14
REMARK    2  A    between atoms: N_21  and  C_22
REMARK    3  A    between atoms: C_22  and  C_23
REMARK    4  A    between atoms: C_23  and  C_24
REMARK    5  A    between atoms: C_31  and  O_34
REMARK    6  A    between atoms: O_34  and  C_35
REMARK                            x       y       z     vdW  Elec       q    Type
REMARK                         _______ _______ _______ _____ _____    ______ ____
ROOT
ATOM      1  C   UNL     1      -0.016   1.337   0.009  0.00  0.00    +0.033 C 
ATOM      2  C   UNL     1       0.002  -0.004   0.002  0.00  0.00    +0.031 C 
ATOM      3  C   UNL     1      -1.248  -0.784   0.004  0.00  0.00    +0.090 C 
ATOM      4  C   UNL     1      -1.184  -2.116  -0.216  0.00  0.00    +0.249 C 
ATOM      5  O   UNL     1      -2.323  -2.848  -0.251  0.00  0.00    -0.270 OA
ATOM      6  N   UNL     1       0.035  -2.733  -0.405  0.00  0.00    -0.215 N 
ATOM      7  C   UNL     1       1.191  -2.001  -0.483  0.00  0.00    +0.199 C 
ATOM      8  N   UNL     1       1.214  -0.716  -0.013  0.00  0.00    -0.287 N 
ATOM      9  N   UNL     1       2.257  -2.522  -1.054  0.00  0.00    -0.186 NA
ATOM     10  C   UNL     1       2.216  -3.752  -1.594  0.00  0.00    +0.193 C 
ATOM     11  N   UNL     1       1.215  -4.564  -1.389  0.00  0.00    -0.335 N 
ATOM     12  C   UNL     1       0.120  -4.196  -0.487  0.00  0.00    +0.211 C 
ATOM     13  N   UNL     1       3.263  -4.170  -2.390  0.00  0.00    -0.315 N 
ATOM     14  H   UNL     1       3.248  -5.054  -2.788  0.00  0.00    +0.149 HD
ATOM     15  H   UNL     1       2.038  -0.311   0.300  0.00  0.00    +0.155 HD
ATOM     16  H   UNL     1       1.195  -5.423  -1.839  0.00  0.00    +0.164 HD
ENDROOT
BRANCH  12  17
ATOM     17  C   UNL     1       0.385  -4.763   0.884  0.00  0.00    -0.007 A 
ATOM     18  C   UNL     1      -0.087  -4.107   2.006  0.00  0.00    +0.009 A 
ATOM     19  C   UNL     1       0.156  -4.627   3.263  0.00  0.00    +0.020 A 
ATOM     20  C   UNL     1       0.871  -5.803   3.399  0.00  0.00    +0.041 A 
ATOM     21  C   UNL     1       1.343  -6.459   2.276  0.00  0.00    +0.020 A 
ATOM     22  C   UNL     1       1.095  -5.942   1.019  0.00  0.00    +0.009 A 
ATOM     23 CL   UNL     1       1.177  -6.456   4.979  0.00  0.00    -0.084 Cl
ENDBRANCH  12  17
BRANCH  13  24
ATOM     24  C   UNL     1       4.398  -3.276  -2.635  0.00  0.00    +0.109 C 
BRANCH  24  25
ATOM     25  C   UNL     1       5.412  -3.976  -3.542  0.00  0.00    +0.056 C 
BRANCH  25  26
ATOM     26  C   UNL     1       6.580  -3.057  -3.793  0.00  0.00    -0.021 A 
ATOM     27  C   UNL     1       6.737  -2.235  -4.843  0.00  0.00    +0.087 A 
ATOM     28  N   UNL     1       7.919  -1.556  -4.731  0.00  0.00    -0.360 N 
ATOM     29  H   UNL     1       8.250  -0.905  -5.369  0.00  0.00    +0.165 HD
ATOM     30  C   UNL     1       8.569  -1.935  -3.576  0.00  0.00    +0.047 A 
ATOM     31  C   UNL     1       7.756  -2.887  -2.936  0.00  0.00    +0.006 A 
ATOM     32  C   UNL     1       8.162  -3.452  -1.725  0.00  0.00    +0.056 A 
ATOM     33  C   UNL     1       9.362  -3.067  -1.162  0.00  0.00    +0.121 A 
ATOM     34  C   UNL     1      10.164  -2.122  -1.796  0.00  0.00    +0.047 A 
ATOM     35  C   UNL     1       9.777  -1.564  -2.994  0.00  0.00    +0.030 A 
BRANCH  33  36
ATOM     36  O   UNL     1       9.763  -3.614   0.017  0.00  0.00    -0.495 OA
ATOM     37  C   UNL     1      11.015  -3.171   0.545  0.00  0.00    +0.277 C 
ENDBRANCH  33  36
ENDBRANCH  25  26
ENDBRANCH  24  25
ENDBRANCH  13  24
TORSDOF 5
