REMARK  Name = ZINC08575659
REMARK  10 active torsions:
REMARK  status: ('A' for Active; 'I' for Inactive)
REMARK    1  A    between atoms: C_1  and  C_2
REMARK    2  A    between atoms: C_5  and  N_8
REMARK    3  A    between atoms: C_12  and  N_13
REMARK    4  A    between atoms: N_13  and  C_14
REMARK    5  A    between atoms: C_17  and  S_20
REMARK    6  A    between atoms: S_20  and  N_23
REMARK    7  A    between atoms: N_23  and  C_24
REMARK    8  A    between atoms: C_27  and  O_30
REMARK    9  A    between atoms: O_30  and  C_31
REMARK   10  A    between atoms: C_32  and  C_34
REMARK                            x       y       z     vdW  Elec       q    Type
REMARK                         _______ _______ _______ _____ _____    ______ ____
ROOT
ATOM      1  C   UNL     1      -1.242  -9.528   2.404  0.00  0.00    +0.031 A 
ATOM      2  C   UNL     1      -1.188  -9.392   3.785  0.00  0.00    +0.025 A 
ATOM      3  C   UNL     1      -1.440 -10.482   4.595  0.00  0.00    +0.030 A 
ATOM      4  C   UNL     1      -1.744 -11.708   4.032  0.00  0.00    +0.109 A 
ATOM      5  C   UNL     1      -1.799 -11.847   2.657  0.00  0.00    +0.030 A 
ATOM      6  C   UNL     1      -1.554 -10.759   1.841  0.00  0.00    +0.025 A 
ENDROOT
BRANCH   4   7
ATOM      7  S   UNL     1      -2.064 -13.096   5.069  0.00  0.00    +0.072 S 
ATOM      8  O   UNL     1      -1.668 -14.248   4.338  0.00  0.00    -0.150 OA
ATOM      9  O   UNL     1      -1.526 -12.782   6.346  0.00  0.00    -0.150 OA
BRANCH   7  10
ATOM     10  N   UNL     1      -3.706 -13.197   5.259  0.00  0.00    -0.216 N 
ATOM     11  H   UNL     1      -4.182 -13.986   4.956  0.00  0.00    +0.174 HD
BRANCH  10  12
ATOM     12  C   UNL     1      -4.408 -12.144   5.857  0.00  0.00    +0.048 A 
ATOM     13  C   UNL     1      -3.923 -11.559   7.019  0.00  0.00    +0.028 A 
ATOM     14  C   UNL     1      -4.616 -10.519   7.609  0.00  0.00    +0.047 A 
ATOM     15  C   UNL     1      -5.795 -10.060   7.040  0.00  0.00    +0.120 A 
ATOM     16  C   UNL     1      -6.279 -10.645   5.880  0.00  0.00    +0.047 A 
ATOM     17  C   UNL     1      -5.585 -11.681   5.286  0.00  0.00    +0.028 A 
BRANCH  15  18
ATOM     18  O   UNL     1      -6.476  -9.037   7.621  0.00  0.00    -0.495 OA
ATOM     19  C   UNL     1      -7.682  -8.615   6.982  0.00  0.00    +0.277 C 
ENDBRANCH  15  18
ENDBRANCH  10  12
ENDBRANCH   7  10
ENDBRANCH   4   7
BRANCH   1  20
ATOM     20  N   UNL     1      -0.989  -8.427   1.581  0.00  0.00    -0.320 N 
ATOM     21  H   UNL     1      -1.030  -8.522   0.617  0.00  0.00    +0.152 HD
BRANCH  20  26
ATOM     22  N   UNL     1       0.254  -4.118   0.591  0.00  0.00    -0.156 N 
ATOM     23  C   UNL     1      -0.075  -4.779   1.719  0.00  0.00    +0.273 C 
ATOM     24  O   UNL     1      -0.154  -4.316   2.845  0.00  0.00    -0.268 OA
ATOM     25  C   UNL     1      -0.319  -6.170   1.317  0.00  0.00    +0.075 C 
ATOM     26  C   UNL     1      -0.685  -7.231   2.129  0.00  0.00    +0.087 C 
ATOM     27  C   UNL     1      -0.089  -6.192  -0.135  0.00  0.00    +0.070 C 
ATOM     28  N   UNL     1       0.231  -4.988  -0.499  0.00  0.00    -0.176 NA
ATOM     29  C   UNL     1      -0.209  -7.392  -1.038  0.00  0.00    +0.068 C 
BRANCH  22  34
ATOM     30  C   UNL     1       1.519   1.407   0.315  0.00  0.00    +0.044 C 
ATOM     31  C   UNL     1       1.183  -0.060   0.388  0.00  0.00    -0.050 A 
ATOM     32  C   UNL     1       1.194  -0.829  -0.761  0.00  0.00    +0.005 A 
ATOM     33  C   UNL     1       0.886  -2.174  -0.698  0.00  0.00    +0.026 A 
ATOM     34  C   UNL     1       0.567  -2.754   0.523  0.00  0.00    +0.060 A 
ATOM     35  C   UNL     1       0.557  -1.980   1.675  0.00  0.00    +0.026 A 
ATOM     36  C   UNL     1       0.871  -0.637   1.606  0.00  0.00    +0.005 A 
ENDBRANCH  22  34
ENDBRANCH  20  26
ENDBRANCH   1  20
TORSDOF 7
