REMARK  Name = ZINC39945626
REMARK  11 active torsions:
REMARK  status: ('A' for Active; 'I' for Inactive)
REMARK    1  A    between atoms: C_6  and  C_7
REMARK    2  A    between atoms: C_7  and  C_8
REMARK    3  A    between atoms: C_7  and  O_15
REMARK    4  A    between atoms: O_15  and  C_16
REMARK    5  A    between atoms: C_16  and  C_17
REMARK    6  A    between atoms: C_17  and  C_19
REMARK    7  A    between atoms: C_17  and  O_34
REMARK    8  A    between atoms: C_19  and  N_20
REMARK    9  A    between atoms: N_20  and  C_21
REMARK   10  A    between atoms: C_21  and  C_22
REMARK   11  A    between atoms: C_22  and  N_28
REMARK                            x       y       z     vdW  Elec       q    Type
REMARK                         _______ _______ _______ _____ _____    ______ ____
ROOT
ATOM      1  C   UNL     1      -1.852  -3.361   2.734  0.00  0.00    +0.123 C 
ENDROOT
BRANCH   1   2
ATOM      2  O   UNL     1      -1.364  -4.426   1.914  0.00  0.00    -0.391 OA
ATOM      3  H   UNL     1      -1.950  -4.657   1.180  0.00  0.00    +0.210 HD
ENDBRANCH   1   2
BRANCH   1   4
ATOM      4  C   UNL     1      -2.028  -2.102   1.883  0.00  0.00    +0.190 C 
BRANCH   4   5
ATOM      5  O   UNL     1      -0.752  -1.663   1.413  0.00  0.00    -0.365 OA
BRANCH   5   6
ATOM      6  C   UNL     1      -0.805  -0.486   0.603  0.00  0.00    +0.178 C 
BRANCH   6  12
ATOM      7  C   UNL     1       0.438   1.673   0.841  0.00  0.00    +0.009 A 
ATOM      8  C   UNL     1       1.611   2.389   0.990  0.00  0.00    +0.039 A 
ATOM      9  C   UNL     1       2.823   1.723   1.065  0.00  0.00    +0.123 A 
ATOM     10  C   UNL     1       2.858   0.341   0.990  0.00  0.00    +0.039 A 
ATOM     11  C   UNL     1       1.684  -0.372   0.840  0.00  0.00    +0.009 A 
ATOM     12  C   UNL     1       0.475   0.293   0.766  0.00  0.00    -0.014 A 
ATOM     13  F   UNL     1       3.970   2.422   1.210  0.00  0.00    -0.205 F 
ENDBRANCH   6  12
BRANCH   6  14
ATOM     14  C   UNL     1      -0.974  -0.878  -0.842  0.00  0.00    -0.014 A 
ATOM     15  C   UNL     1      -0.375  -2.028  -1.321  0.00  0.00    +0.009 A 
ATOM     16  C   UNL     1      -0.530  -2.388  -2.646  0.00  0.00    +0.039 A 
ATOM     17  C   UNL     1      -1.286  -1.597  -3.494  0.00  0.00    +0.123 A 
ATOM     18  C   UNL     1      -1.886  -0.446  -3.013  0.00  0.00    +0.039 A 
ATOM     19  C   UNL     1      -1.734  -0.090  -1.687  0.00  0.00    +0.009 A 
ATOM     20  F   UNL     1      -1.438  -1.948  -4.790  0.00  0.00    -0.205 F 
ENDBRANCH   6  14
ENDBRANCH   5   6
ENDBRANCH   4   5
ENDBRANCH   1   4
BRANCH   1  21
ATOM     21  C   UNL     1      -3.199  -3.760   3.340  0.00  0.00    -0.049 C 
BRANCH  21  22
ATOM     22  N   UNL     1      -3.009  -4.897   4.251  0.00  0.00    +0.380 N 
ATOM     23  H   UNL     1      -2.626  -5.678   3.739  0.00  0.00    -0.086 HD
ATOM     24  H   UNL     1      -2.373  -4.634   4.989  0.00  0.00    -0.086 HD
BRANCH  22  25
ATOM     25  C   UNL     1      -4.302  -5.280   4.832  0.00  0.00    -0.095 C 
BRANCH  25  26
ATOM     26  C   UNL     1      -4.121  -6.525   5.704  0.00  0.00    -0.081 C 
ATOM     27  C   UNL     1      -5.487  -7.001   6.203  0.00  0.00    -0.014 C 
ATOM     28  C   UNL     1      -6.143  -5.892   7.028  0.00  0.00    -0.001 C 
ATOM     29  C   UNL     1      -5.253  -5.552   8.225  0.00  0.00    -0.000 C 
ATOM     30  C   UNL     1      -3.887  -5.076   7.726  0.00  0.00    -0.001 C 
ATOM     31  C   UNL     1      -3.231  -6.185   6.900  0.00  0.00    -0.014 C 
BRANCH  26  32
ATOM     32  N   UNL     1      -3.491  -7.589   4.911  0.00  0.00    +0.382 N 
ATOM     33  C   UNL     1      -4.320  -7.878   3.735  0.00  0.00    -0.078 C 
ATOM     34  C   UNL     1      -3.628  -8.929   2.864  0.00  0.00    -0.019 C 
ATOM     35  C   UNL     1      -3.432 -10.210   3.679  0.00  0.00    -0.004 C 
ATOM     36  C   UNL     1      -2.629  -9.883   4.941  0.00  0.00    -0.019 C 
ATOM     37  C   UNL     1      -3.358  -8.797   5.735  0.00  0.00    -0.078 C 
ATOM     38  H   UNL     1      -2.577  -7.287   4.610  0.00  0.00    -0.081 HD
ENDBRANCH  26  32
ENDBRANCH  25  26
ENDBRANCH  22  25
ENDBRANCH  21  22
ENDBRANCH   1  21
TORSDOF 11
