REMARK  Name = ZINC64345268
REMARK  3 active torsions:
REMARK  status: ('A' for Active; 'I' for Inactive)
REMARK    1  A    between atoms: C_8  and  C_22
REMARK    2  A    between atoms: N_10  and  S_11
REMARK    3  A    between atoms: S_11  and  C_14
REMARK                            x       y       z     vdW  Elec       q    Type
REMARK                         _______ _______ _______ _____ _____    ______ ____
ROOT
ATOM      1  C   UNL     1      -0.017   1.378   0.010  0.00  0.00    +0.000 A 
ATOM      2  C   UNL     1       1.174   2.082   0.002  0.00  0.00    +0.002 A 
ATOM      3  C   UNL     1       2.377   1.411  -0.013  0.00  0.00    +0.025 A 
ATOM      4  C   UNL     1       2.405   0.014  -0.021  0.00  0.00    +0.055 A 
ATOM      5  C   UNL     1       1.206  -0.682  -0.013  0.00  0.00    -0.022 A 
ATOM      6  C   UNL     1       0.002  -0.004   0.002  0.00  0.00    +0.005 A 
ATOM      7  C   UNL     1       1.510  -2.163  -0.023  0.00  0.00    +0.070 C 
ATOM      8  C   UNL     1       3.046  -2.241  -0.038  0.00  0.00    +0.187 C 
ATOM      9  N   UNL     1       3.501  -0.849  -0.036  0.00  0.00    -0.190 N 
ENDROOT
BRANCH   8  10
ATOM     10  C   UNL     1       3.521  -2.947  -1.282  0.00  0.00    +0.233 C 
ATOM     11  O   UNL     1       4.225  -2.363  -2.079  0.00  0.00    -0.274 OA
ATOM     12  N   UNL     1       3.164  -4.226  -1.510  0.00  0.00    -0.328 N 
ATOM     13  H   UNL     1       2.601  -4.693  -0.872  0.00  0.00    +0.145 HD
ATOM     14  H   UNL     1       3.470  -4.681  -2.310  0.00  0.00    +0.145 HD
ENDBRANCH   8  10
BRANCH   9  15
ATOM     15  S   UNL     1       5.086  -0.369  -0.050  0.00  0.00    +0.078 S 
ATOM     16  O   UNL     1       5.830  -1.440  -0.613  0.00  0.00    -0.150 OA
ATOM     17  O   UNL     1       5.108   0.944  -0.595  0.00  0.00    -0.150 OA
BRANCH  15  18
ATOM     18  C   UNL     1       5.602  -0.226   1.629  0.00  0.00    +0.145 A 
ATOM     19  C   UNL     1       5.452   0.975   2.299  0.00  0.00    +0.069 A 
ATOM     20  C   UNL     1       5.857   1.087   3.617  0.00  0.00    +0.022 A 
ATOM     21  C   UNL     1       6.412  -0.001   4.264  0.00  0.00    +0.003 A 
ATOM     22  C   UNL     1       6.562  -1.201   3.596  0.00  0.00    +0.022 A 
ATOM     23  C   UNL     1       6.152  -1.316   2.279  0.00  0.00    +0.069 A 
ATOM     24 CL   UNL     1       6.333  -2.826   1.442  0.00  0.00    -0.081 Cl
ATOM     25 CL   UNL     1       4.756   2.342   1.486  0.00  0.00    -0.081 Cl
ENDBRANCH  15  18
ENDBRANCH   9  15
TORSDOF 3
