REMARK  Name = ZINC22645148
REMARK  5 active torsions:
REMARK  status: ('A' for Active; 'I' for Inactive)
REMARK    1  A    between atoms: C_1  and  C_2
REMARK    2  A    between atoms: C_2  and  C_4
REMARK    3  A    between atoms: C_2  and  S_14
REMARK    4  A    between atoms: N_6  and  C_7
REMARK    5  A    between atoms: S_14  and  C_15
REMARK                            x       y       z     vdW  Elec       q    Type
REMARK                         _______ _______ _______ _____ _____    ______ ____
ROOT
ATOM      1  C   UNL     1       2.253  -4.859   1.124  0.00  0.00    +0.029 C 
ATOM      2  C   UNL     1       2.422  -4.236  -0.264  0.00  0.00    +0.137 C 
ENDROOT
BRANCH   2   3
ATOM      3  C   UNL     1       2.406  -2.734  -0.145  0.00  0.00    +0.230 C 
ATOM      4  O   UNL     1       3.448  -2.114  -0.152  0.00  0.00    -0.274 OA
ATOM      5  N   UNL     1       1.234  -2.079  -0.031  0.00  0.00    -0.285 N 
ATOM      6  H   UNL     1       0.295  -2.645   0.063  0.00  0.00    +0.155 HD
BRANCH   5   7
ATOM      7  C   UNL     1       1.210  -0.680  -0.032  0.00  0.00    +0.033 A 
ATOM      8  C   UNL     1       2.133   0.031  -0.787  0.00  0.00    +0.024 A 
ATOM      9  C   UNL     1       2.108   1.412  -0.786  0.00  0.00    +0.016 A 
ATOM     10  C   UNL     1       1.163   2.087  -0.034  0.00  0.00    +0.013 A 
ATOM     11  C   UNL     1       0.242   1.381   0.720  0.00  0.00    +0.016 A 
ATOM     12  C   UNL     1       0.263   0.000   0.723  0.00  0.00    +0.024 A 
ATOM     13  I   UNL     1       1.128   4.181  -0.036  0.00  0.00    -0.044 I 
ENDBRANCH   5   7
ENDBRANCH   2   3
BRANCH   2  14
ATOM     14  S   UNL     1       4.002  -4.769  -0.978  0.00  0.00    -0.072 S 
BRANCH  14  15
ATOM     15  C   UNL     1       3.810  -6.508  -1.187  0.00  0.00    +0.211 A 
ATOM     16  N   UNL     1       4.742  -7.363  -1.706  0.00  0.00    -0.188 NA
ATOM     17  H   UNL     1       2.232  -9.313  -1.021  0.00  0.00    +0.192 HD
ATOM     18  C   UNL     1       4.210  -8.621  -1.700  0.00  0.00    +0.209 A 
ATOM     19  N   UNL     1       3.001  -8.548  -1.201  0.00  0.00    -0.246 N 
ATOM     20  N   UNL     1       2.748  -7.209  -0.873  0.00  0.00    -0.144 NA
ATOM     21  N   UNL     1       4.842  -9.776  -2.143  0.00  0.00    -0.328 N 
ATOM     22  H   UNL     1       4.319 -10.743  -2.092  0.00  0.00    +0.145 HD
ATOM     23  H   UNL     1       5.864  -9.724  -2.546  0.00  0.00    +0.145 HD
ENDBRANCH  14  15
ENDBRANCH   2  14
TORSDOF 4
