REMARK  Name = ZINC02118332
REMARK  10 active torsions:
REMARK  status: ('A' for Active; 'I' for Inactive)
REMARK    1  A    between atoms: C_1  and  C_2
REMARK    2  A    between atoms: C_2  and  C_40
REMARK    3  A    between atoms: C_6  and  C_14
REMARK    4  A    between atoms: C_8  and  C_12
REMARK    5  A    between atoms: C_9  and  N_11
REMARK    6  A    between atoms: C_17  and  C_20
REMARK    7  A    between atoms: C_22  and  C_35
REMARK    8  A    between atoms: C_23  and  N_34
REMARK    9  A    between atoms: C_30  and  C_32
REMARK   10  A    between atoms: C_30  and  C_33
REMARK                            x       y       z     vdW  Elec       q    Type
REMARK                         _______ _______ _______ _____ _____    ______ ____
ROOT
ATOM      1  C   UNL     1       1.441   4.062  -1.374  0.00  0.00    -0.035 A 
ATOM      2  C   UNL     1       0.590   3.736  -2.413  0.00  0.00    +0.005 A 
ATOM      3  C   UNL     1       0.842   4.209  -3.688  0.00  0.00    +0.005 A 
ATOM      4  C   UNL     1       1.950   5.000  -3.925  0.00  0.00    -0.035 A 
ATOM      5  C   UNL     1       2.804   5.322  -2.887  0.00  0.00    +0.005 A 
ATOM      6  C   UNL     1       2.550   4.853  -1.611  0.00  0.00    +0.005 A 
ENDROOT
BRANCH   1  12
ATOM      7  C   UNL     1      -1.690   4.213   3.214  0.00  0.00    +0.012 C 
ATOM      8  C   UNL     1      -2.399   4.850   2.018  0.00  0.00    -0.021 C 
ATOM      9  C   UNL     1      -2.603   3.802   0.923  0.00  0.00    +0.081 C 
ATOM     10  C   UNL     1      -1.262   3.281   0.460  0.00  0.00    +0.115 C 
ATOM     11  C   UNL     1      -0.174   4.072   0.484  0.00  0.00    +0.046 C 
ATOM     12  C   UNL     1       1.164   3.551   0.016  0.00  0.00    +0.101 C 
ATOM     13  C   UNL     1       1.156   2.048   0.002  0.00  0.00    +0.098 C 
ATOM     14  C   UNL     1      -0.017   1.369   0.010  0.00  0.00    +0.198 C 
ATOM     15  O   UNL     1      -1.196   2.009   0.019  0.00  0.00    -0.445 OA
ATOM     16  C   UNL     1      -0.244   5.401   0.943  0.00  0.00    +0.164 C 
ATOM     17  O   UNL     1       0.756   6.090   0.930  0.00  0.00    -0.292 OA
ATOM     18  C   UNL     1      -1.536   5.982   1.450  0.00  0.00    +0.086 C 
ATOM     19  C   UNL     1      -3.753   5.408   2.460  0.00  0.00    +0.012 C 
BRANCH  14  20
ATOM     20  N   UNL     1       0.002  -0.004   0.002  0.00  0.00    -0.328 N 
ATOM     21  H   UNL     1       0.849  -0.478  -0.009  0.00  0.00    +0.145 HD
ATOM     22  H   UNL     1      -0.831  -0.500   0.007  0.00  0.00    +0.145 HD
ENDBRANCH  14  20
BRANCH  13  23
ATOM     23  C   UNL     1       2.395   1.330  -0.019  0.00  0.00    +0.101 C 
ATOM     24  N   UNL     1       3.377   0.760  -0.036  0.00  0.00    -0.191 NA
ENDBRANCH  13  23
ENDBRANCH   1  12
BRANCH   4  25
ATOM     25  C   UNL     1       2.227   5.512  -5.315  0.00  0.00    +0.101 C 
ATOM     26  C   UNL     1       1.077   6.368  -5.769  0.00  0.00    +0.098 C 
ATOM     27  C   UNL     1       0.151   5.874  -6.626  0.00  0.00    +0.198 C 
ATOM     28  O   UNL     1       0.227   4.616  -7.088  0.00  0.00    -0.445 OA
ATOM     29  C   UNL     1       1.406   3.967  -7.074  0.00  0.00    +0.115 C 
ATOM     30  C   UNL     1       2.404   4.343  -6.253  0.00  0.00    +0.046 C 
ATOM     31  C   UNL     1       3.638   3.665  -6.242  0.00  0.00    +0.164 C 
ATOM     32  O   UNL     1       4.507   4.021  -5.471  0.00  0.00    -0.292 OA
ATOM     33  C   UNL     1       3.899   2.507  -7.167  0.00  0.00    +0.086 C 
ATOM     34  C   UNL     1       3.047   2.680  -8.428  0.00  0.00    -0.021 C 
ATOM     35  C   UNL     1       1.580   2.794  -8.010  0.00  0.00    +0.081 C 
ATOM     36  C   UNL     1       3.471   3.953  -9.165  0.00  0.00    +0.012 C 
ATOM     37  C   UNL     1       3.233   1.470  -9.345  0.00  0.00    +0.012 C 
BRANCH  27  38
ATOM     38  N   UNL     1      -0.886   6.677  -7.031  0.00  0.00    -0.328 N 
ATOM     39  H   UNL     1      -1.554   6.333  -7.644  0.00  0.00    +0.145 HD
ATOM     40  H   UNL     1      -0.951   7.588  -6.703  0.00  0.00    +0.145 HD
ENDBRANCH  27  38
BRANCH  26  41
ATOM     41  C   UNL     1       0.960   7.714  -5.293  0.00  0.00    +0.101 C 
ATOM     42  N   UNL     1       0.867   8.781  -4.915  0.00  0.00    -0.191 NA
ENDBRANCH  26  41
ENDBRANCH   4  25
TORSDOF 6
