REMARK  Name = ZINC12973775
REMARK  3 active torsions:
REMARK  status: ('A' for Active; 'I' for Inactive)
REMARK    1  A    between atoms: C_3  and  N_9
REMARK    2  A    between atoms: C_10  and  C_12
REMARK    3  A    between atoms: C_18  and  C_20
REMARK                            x       y       z     vdW  Elec       q    Type
REMARK                         _______ _______ _______ _____ _____    ______ ____
ROOT
ATOM      1  C   UNL     1       2.462   1.214   0.294  0.00  0.00    +0.162 C 
ATOM      2  C   UNL     1       3.511   2.344   0.360  0.00  0.00    +0.033 C 
ATOM      3  C   UNL     1       2.761   3.553  -0.260  0.00  0.00    +0.021 C 
ATOM      4  C   UNL     1       1.316   3.313   0.243  0.00  0.00    +0.108 C 
ATOM      5  N   UNL     1       1.140   1.850   0.203  0.00  0.00    -0.289 N 
ATOM      6  C   UNL     1      -0.038   1.203   0.105  0.00  0.00    +0.222 C 
ATOM      7  O   UNL     1      -0.059  -0.005  -0.000  0.00  0.00    -0.275 OA
ENDROOT
BRANCH   6   8
ATOM      8  C   UNL     1      -1.329   1.981   0.120  0.00  0.00    +0.048 C 
ATOM      9  C   UNL     1      -1.332   2.941   1.312  0.00  0.00    +0.019 C 
ATOM     10  C   UNL     1      -2.642   3.730   1.327  0.00  0.00    -0.009 C 
ATOM     11  C   UNL     1      -3.820   2.762   1.450  0.00  0.00    +0.007 C 
ATOM     12  C   UNL     1      -3.817   1.802   0.258  0.00  0.00    -0.009 C 
ATOM     13  C   UNL     1      -2.507   1.012   0.243  0.00  0.00    +0.019 C 
ATOM     14  C   UNL     1      -3.946   2.600  -1.040  0.00  0.00    +0.007 C 
ATOM     15  C   UNL     1      -2.768   3.569  -1.163  0.00  0.00    -0.009 C 
ATOM     16  C   UNL     1      -2.772   4.529   0.028  0.00  0.00    +0.007 C 
ATOM     17  C   UNL     1      -1.458   2.779  -1.178  0.00  0.00    +0.019 C 
ENDBRANCH   6   8
BRANCH   1  19
ATOM     18  N   UNL     1       3.668  -0.312   1.824  0.00  0.00    -0.283 N 
ATOM     19  C   UNL     1       2.539   0.367   1.539  0.00  0.00    +0.238 C 
ATOM     20  O   UNL     1       1.584   0.296   2.284  0.00  0.00    -0.273 OA
ATOM     21  H   UNL     1       4.453  -0.204   1.264  0.00  0.00    +0.155 HD
BRANCH  18  24
ATOM     22  C   UNL     1       3.037  -1.712   5.166  0.00  0.00    +0.040 A 
ATOM     23  C   UNL     1       2.997  -0.861   4.079  0.00  0.00    +0.027 A 
ATOM     24  C   UNL     1       3.708  -1.173   2.928  0.00  0.00    +0.052 A 
ATOM     25  C   UNL     1       4.454  -2.344   2.870  0.00  0.00    +0.065 A 
ATOM     26  C   UNL     1       4.495  -3.190   3.962  0.00  0.00    +0.060 A 
ATOM     27  C   UNL     1       3.785  -2.876   5.110  0.00  0.00    +0.125 A 
ATOM     28  F   UNL     1       3.823  -3.706   6.175  0.00  0.00    -0.205 F 
ATOM     29 CL   UNL     1       5.338  -2.741   1.430  0.00  0.00    -0.082 Cl
ENDBRANCH  18  24
ENDBRANCH   1  19
TORSDOF 3
