REMARK  Name = ZINC01201837
REMARK  10 active torsions:
REMARK  status: ('A' for Active; 'I' for Inactive)
REMARK    1  A    between atoms: C_1  and  C_2
REMARK    2  A    between atoms: C_3  and  C_28
REMARK    3  A    between atoms: C_4  and  C_21
REMARK    4  A    between atoms: C_10  and  C_15
REMARK    5  A    between atoms: C_25  and  O_27
REMARK    6  A    between atoms: C_28  and  O_30
REMARK    7  A    between atoms: O_30  and  C_31
REMARK    8  A    between atoms: C_31  and  C_32
REMARK    9  A    between atoms: C_32  and  C_33
REMARK   10  A    between atoms: C_32  and  C_34
REMARK                            x       y       z     vdW  Elec       q    Type
REMARK                         _______ _______ _______ _____ _____    ______ ____
ROOT
ATOM      1  C   UNL     1       2.341  -6.002  -2.440  0.00  0.00    +0.061 C 
ATOM      2  C   UNL     1       1.147  -5.085  -2.369  0.00  0.00    +0.016 C 
ATOM      3  C   UNL     1       1.306  -3.766  -2.576  0.00  0.00    +0.065 C 
ATOM      4  C   UNL     1       0.142  -2.821  -2.505  0.00  0.00    +0.092 C 
ATOM      5  C   UNL     1      -1.166  -3.564  -2.617  0.00  0.00    +0.024 C 
ATOM      6  C   UNL     1      -1.222  -4.896  -2.403  0.00  0.00    +0.016 C 
ATOM      7  N   UNL     1      -0.089  -5.599  -2.094  0.00  0.00    -0.321 N 
ATOM      8  C   UNL     1      -2.530  -5.642  -2.493  0.00  0.00    +0.059 C 
ATOM      9  C   UNL     1      -3.440  -4.963  -3.520  0.00  0.00    +0.032 C 
ATOM     10  C   UNL     1      -3.657  -3.508  -3.089  0.00  0.00    +0.088 C 
ATOM     11  C   UNL     1      -2.319  -2.833  -2.951  0.00  0.00    +0.162 C 
ATOM     12  O   UNL     1      -2.235  -1.635  -3.131  0.00  0.00    -0.292 OA
ATOM     13  H   UNL     1      -0.180  -6.587  -1.619  0.00  0.00    +0.152 HD
ENDROOT
BRANCH   9  14
ATOM     14  C   UNL     1      -4.765  -5.678  -3.574  0.00  0.00    -0.044 A 
ATOM     15  C   UNL     1      -5.539  -5.786  -2.433  0.00  0.00    +0.004 A 
ATOM     16  C   UNL     1      -6.757  -6.438  -2.484  0.00  0.00    +0.000 A 
ATOM     17  C   UNL     1      -7.197  -6.990  -3.672  0.00  0.00    +0.000 A 
ATOM     18  C   UNL     1      -6.421  -6.885  -4.812  0.00  0.00    +0.000 A 
ATOM     19  C   UNL     1      -5.205  -6.230  -4.762  0.00  0.00    +0.004 A 
ENDBRANCH   9  14
BRANCH   4  20
ATOM     20  C   UNL     1       0.181  -2.084  -1.191  0.00  0.00    -0.032 A 
ATOM     21  C   UNL     1       0.119  -2.788  -0.003  0.00  0.00    +0.005 A 
ATOM     22  C   UNL     1       0.155  -2.115   1.204  0.00  0.00    +0.004 A 
ATOM     23  C   UNL     1       0.253  -0.737   1.226  0.00  0.00    +0.045 A 
ATOM     24  C   UNL     1       0.316  -0.029   0.034  0.00  0.00    +0.117 A 
ATOM     25  C   UNL     1       0.275  -0.707  -1.176  0.00  0.00    +0.050 A 
BRANCH  24  26
ATOM     26  O   UNL     1       0.413   1.327   0.053  0.00  0.00    -0.507 OA
ATOM     27  H   UNL     1       0.463   1.887  -0.892  0.00  0.00    +0.292 HD
ENDBRANCH  24  26
ENDBRANCH   4  20
BRANCH   3  28
ATOM     28  C   UNL     1       2.594  -3.259  -2.866  0.00  0.00    +0.338 C 
ATOM     29  O   UNL     1       3.562  -3.996  -2.821  0.00  0.00    -0.245 OA
BRANCH  28  30
ATOM     30  O   UNL     1       2.750  -1.959  -3.192  0.00  0.00    -0.461 OA
BRANCH  30  31
ATOM     31  C   UNL     1       4.079  -1.516  -3.473  0.00  0.00    +0.235 C 
BRANCH  31  32
ATOM     32  C   UNL     1       4.057  -0.026  -3.820  0.00  0.00    +0.020 C 
ATOM     33  C   UNL     1       5.491   0.478  -3.998  0.00  0.00    +0.010 C 
ATOM     34  C   UNL     1       3.277   0.184  -5.119  0.00  0.00    +0.010 C 
ENDBRANCH  31  32
ENDBRANCH  30  31
ENDBRANCH  28  30
ENDBRANCH   3  28
TORSDOF 7
