REMARK  Name = ZINC30738424
REMARK  9 active torsions:
REMARK  status: ('A' for Active; 'I' for Inactive)
REMARK    1  A    between atoms: C_1  and  O_2
REMARK    2  A    between atoms: O_2  and  C_3
REMARK    3  A    between atoms: C_5  and  C_21
REMARK    4  A    between atoms: C_8  and  O_9
REMARK    5  A    between atoms: O_9  and  C_10
REMARK    6  A    between atoms: C_10  and  C_12
REMARK    7  A    between atoms: N_22  and  N_23
REMARK    8  A    between atoms: C_24  and  C_26
REMARK    9  A    between atoms: C_26  and  C_27
REMARK                            x       y       z     vdW  Elec       q    Type
REMARK                         _______ _______ _______ _____ _____    ______ ____
ROOT
ATOM      1  C   UNL     1      -6.728   6.696  -1.234  0.00  0.00    +0.163 A 
ATOM      2  C   UNL     1      -6.031   6.147  -2.294  0.00  0.00    +0.059 A 
ATOM      3  C   UNL     1      -4.839   5.456  -2.060  0.00  0.00    -0.002 A 
ATOM      4  C   UNL     1      -4.361   5.319  -0.754  0.00  0.00    +0.013 A 
ATOM      5  C   UNL     1      -5.058   5.873   0.298  0.00  0.00    +0.051 A 
ATOM      6  C   UNL     1      -6.242   6.559   0.065  0.00  0.00    +0.173 A 
ENDROOT
BRANCH   1   8
ATOM      7  C   UNL     1      -8.327   7.470  -2.814  0.00  0.00    +0.277 C 
ATOM      8  O   UNL     1      -7.888   7.369  -1.458  0.00  0.00    -0.491 OA
ENDBRANCH   1   8
BRANCH   3   9
ATOM      9  C   UNL     1      -4.092   4.868  -3.187  0.00  0.00    +0.138 C 
ATOM     10  N   UNL     1      -3.144   4.011  -2.960  0.00  0.00    -0.188 NA
BRANCH  10  11
ATOM     11  N   UNL     1      -3.113   3.304  -1.751  0.00  0.00    -0.207 N 
ATOM     12  C   UNL     1      -2.065   2.507  -1.463  0.00  0.00    +0.237 C 
ATOM     13  O   UNL     1      -1.148   2.402  -2.250  0.00  0.00    -0.274 OA
ATOM     14  H   UNL     1      -3.944   3.399  -1.037  0.00  0.00    +0.177 HD
BRANCH  12  15
ATOM     15  C   UNL     1      -2.032   1.747  -0.162  0.00  0.00    +0.139 C 
BRANCH  15  16
ATOM     16  C   UNL     1      -0.763   0.937  -0.086  0.00  0.00    -0.001 A 
ATOM     17  C   UNL     1       0.446   1.291   0.414  0.00  0.00    +0.011 A 
ATOM     18  C   UNL     1       1.482   0.376   0.373  0.00  0.00    +0.008 A 
ATOM     19  C   UNL     1       1.257  -0.848  -0.165  0.00  0.00    +0.045 A 
ATOM     20  S   UNL     1      -0.461  -0.734  -0.637  0.00  0.00    -0.101 S 
ENDBRANCH  15  16
ENDBRANCH  12  15
ENDBRANCH  10  11
ENDBRANCH   3   9
BRANCH   6  21
ATOM     21  O   UNL     1      -6.929   7.098   1.106  0.00  0.00    -0.419 OA
BRANCH  21  22
ATOM     22  C   UNL     1      -7.982   6.399   1.572  0.00  0.00    +0.345 C 
ATOM     23  O   UNL     1      -8.224   5.295   1.126  0.00  0.00    -0.245 OA
BRANCH  22  24
ATOM     24  C   UNL     1      -8.843   6.974   2.622  0.00  0.00    +0.063 A 
ATOM     25  C   UNL     1      -8.564   8.242   3.140  0.00  0.00    +0.019 A 
ATOM     26  C   UNL     1      -9.371   8.779   4.118  0.00  0.00    +0.050 A 
ATOM     27  C   UNL     1     -10.458   8.061   4.600  0.00  0.00    +0.166 A 
ATOM     28  C   UNL     1     -10.739   6.793   4.091  0.00  0.00    +0.167 A 
ATOM     29  C   UNL     1      -9.936   6.251   3.107  0.00  0.00    +0.064 A 
ATOM     30  O   UNL     1     -11.846   6.305   4.725  0.00  0.00    -0.453 OA
ATOM     31  C   UNL     1     -11.996   7.110   5.909  0.00  0.00    +0.466 C 
ATOM     32  O   UNL     1     -11.388   8.364   5.550  0.00  0.00    -0.453 OA
ENDBRANCH  22  24
ENDBRANCH  21  22
ENDBRANCH   6  21
TORSDOF 8
