REMARK  Name = ZINC01331384
REMARK  8 active torsions:
REMARK  status: ('A' for Active; 'I' for Inactive)
REMARK    1  A    between atoms: C_1  and  C_2
REMARK    2  A    between atoms: C_2  and  C_3
REMARK    3  A    between atoms: C_3  and  C_4
REMARK    4  A    between atoms: C_9  and  S_14
REMARK    5  A    between atoms: S_14  and  C_15
REMARK    6  A    between atoms: C_15  and  C_16
REMARK    7  A    between atoms: N_18  and  C_19
REMARK    8  A    between atoms: N_18  and  C_25
REMARK                            x       y       z     vdW  Elec       q    Type
REMARK                         _______ _______ _______ _____ _____    ______ ____
ROOT
ATOM      1  S   UNL     1      -2.819   1.686   0.480  0.00  0.00    -0.076 S 
ENDROOT
BRANCH   1   7
ATOM      2  C   UNL     1      -8.073   3.110   0.838  0.00  0.00    +0.048 A 
ATOM      3  C   UNL     1      -7.335   4.195   0.485  0.00  0.00    +0.072 A 
ATOM      4  C   UNL     1      -5.939   4.043   0.337  0.00  0.00    +0.166 A 
ATOM      5  N   UNL     1      -4.951   4.850   0.016  0.00  0.00    -0.128 NA
ATOM      6  N   UNL     1      -3.838   4.202   0.028  0.00  0.00    -0.122 NA
ATOM      7  C   UNL     1      -4.045   2.945   0.345  0.00  0.00    +0.199 A 
ATOM      8  N   UNL     1      -5.385   2.796   0.557  0.00  0.00    -0.242 N 
ATOM      9  C   UNL     1      -6.194   1.753   0.910  0.00  0.00    +0.201 A 
ATOM     10  N   UNL     1      -7.490   1.923   1.040  0.00  0.00    -0.221 NA
ATOM     11  N   UNL     1      -5.646   0.512   1.130  0.00  0.00    -0.328 N 
ATOM     12  H   UNL     1      -4.689   0.381   1.034  0.00  0.00    +0.145 HD
ATOM     13  H   UNL     1      -6.215  -0.232   1.381  0.00  0.00    +0.145 HD
BRANCH   2  14
ATOM     14  C   UNL     1      -9.565   3.245   1.003  0.00  0.00    +0.055 C 
BRANCH  14  16
ATOM     15  C   UNL     1     -11.786   2.357   0.282  0.00  0.00    +0.004 C 
ATOM     16  C   UNL     1     -10.271   2.219   0.114  0.00  0.00    +0.003 C 
ENDBRANCH  14  16
ENDBRANCH   2  14
ENDBRANCH   1   7
BRANCH   1  17
ATOM     17  C   UNL     1      -1.269   2.538   0.075  0.00  0.00    +0.174 C 
BRANCH  17  18
ATOM     18  C   UNL     1      -0.124   1.561   0.154  0.00  0.00    +0.234 C 
ATOM     19  O   UNL     1      -0.339   0.394   0.407  0.00  0.00    -0.274 OA
ATOM     20  N   UNL     1       1.137   1.983  -0.062  0.00  0.00    -0.240 N 
BRANCH  20  21
ATOM     21  C   UNL     1       1.375   3.304  -0.462  0.00  0.00    +0.041 A 
ATOM     22  C   UNL     1       1.829   3.571  -1.747  0.00  0.00    +0.024 A 
ATOM     23  C   UNL     1       2.056   4.875  -2.141  0.00  0.00    +0.002 A 
ATOM     24  C   UNL     1       1.844   5.913  -1.253  0.00  0.00    +0.000 A 
ATOM     25  C   UNL     1       1.398   5.651   0.029  0.00  0.00    +0.002 A 
ATOM     26  C   UNL     1       1.163   4.349   0.427  0.00  0.00    +0.024 A 
ENDBRANCH  20  21
BRANCH  20  27
ATOM     27  C   UNL     1       2.211   1.101   0.114  0.00  0.00    +0.041 A 
ATOM     28  C   UNL     1       3.118   1.305   1.145  0.00  0.00    +0.024 A 
ATOM     29  C   UNL     1       4.171   0.430   1.320  0.00  0.00    +0.002 A 
ATOM     30  C   UNL     1       4.331  -0.642   0.461  0.00  0.00    +0.000 A 
ATOM     31  C   UNL     1       3.433  -0.845  -0.571  0.00  0.00    +0.002 A 
ATOM     32  C   UNL     1       2.373   0.023  -0.747  0.00  0.00    +0.024 A 
ENDBRANCH  20  27
ENDBRANCH  17  18
ENDBRANCH   1  17
TORSDOF 7
