REMARK  Name = ZINC00781108
REMARK  10 active torsions:
REMARK  status: ('A' for Active; 'I' for Inactive)
REMARK    1  A    between atoms: C_1  and  C_2
REMARK    2  A    between atoms: C_2  and  O_3
REMARK    3  A    between atoms: O_3  and  C_4
REMARK    4  A    between atoms: C_6  and  C_11
REMARK    5  A    between atoms: C_9  and  O_10
REMARK    6  A    between atoms: C_16  and  C_21
REMARK    7  A    between atoms: C_24  and  O_29
REMARK    8  A    between atoms: C_25  and  O_27
REMARK    9  A    between atoms: O_27  and  C_28
REMARK   10  A    between atoms: O_29  and  C_30
REMARK                            x       y       z     vdW  Elec       q    Type
REMARK                         _______ _______ _______ _____ _____    ______ ____
ROOT
ATOM      1  C   UNL     1      -5.710  -1.893   0.115  0.00  0.00    +0.136 C 
ATOM      2  C   UNL     1      -4.387  -1.166   0.158  0.00  0.00    +0.036 C 
ATOM      3  C   UNL     1      -3.703  -0.710  -0.906  0.00  0.00    +0.017 C 
ATOM      4  C   UNL     1      -2.375   0.003  -0.720  0.00  0.00    +0.059 C 
ATOM      5  C   UNL     1      -2.381   0.779   0.596  0.00  0.00    +0.032 C 
ATOM      6  C   UNL     1      -2.606  -0.228   1.730  0.00  0.00    +0.088 C 
ATOM      7  C   UNL     1      -3.884  -0.967   1.465  0.00  0.00    +0.163 C 
ATOM      8  O   UNL     1      -4.509  -1.412   2.407  0.00  0.00    -0.292 OA
ATOM      9  N   UNL     1      -4.101  -0.846  -2.197  0.00  0.00    -0.316 N 
ATOM     10  C   UNL     1      -5.383  -0.582  -2.666  0.00  0.00    +0.052 A 
ATOM     11  C   UNL     1      -5.648   0.439  -3.562  0.00  0.00    +0.025 A 
ATOM     12  C   UNL     1      -6.941   0.616  -4.024  0.00  0.00    +0.002 A 
ATOM     13  C   UNL     1      -7.956  -0.220  -3.597  0.00  0.00    +0.002 A 
ATOM     14  C   UNL     1      -7.695  -1.230  -2.687  0.00  0.00    +0.025 A 
ATOM     15  C   UNL     1      -6.407  -1.396  -2.205  0.00  0.00    +0.049 A 
ATOM     16  N   UNL     1      -6.118  -2.323  -1.205  0.00  0.00    -0.331 N 
ATOM     17  H   UNL     1      -3.441  -1.149  -2.840  0.00  0.00    +0.152 HD
ATOM     18  H   UNL     1      -6.191  -3.271  -1.397  0.00  0.00    +0.147 HD
ENDROOT
BRANCH   1  21
ATOM     19  C   UNL     1      -8.427  -0.493   2.335  0.00  0.00    +0.162 A 
ATOM     20  C   UNL     1      -7.449  -1.330   1.824  0.00  0.00    +0.055 A 
ATOM     21  C   UNL     1      -6.773  -0.981   0.670  0.00  0.00    -0.019 A 
ATOM     22  C   UNL     1      -7.068   0.207   0.026  0.00  0.00    +0.009 A 
ATOM     23  C   UNL     1      -8.047   1.044   0.527  0.00  0.00    +0.049 A 
ATOM     24  C   UNL     1      -8.728   0.700   1.684  0.00  0.00    +0.158 A 
BRANCH  24  25
ATOM     25  O   UNL     1      -9.687   1.525   2.181  0.00  0.00    -0.503 OA
ATOM     26  H   UNL     1      -9.355   2.181   2.809  0.00  0.00    +0.292 HD
ENDBRANCH  24  25
BRANCH  19  27
ATOM     27  O   UNL     1      -9.092  -0.836   3.471  0.00  0.00    -0.489 OA
BRANCH  27  29
ATOM     28  C   UNL     1      -9.581  -2.287   5.340  0.00  0.00    +0.048 C 
ATOM     29  C   UNL     1      -8.732  -2.074   4.085  0.00  0.00    +0.226 C 
ENDBRANCH  27  29
ENDBRANCH  19  27
ENDBRANCH   1  21
BRANCH   5  30
ATOM     30  C   UNL     1      -1.056   1.473   0.785  0.00  0.00    -0.040 A 
ATOM     31  C   UNL     1       0.112   0.735   0.808  0.00  0.00    +0.008 A 
ATOM     32  C   UNL     1       1.330   1.368   0.977  0.00  0.00    +0.049 A 
ATOM     33  C   UNL     1       1.380   2.744   1.128  0.00  0.00    +0.161 A 
ATOM     34  C   UNL     1       0.203   3.487   1.110  0.00  0.00    +0.162 A 
ATOM     35  C   UNL     1      -1.014   2.846   0.941  0.00  0.00    +0.053 A 
BRANCH  34  36
ATOM     36  O   UNL     1       0.248   4.838   1.259  0.00  0.00    -0.491 OA
ATOM     37  C   UNL     1      -1.000   5.535   1.231  0.00  0.00    +0.277 C 
ENDBRANCH  34  36
BRANCH  33  38
ATOM     38  O   UNL     1       2.577   3.368   1.294  0.00  0.00    -0.491 OA
ATOM     39  C   UNL     1       3.744   2.543   1.301  0.00  0.00    +0.277 C 
ENDBRANCH  33  38
ENDBRANCH   5  30
TORSDOF 7
