REMARK  Name = ZINC07960655
REMARK  3 active torsions:
REMARK  status: ('A' for Active; 'I' for Inactive)
REMARK    1  A    between atoms: C_3  and  C_22
REMARK    2  A    between atoms: C_5  and  N_7
REMARK    3  A    between atoms: C_8  and  C_10
REMARK                            x       y       z     vdW  Elec       q    Type
REMARK                         _______ _______ _______ _____ _____    ______ ____
ROOT
ATOM      1  C   UNL     1       1.845   7.553  -0.696  0.00  0.00    +0.002 A 
ATOM      2  C   UNL     1       1.255   8.143  -1.795  0.00  0.00    +0.012 A 
ATOM      3  C   UNL     1       0.432   7.391  -2.634  0.00  0.00    +0.021 A 
ATOM      4  C   UNL     1       0.212   6.042  -2.359  0.00  0.00    +0.035 A 
ATOM      5  C   UNL     1       0.804   5.459  -1.250  0.00  0.00    +0.034 A 
ATOM      6  C   UNL     1       1.623   6.217  -0.421  0.00  0.00    +0.023 A 
ENDROOT
BRANCH   3   7
ATOM      7  C   UNL     1      -0.202   8.021  -3.812  0.00  0.00    +0.164 A 
ATOM      8  N   UNL     1      -0.702   7.401  -4.860  0.00  0.00    -0.129 NA
ATOM      9  N   UNL     1      -1.179   8.263  -5.689  0.00  0.00    -0.134 NA
ATOM     10  C   UNL     1      -1.014   9.469  -5.220  0.00  0.00    +0.134 A 
ATOM     11  N   UNL     1      -0.386   9.357  -4.020  0.00  0.00    -0.311 N 
ATOM     12  C   UNL     1       0.034  10.457  -3.151  0.00  0.00    +0.125 C 
ATOM     13  C   UNL     1      -0.897  11.654  -3.367  0.00  0.00    +0.022 C 
ATOM     14  C   UNL     1      -0.350  12.537  -4.487  0.00  0.00    +0.002 C 
ATOM     15  C   UNL     1      -0.285  11.761  -5.799  0.00  0.00    +0.008 C 
ATOM     16  C   UNL     1      -1.444  10.762  -5.863  0.00  0.00    +0.076 C 
ENDBRANCH   3   7
BRANCH   5  17
ATOM     17  N   UNL     1       0.581   4.107  -0.967  0.00  0.00    -0.285 N 
ATOM     18  C   UNL     1      -0.555   3.510  -1.379  0.00  0.00    +0.224 C 
ATOM     19  O   UNL     1      -1.425   4.165  -1.911  0.00  0.00    -0.275 OA
ATOM     20  H   UNL     1       1.244   3.599  -0.474  0.00  0.00    +0.155 HD
BRANCH  18  21
ATOM     21  C   UNL     1      -0.743   2.028  -1.179  0.00  0.00    +0.117 C 
ATOM     22  C   UNL     1      -2.094   1.597  -1.756  0.00  0.00    +0.055 C 
ATOM     23  C   UNL     1      -2.159   0.092  -1.828  0.00  0.00    -0.004 A 
ATOM     24  C   UNL     1      -3.396  -0.515  -1.964  0.00  0.00    +0.027 A 
ATOM     25  C   UNL     1      -3.492  -1.892  -2.041  0.00  0.00    +0.041 A 
ATOM     26  C   UNL     1      -2.348  -2.669  -1.981  0.00  0.00    +0.023 A 
ATOM     27  C   UNL     1      -1.114  -2.068  -1.843  0.00  0.00    +0.047 A 
ATOM     28  C   UNL     1      -1.014  -0.682  -1.764  0.00  0.00    +0.124 A 
ATOM     29  O   UNL     1       0.219  -0.129  -1.625  0.00  0.00    -0.491 OA
ATOM     30  C   UNL     1       0.362   1.262  -1.917  0.00  0.00    +0.242 C 
ATOM     31 CL   UNL     1      -5.046  -2.646  -2.212  0.00  0.00    -0.084 Cl
ENDBRANCH  18  21
ENDBRANCH   5  17
TORSDOF 3
