REMARK  Name = ZINC54710971
REMARK  4 active torsions:
REMARK  status: ('A' for Active; 'I' for Inactive)
REMARK    1  A    between atoms: C_4  and  C_7
REMARK    2  A    between atoms: C_8  and  C_9
REMARK    3  A    between atoms: C_9  and  S_10
REMARK    4  A    between atoms: S_10  and  C_11
REMARK                            x       y       z     vdW  Elec       q    Type
REMARK                         _______ _______ _______ _____ _____    ______ ____
ROOT
ATOM      1  C   UNL     1       7.279  -4.442  -0.093  0.00  0.00    +0.192 A 
ATOM      2  N   UNL     1       7.412  -5.764  -0.107  0.00  0.00    -0.207 NA
ATOM      3  C   UNL     1       8.597  -6.350  -0.122  0.00  0.00    +0.129 A 
ATOM      4  C   UNL     1       9.772  -5.547  -0.124  0.00  0.00    +0.047 A 
ATOM      5  C   UNL     1      11.169  -5.947  -0.140  0.00  0.00    +0.021 A 
ATOM      6  C   UNL     1      12.120  -5.003  -0.139  0.00  0.00    +0.048 A 
ATOM      7  S   UNL     1      11.195  -3.479  -0.116  0.00  0.00    -0.077 S 
ATOM      8  C   UNL     1       9.555  -4.152  -0.109  0.00  0.00    +0.114 A 
ATOM      9  N   UNL     1       8.338  -3.644  -0.100  0.00  0.00    -0.215 NA
ATOM     10  N   UNL     1       8.694  -7.729  -0.136  0.00  0.00    -0.343 N 
ATOM     11  H   UNL     1       7.890  -8.272  -0.135  0.00  0.00    +0.144 HD
ATOM     12  H   UNL     1       9.566  -8.154  -0.147  0.00  0.00    +0.144 HD
ENDROOT
BRANCH   1  13
ATOM     13  S   UNL     1       5.664  -3.737  -0.073  0.00  0.00    -0.073 S 
BRANCH  13  14
ATOM     14  C   UNL     1       5.967  -1.948  -0.067  0.00  0.00    +0.166 C 
BRANCH  14  16
ATOM     15  C   UNL     1       3.655  -0.662  -0.037  0.00  0.00    -0.065 C 
ATOM     16  C   UNL     1       4.681  -1.233  -0.050  0.00  0.00    -0.086 C 
BRANCH  15  20
ATOM     17  C   UNL     1      -0.017   1.379   0.010  0.00  0.00    +0.000 A 
ATOM     18  C   UNL     1       1.168   2.093   0.002  0.00  0.00    +0.001 A 
ATOM     19  C   UNL     1       2.377   1.429  -0.013  0.00  0.00    +0.017 A 
ATOM     20  C   UNL     1       2.403   0.034  -0.021  0.00  0.00    +0.025 A 
ATOM     21  C   UNL     1       1.204  -0.681  -0.013  0.00  0.00    +0.017 A 
ATOM     22  C   UNL     1       0.002  -0.004   0.002  0.00  0.00    +0.001 A 
ENDBRANCH  15  20
ENDBRANCH  14  16
ENDBRANCH  13  14
ENDBRANCH   1  13
TORSDOF 4
