REMARK  Name = ZINC39850315
REMARK  9 active torsions:
REMARK  status: ('A' for Active; 'I' for Inactive)
REMARK    1  A    between atoms: C_1  and  C_2
REMARK    2  A    between atoms: C_2  and  O_3
REMARK    3  A    between atoms: O_3  and  C_4
REMARK    4  A    between atoms: C_8  and  C_10
REMARK    5  A    between atoms: C_12  and  C_24
REMARK    6  A    between atoms: C_14  and  C_19
REMARK    7  A    between atoms: C_14  and  O_23
REMARK    8  A    between atoms: C_24  and  C_26
REMARK    9  A    between atoms: C_29  and  C_32
REMARK                            x       y       z     vdW  Elec       q    Type
REMARK                         _______ _______ _______ _____ _____    ______ ____
ROOT
ATOM      1  C   UNL     1      -4.358  -4.101   0.376  0.00  0.00    +0.120 C 
ATOM      2  C   UNL     1      -4.961  -4.822   1.587  0.00  0.00    +0.144 C 
ATOM      3  C   UNL     1      -6.131  -5.687   1.107  0.00  0.00    +0.243 C 
ATOM      4  N   UNL     1      -5.660  -6.591   0.056  0.00  0.00    -0.264 N 
ATOM      5  C   UNL     1      -4.639  -6.256  -0.746  0.00  0.00    +0.302 C 
ATOM      6  O   UNL     1      -4.294  -7.040  -1.610  0.00  0.00    -0.253 OA
ATOM      7  N   UNL     1      -3.984  -5.090  -0.636  0.00  0.00    -0.292 N 
ATOM      8  H   UNL     1      -6.095  -7.450  -0.062  0.00  0.00    +0.153 HD
ATOM      9  H   UNL     1      -3.247  -4.900  -1.237  0.00  0.00    +0.151 HD
ENDROOT
BRANCH   1  14
ATOM     10  C   UNL     1      -2.117  -1.291   1.541  0.00  0.00    +0.121 A 
ATOM     11  C   UNL     1      -0.884  -1.926   1.593  0.00  0.00    +0.045 A 
ATOM     12  C   UNL     1      -0.781  -3.260   1.251  0.00  0.00    +0.004 A 
ATOM     13  C   UNL     1      -1.906  -3.963   0.858  0.00  0.00    +0.006 A 
ATOM     14  C   UNL     1      -3.135  -3.332   0.806  0.00  0.00    -0.023 A 
ATOM     15  C   UNL     1      -3.244  -1.999   1.152  0.00  0.00    +0.051 A 
BRANCH  10  16
ATOM     16  O   UNL     1      -2.220   0.022   1.877  0.00  0.00    -0.492 OA
BRANCH  16  18
ATOM     17  C   UNL     1      -1.331   2.147   2.607  0.00  0.00    +0.048 C 
ATOM     18  C   UNL     1      -1.018   0.689   2.269  0.00  0.00    +0.225 C 
ENDBRANCH  16  18
ENDBRANCH  10  16
ENDBRANCH   1  14
BRANCH   3  19
ATOM     19  C   UNL     1      -6.677  -6.505   2.279  0.00  0.00    +0.436 C 
ATOM     20  F   UNL     1      -6.996  -5.648   3.337  0.00  0.00    -0.166 F 
ATOM     21  F   UNL     1      -7.825  -7.192   1.873  0.00  0.00    -0.166 F 
ATOM     22  F   UNL     1      -5.708  -7.423   2.698  0.00  0.00    -0.166 F 
ENDBRANCH   3  19
BRANCH   3  23
ATOM     23  O   UNL     1      -7.164  -4.847   0.587  0.00  0.00    -0.364 OA
ATOM     24  H   UNL     1      -7.937  -5.329   0.264  0.00  0.00    +0.212 HD
ENDBRANCH   3  23
BRANCH   2  25
ATOM     25  C   UNL     1      -3.913  -5.693   2.231  0.00  0.00    +0.173 C 
ATOM     26  O   UNL     1      -3.421  -6.610   1.609  0.00  0.00    -0.292 OA
BRANCH  25  27
ATOM     27  C   UNL     1      -3.487  -5.430   3.615  0.00  0.00    +0.018 A 
ATOM     28  C   UNL     1      -3.966  -4.307   4.297  0.00  0.00    +0.011 A 
ATOM     29  C   UNL     1      -3.562  -4.068   5.593  0.00  0.00    +0.004 A 
ATOM     30  C   UNL     1      -2.685  -4.936   6.220  0.00  0.00    -0.050 A 
ATOM     31  C   UNL     1      -2.207  -6.050   5.552  0.00  0.00    +0.004 A 
ATOM     32  C   UNL     1      -2.605  -6.306   4.257  0.00  0.00    +0.011 A 
ATOM     33  C   UNL     1      -2.249  -4.668   7.637  0.00  0.00    +0.044 C 
ENDBRANCH  25  27
ENDBRANCH   2  25
TORSDOF 7
