REMARK  Name = ZINC00804028
REMARK  8 active torsions:
REMARK  status: ('A' for Active; 'I' for Inactive)
REMARK    1  A    between atoms: C_1  and  C_2
REMARK    2  A    between atoms: C_5  and  S_8
REMARK    3  A    between atoms: S_8  and  C_9
REMARK    4  A    between atoms: C_9  and  C_10
REMARK    5  A    between atoms: C_17  and  N_30
REMARK    6  A    between atoms: C_18  and  C_28
REMARK    7  A    between atoms: C_19  and  C_21
REMARK    8  A    between atoms: C_21  and  C_22
REMARK                            x       y       z     vdW  Elec       q    Type
REMARK                         _______ _______ _______ _____ _____    ______ ____
ROOT
ATOM      1  C   UNL     1       0.097  -6.482   1.870  0.00  0.00    +0.054 A 
ATOM      2  C   UNL     1      -0.976  -7.285   1.942  0.00  0.00    +0.046 A 
ATOM      3  C   UNL     1      -0.520  -8.616   2.063  0.00  0.00    +0.244 A 
ATOM      4  N   UNL     1       0.782  -8.598   2.062  0.00  0.00    -0.135 NA
ATOM      5  N   UNL     1       1.200  -7.263   1.936  0.00  0.00    -0.277 N 
ATOM      6  H   UNL     1       2.119  -6.955   1.904  0.00  0.00    +0.189 HD
ATOM      7  O   UNL     1      -1.378  -9.666   2.160  0.00  0.00    -0.422 OA
ATOM      8  C   UNL     1      -2.673  -9.388   2.410  0.00  0.00    +0.200 C 
ATOM      9  C   UNL     1      -3.224  -8.160   2.315  0.00  0.00    +0.094 C 
ATOM     10  C   UNL     1      -2.442  -6.937   1.908  0.00  0.00    +0.076 C 
ENDROOT
BRANCH   8  11
ATOM     11  N   UNL     1      -3.488 -10.426   2.787  0.00  0.00    -0.328 N 
ATOM     12  H   UNL     1      -3.127 -11.323   2.865  0.00  0.00    +0.145 HD
ATOM     13  H   UNL     1      -4.426 -10.263   2.975  0.00  0.00    +0.145 HD
ENDBRANCH   8  11
BRANCH   9  14
ATOM     14  C   UNL     1      -4.616  -8.011   2.616  0.00  0.00    +0.100 C 
ATOM     15  N   UNL     1      -5.721  -7.893   2.854  0.00  0.00    -0.191 NA
ENDBRANCH   9  14
BRANCH   1  16
ATOM     16  C   UNL     1       0.077  -4.981   1.735  0.00  0.00    +0.129 C 
BRANCH  16  17
ATOM     17  S   UNL     1       0.062  -4.533  -0.023  0.00  0.00    -0.119 S 
BRANCH  17  22
ATOM     18  C   UNL     1      -0.018   1.503   0.010  0.00  0.00    +0.044 C 
ATOM     19  C   UNL     1       0.002  -0.004   0.002  0.00  0.00    -0.050 A 
ATOM     20  C   UNL     1       0.006  -0.687  -1.200  0.00  0.00    +0.004 A 
ATOM     21  C   UNL     1       0.024  -2.068  -1.212  0.00  0.00    +0.015 A 
ATOM     22  C   UNL     1       0.039  -2.771  -0.013  0.00  0.00    +0.008 A 
ATOM     23  C   UNL     1       0.036  -2.081   1.193  0.00  0.00    +0.015 A 
ATOM     24  C   UNL     1       0.023  -0.700   1.197  0.00  0.00    +0.004 A 
ENDBRANCH  17  22
ENDBRANCH  16  17
ENDBRANCH   1  16
BRANCH  10  25
ATOM     25  C   UNL     1      -2.841  -6.518   0.491  0.00  0.00    +0.049 C 
BRANCH  25  26
ATOM     26  C   UNL     1      -4.275  -6.055   0.490  0.00  0.00    -0.046 A 
ATOM     27  C   UNL     1      -5.294  -6.962   0.266  0.00  0.00    +0.003 A 
ATOM     28  C   UNL     1      -6.609  -6.537   0.264  0.00  0.00    +0.000 A 
ATOM     29  C   UNL     1      -6.906  -5.205   0.487  0.00  0.00    +0.000 A 
ATOM     30  C   UNL     1      -5.887  -4.299   0.712  0.00  0.00    +0.000 A 
ATOM     31  C   UNL     1      -4.572  -4.724   0.718  0.00  0.00    +0.003 A 
ENDBRANCH  25  26
ENDBRANCH  10  25
TORSDOF 7
