REMARK  Name = ZINC31169809
REMARK  9 active torsions:
REMARK  status: ('A' for Active; 'I' for Inactive)
REMARK    1  A    between atoms: C_1  and  C_2
REMARK    2  A    between atoms: C_2  and  C_28
REMARK    3  A    between atoms: C_3  and  C_4
REMARK    4  A    between atoms: C_4  and  C_5
REMARK    5  A    between atoms: C_6  and  O_27
REMARK    6  A    between atoms: C_10  and  O_11
REMARK    7  A    between atoms: O_11  and  C_12
REMARK    8  A    between atoms: C_13  and  O_26
REMARK    9  A    between atoms: C_18  and  O_25
REMARK                            x       y       z     vdW  Elec       q    Type
REMARK                         _______ _______ _______ _____ _____    ______ ____
ROOT
ATOM      1  C   UNL     1      -3.301   1.988   1.224  0.00  0.00    +0.040 A 
ATOM      2  C   UNL     1      -4.191   3.000   0.908  0.00  0.00    +0.127 A 
ATOM      3  C   UNL     1      -4.992   3.599   1.875  0.00  0.00    +0.092 A 
ATOM      4  C   UNL     1      -4.870   3.145   3.183  0.00  0.00    +0.135 A 
ATOM      5  C   UNL     1      -3.969   2.105   3.496  0.00  0.00    +0.075 A 
ATOM      6  C   UNL     1      -3.177   1.514   2.529  0.00  0.00    +0.137 A 
ATOM      7  C   UNL     1      -4.129   1.873   4.951  0.00  0.00    +0.172 C 
ATOM      8  C   UNL     1      -2.923   1.576   5.806  0.00  0.00    +0.273 C 
ATOM      9  O   UNL     1      -3.263   1.768   7.184  0.00  0.00    -0.488 OA
ATOM     10  C   UNL     1      -4.489   2.195   7.572  0.00  0.00    +0.131 A 
ATOM     11  C   UNL     1      -4.988   1.865   8.822  0.00  0.00    +0.091 A 
ATOM     12  C   UNL     1      -6.221   2.346   9.230  0.00  0.00    +0.120 A 
ATOM     13  C   UNL     1      -6.970   3.161   8.392  0.00  0.00    +0.046 A 
ATOM     14  C   UNL     1      -6.483   3.488   7.138  0.00  0.00    +0.014 A 
ATOM     15  C   UNL     1      -5.267   3.006   6.732  0.00  0.00    +0.038 A 
ATOM     16  C   UNL     1      -4.659   3.281   5.396  0.00  0.00    +0.247 C 
ATOM     17  O   UNL     1      -5.512   3.589   4.301  0.00  0.00    -0.480 OA
ENDROOT
BRANCH   6  18
ATOM     18  O   UNL     1      -2.308   0.517   2.840  0.00  0.00    -0.494 OA
ATOM     19  C   UNL     1      -0.984   0.902   3.214  0.00  0.00    +0.277 C 
ENDBRANCH   6  18
BRANCH  12  20
ATOM     20  O   UNL     1      -6.701   2.018  10.458  0.00  0.00    -0.507 OA
ATOM     21  H   UNL     1      -7.681   2.398  10.785  0.00  0.00    +0.292 HD
ENDBRANCH  12  20
BRANCH   7  22
ATOM     22  O   UNL     1      -5.136   0.884   5.175  0.00  0.00    -0.376 OA
ATOM     23  H   UNL     1      -5.391   0.582   6.202  0.00  0.00    +0.211 HD
ENDBRANCH   7  22
BRANCH   2  24
ATOM     24  O   UNL     1      -4.284   3.419  -0.381  0.00  0.00    -0.506 OA
ATOM     25  H   UNL     1      -4.986   4.223  -0.649  0.00  0.00    +0.292 HD
ENDBRANCH   2  24
BRANCH   1  26
ATOM     26  C   UNL     1      -2.455   1.381   0.134  0.00  0.00    +0.069 C 
BRANCH  26  29
ATOM     27  C   UNL     1       0.006   0.003   0.115  0.00  0.00    +0.038 C 
ATOM     28  C   UNL     1      -0.017   1.509   0.073  0.00  0.00    -0.079 C 
ATOM     29  C   UNL     1      -1.161   2.145   0.019  0.00  0.00    -0.023 C 
ATOM     30  C   UNL     1       1.276   2.283   0.088  0.00  0.00    +0.038 C 
ENDBRANCH  26  29
ENDBRANCH   1  26
TORSDOF 6
