REMARK  Name = ZINC06080043
REMARK  6 active torsions:
REMARK  status: ('A' for Active; 'I' for Inactive)
REMARK    1  A    between atoms: C_4  and  N_25
REMARK    2  A    between atoms: C_5  and  C_7
REMARK    3  A    between atoms: C_9  and  C_12
REMARK    4  A    between atoms: N_14  and  C_15
REMARK    5  A    between atoms: C_15  and  C_16
REMARK    6  A    between atoms: C_16  and  C_17
REMARK                            x       y       z     vdW  Elec       q    Type
REMARK                         _______ _______ _______ _____ _____    ______ ____
ROOT
ATOM      1  C   UNL     1       2.246   0.721   0.035  0.00  0.00    +0.230 A 
ATOM      2  N   UNL     1       2.204  -0.584   0.146  0.00  0.00    -0.204 NA
ATOM      3  C   UNL     1       3.477  -1.058   0.112  0.00  0.00    +0.164 A 
ATOM      4  C   UNL     1       4.305   0.015  -0.017  0.00  0.00    +0.230 A 
ATOM      5  O   UNL     1       3.529   1.111  -0.064  0.00  0.00    -0.443 OA
ENDROOT
BRANCH   1  10
ATOM      6  C   UNL     1      -1.308   1.931   0.004  0.00  0.00    +0.001 A 
ATOM      7  C   UNL     1      -1.130   3.304   0.006  0.00  0.00    +0.002 A 
ATOM      8  C   UNL     1       0.141   3.844   0.011  0.00  0.00    +0.023 A 
ATOM      9  C   UNL     1       1.250   3.010   0.021  0.00  0.00    +0.037 A 
ATOM     10  C   UNL     1       1.073   1.619   0.024  0.00  0.00    +0.057 A 
ATOM     11  C   UNL     1      -0.217   1.088   0.019  0.00  0.00    +0.015 A 
BRANCH   9  12
ATOM     12  N   UNL     1       2.534   3.551   0.027  0.00  0.00    -0.357 N 
ATOM     13  H   UNL     1       3.306   2.970  -0.046  0.00  0.00    +0.142 HD
ATOM     14  H   UNL     1       2.654   4.511   0.104  0.00  0.00    +0.142 HD
ENDBRANCH   9  12
ENDBRANCH   1  10
BRANCH   3  15
ATOM     15  C   UNL     1       3.885  -2.472   0.203  0.00  0.00    +0.266 C 
ATOM     16  O   UNL     1       5.064  -2.768   0.165  0.00  0.00    -0.268 OA
ATOM     17  N   UNL     1       2.952  -3.436   0.329  0.00  0.00    -0.310 N 
ATOM     18  H   UNL     1       2.012  -3.200   0.359  0.00  0.00    +0.149 HD
BRANCH  17  19
ATOM     19  C   UNL     1       3.358  -4.841   0.419  0.00  0.00    +0.109 C 
BRANCH  19  20
ATOM     20  C   UNL     1       2.116  -5.723   0.555  0.00  0.00    +0.055 C 
BRANCH  20  21
ATOM     21  C   UNL     1       2.533  -7.168   0.648  0.00  0.00    -0.027 A 
ATOM     22  C   UNL     1       2.587  -7.794   1.879  0.00  0.00    +0.006 A 
ATOM     23  C   UNL     1       2.969  -9.119   1.966  0.00  0.00    +0.020 A 
ATOM     24  C   UNL     1       3.299  -9.820   0.819  0.00  0.00    +0.042 A 
ATOM     25  C   UNL     1       3.246  -9.195  -0.413  0.00  0.00    +0.040 A 
ATOM     26  C   UNL     1       2.858  -7.870  -0.499  0.00  0.00    +0.046 A 
ATOM     27 CL   UNL     1       2.784  -7.085  -2.047  0.00  0.00    -0.083 Cl
ATOM     28 CL   UNL     1       3.780 -11.485   0.928  0.00  0.00    -0.083 Cl
ENDBRANCH  20  21
ENDBRANCH  19  20
ENDBRANCH  17  19
ENDBRANCH   3  15
TORSDOF 6
