REMARK  Name = ZINC40548945
REMARK  7 active torsions:
REMARK  status: ('A' for Active; 'I' for Inactive)
REMARK    1  A    between atoms: C_1  and  C_2
REMARK    2  A    between atoms: C_4  and  C_10
REMARK    3  A    between atoms: C_5  and  O_9
REMARK    4  A    between atoms: C_7  and  C_8
REMARK    5  A    between atoms: N_18  and  C_28
REMARK    6  A    between atoms: C_19  and  C_21
REMARK    7  A    between atoms: C_25  and  O_27
REMARK                            x       y       z     vdW  Elec       q    Type
REMARK                         _______ _______ _______ _____ _____    ______ ____
ROOT
ATOM      1  C   UNL     1      -0.229  -2.946  -2.878  0.00  0.00    +0.102 A 
ATOM      2  C   UNL     1       0.033  -4.320  -2.845  0.00  0.00    +0.035 A 
ATOM      3  C   UNL     1       0.065  -4.729  -4.165  0.00  0.00    +0.126 A 
ATOM      4  N   UNL     1      -0.172  -3.611  -4.914  0.00  0.00    -0.272 N 
ATOM      5  H   UNL     1      -0.209  -3.588  -5.883  0.00  0.00    +0.189 HD
ATOM      6  N   UNL     1      -0.343  -2.596  -4.145  0.00  0.00    -0.173 NA
ATOM      7  C   UNL     1       0.337  -6.170  -4.200  0.00  0.00    +0.266 C 
ATOM      8  O   UNL     1       0.429  -6.835  -5.214  0.00  0.00    -0.268 OA
ATOM      9  N   UNL     1       0.470  -6.652  -2.951  0.00  0.00    -0.280 N 
ATOM     10  C   UNL     1       0.292  -5.541  -2.007  0.00  0.00    +0.142 C 
ENDROOT
BRANCH   1  14
ATOM     11  C   UNL     1       1.465  -1.323   1.528  0.00  0.00    +0.044 C 
ATOM     12  C   UNL     1       0.451  -1.264   0.415  0.00  0.00    -0.047 A 
ATOM     13  C   UNL     1       0.577  -2.101  -0.675  0.00  0.00    +0.017 A 
ATOM     14  C   UNL     1      -0.359  -2.048  -1.704  0.00  0.00    +0.044 A 
ATOM     15  C   UNL     1      -1.423  -1.144  -1.626  0.00  0.00    +0.126 A 
ATOM     16  C   UNL     1      -1.538  -0.309  -0.527  0.00  0.00    +0.049 A 
ATOM     17  C   UNL     1      -0.606  -0.375   0.492  0.00  0.00    -0.044 A 
ATOM     18  C   UNL     1      -0.739   0.531   1.689  0.00  0.00    +0.044 C 
BRANCH  15  19
ATOM     19  O   UNL     1      -2.342  -1.085  -2.626  0.00  0.00    -0.506 OA
ATOM     20  H   UNL     1      -3.132  -1.618  -2.466  0.00  0.00    +0.292 HD
ENDBRANCH  15  19
ENDBRANCH   1  14
BRANCH   9  21
ATOM     21  C   UNL     1       0.745  -8.046  -2.594  0.00  0.00    +0.100 C 
ATOM     22  C   UNL     1      -0.377  -8.944  -3.142  0.00  0.00    +0.047 C 
ATOM     23  C   UNL     1       0.089 -10.424  -3.029  0.00  0.00    +0.168 C 
ATOM     24  S   UNL     1       1.852 -10.262  -3.538  0.00  0.00    -0.029 S 
ATOM     25  O   UNL     1       2.661 -11.020  -2.649  0.00  0.00    -0.174 OA
ATOM     26  O   UNL     1       1.952 -10.487  -4.938  0.00  0.00    -0.174 OA
ATOM     27  C   UNL     1       2.104  -8.473  -3.200  0.00  0.00    +0.188 C 
ENDBRANCH   9  21
BRANCH  10  28
ATOM     28  C   UNL     1      -0.884  -5.811  -1.105  0.00  0.00    -0.019 A 
ATOM     29  C   UNL     1      -2.055  -6.326  -1.632  0.00  0.00    +0.006 A 
ATOM     30  C   UNL     1      -3.136  -6.574  -0.807  0.00  0.00    +0.004 A 
ATOM     31  C   UNL     1      -3.050  -6.309   0.546  0.00  0.00    +0.045 A 
ATOM     32  C   UNL     1      -1.877  -5.793   1.077  0.00  0.00    +0.117 A 
ATOM     33  C   UNL     1      -0.791  -5.550   0.248  0.00  0.00    +0.051 A 
BRANCH  32  34
ATOM     34  O   UNL     1      -1.789  -5.530   2.408  0.00  0.00    -0.507 OA
ATOM     35  H   UNL     1      -1.467  -6.274   2.935  0.00  0.00    +0.292 HD
ENDBRANCH  32  34
ENDBRANCH  10  28
TORSDOF 5
