REMARK  Name = ZINC09123832
REMARK  16 active torsions:
REMARK  status: ('A' for Active; 'I' for Inactive)
REMARK    1  A    between atoms: C_1  and  C_2
REMARK    2  A    between atoms: C_2  and  O_3
REMARK    3  A    between atoms: O_3  and  C_4
REMARK    4  A    between atoms: C_7  and  C_13
REMARK    5  A    between atoms: C_9  and  O_10
REMARK    6  A    between atoms: O_10  and  C_11
REMARK    7  A    between atoms: C_11  and  C_12
REMARK    8  A    between atoms: C_15  and  C_25
REMARK    9  A    between atoms: C_16  and  O_24
REMARK   10  A    between atoms: N_19  and  C_20
REMARK   11  A    between atoms: C_20  and  C_21
REMARK   12  A    between atoms: C_21  and  N_70
REMARK   13  A    between atoms: C_22  and  N_70
REMARK   14  A    between atoms: C_23  and  N_70
REMARK   15  A    between atoms: C_25  and  C_27
REMARK   16  A    between atoms: C_34  and  C_37
REMARK                            x       y       z     vdW  Elec       q    Type
REMARK                         _______ _______ _______ _____ _____    ______ ____
ROOT
ATOM      1  C   UNL     1      -0.211  -0.094   3.331  0.00  0.00    +0.144 C 
ATOM      2  C   UNL     1       1.030  -0.038   4.191  0.00  0.00    +0.071 C 
ATOM      3  C   UNL     1       1.663   1.119   3.889  0.00  0.00    +0.188 C 
ATOM      4  C   UNL     1       0.893   1.837   2.851  0.00  0.00    +0.282 C 
ATOM      5  O   UNL     1       1.203   2.909   2.369  0.00  0.00    -0.267 OA
ATOM      6  N   UNL     1      -0.202   1.129   2.519  0.00  0.00    -0.285 N 
ENDROOT
BRANCH   1  10
ATOM      7  C   UNL     1      -3.710  -0.198   5.787  0.00  0.00    +0.162 A 
ATOM      8  C   UNL     1      -3.022   0.991   5.606  0.00  0.00    +0.050 A 
ATOM      9  C   UNL     1      -1.888   1.020   4.816  0.00  0.00    +0.009 A 
ATOM     10  C   UNL     1      -1.444  -0.133   4.196  0.00  0.00    -0.019 A 
ATOM     11  C   UNL     1      -2.126  -1.323   4.373  0.00  0.00    +0.055 A 
ATOM     12  C   UNL     1      -3.260  -1.360   5.168  0.00  0.00    +0.162 A 
BRANCH   7  13
ATOM     13  O   UNL     1      -4.822  -0.230   6.569  0.00  0.00    -0.489 OA
BRANCH  13  15
ATOM     14  C   UNL     1      -6.486   0.769   8.009  0.00  0.00    +0.048 C 
ATOM     15  C   UNL     1      -5.226   1.000   7.173  0.00  0.00    +0.226 C 
ENDBRANCH  13  15
ENDBRANCH   7  13
BRANCH  12  16
ATOM     16  O   UNL     1      -3.931  -2.530   5.343  0.00  0.00    -0.489 OA
BRANCH  16  17
ATOM     17  C   UNL     1      -3.349  -3.704   4.772  0.00  0.00    +0.226 C 
ATOM     18  C   UNL     1      -4.177  -4.928   5.168  0.00  0.00    +0.048 C 
ENDBRANCH  16  17
ENDBRANCH  12  16
ENDBRANCH   1  10
BRANCH   3  19
ATOM     19  O   UNL     1       2.817   1.550   4.447  0.00  0.00    -0.502 OA
ATOM     20  H   UNL     1       3.071   2.432   4.049  0.00  0.00    +0.292 HD
ENDBRANCH   3  19
BRANCH   2  21
ATOM     21  C   UNL     1       1.461  -1.041   5.170  0.00  0.00    +0.195 C 
ATOM     22  O   UNL     1       1.481  -0.766   6.355  0.00  0.00    -0.287 OA
BRANCH  21  23
ATOM     23  C   UNL     1       1.872  -2.385   4.717  0.00  0.00    +0.023 A 
ATOM     24  C   UNL     1       1.919  -2.685   3.352  0.00  0.00    +0.015 A 
ATOM     25  C   UNL     1       2.304  -3.936   2.933  0.00  0.00    +0.046 A 
ATOM     26  C   UNL     1       2.640  -4.922   3.863  0.00  0.00    +0.124 A 
ATOM     27  C   UNL     1       2.592  -4.617   5.220  0.00  0.00    -0.002 A 
ATOM     28  C   UNL     1       2.213  -3.369   5.651  0.00  0.00    +0.019 A 
ATOM     29  C   UNL     1       3.021  -5.863   5.970  0.00  0.00    +0.083 C 
ATOM     30  C   UNL     1       3.674  -6.702   4.846  0.00  0.00    +0.175 C 
ATOM     31  O   UNL     1       3.024  -6.210   3.662  0.00  0.00    -0.488 OA
ATOM     32  C   UNL     1       3.385  -8.192   5.044  0.00  0.00    +0.052 C 
ENDBRANCH  21  23
ENDBRANCH   2  21
BRANCH   6  33
ATOM     33  C   UNL     1      -1.210   1.514   1.528  0.00  0.00    +0.090 C 
BRANCH  33  34
ATOM     34  C   UNL     1      -0.811   0.968   0.156  0.00  0.00    -0.060 C 
BRANCH  34  37
ATOM     35  C   UNL     1      -1.839   2.809  -1.032  0.00  0.00    -0.097 C 
ATOM     36  C   UNL     1      -1.601   0.655  -2.111  0.00  0.00    -0.097 C 
ATOM     37  N   UNL     1      -1.847   1.346  -0.827  0.00  0.00    +0.377 N 
ATOM     38  H   UNL     1      -2.767   1.064  -0.468  0.00  0.00    -0.083 HD
ENDBRANCH  34  37
ENDBRANCH  33  34
ENDBRANCH   6  33
TORSDOF 11
