REMARK  Name = ZINC15675776
REMARK  6 active torsions:
REMARK  status: ('A' for Active; 'I' for Inactive)
REMARK    1  A    between atoms: C_1  and  C_2
REMARK    2  A    between atoms: C_2  and  C_3
REMARK    3  A    between atoms: C_2  and  N_4
REMARK    4  A    between atoms: C_16  and  C_18
REMARK    5  A    between atoms: C_20  and  C_23
REMARK    6  A    between atoms: C_26  and  C_29
REMARK                            x       y       z     vdW  Elec       q    Type
REMARK                         _______ _______ _______ _____ _____    ______ ____
ROOT
ATOM      1  N   UNL     1      -1.373  -0.510   0.011  0.00  0.00    -0.297 N 
ATOM      2  C   UNL     1      -1.643  -1.734  -0.485  0.00  0.00    +0.303 C 
ATOM      3  O   UNL     1      -0.765  -2.380  -1.023  0.00  0.00    -0.253 OA
ATOM      4  N   UNL     1      -2.888  -2.242  -0.385  0.00  0.00    -0.268 N 
ATOM      5  C   UNL     1      -3.992  -1.432   0.161  0.00  0.00    +0.165 C 
ATOM      6  C   UNL     1      -4.765  -2.312   1.115  0.00  0.00    +0.054 A 
ATOM      7  C   UNL     1      -4.590  -3.647   1.212  0.00  0.00    +0.040 A 
ATOM      8  N   UNL     1      -5.456  -4.093   2.164  0.00  0.00    -0.349 N 
ATOM      9  H   UNL     1      -5.567  -5.010   2.458  0.00  0.00    +0.166 HD
ATOM     10  C   UNL     1      -6.132  -3.014   2.622  0.00  0.00    +0.171 A 
ATOM     11  N   UNL     1      -5.709  -1.952   1.986  0.00  0.00    -0.348 N 
ATOM     12  C   UNL     1      -3.604  -4.447   0.402  0.00  0.00    +0.087 C 
ATOM     13  C   UNL     1      -3.178  -3.616  -0.822  0.00  0.00    +0.172 C 
ATOM     14  H   UNL     1      -2.088   0.035   0.373  0.00  0.00    +0.150 HD
ATOM     15  H   UNL     1      -6.031  -1.047   2.127  0.00  0.00    +0.166 HD
ENDROOT
BRANCH  13  16
ATOM     16  C   UNL     1      -4.293  -3.597  -1.835  0.00  0.00    +0.249 A 
ATOM     17  N   UNL     1      -4.318  -4.266  -2.952  0.00  0.00    -0.190 NA
ATOM     18  C   UNL     1      -5.462  -4.016  -3.614  0.00  0.00    +0.202 A 
ATOM     19  N   UNL     1      -6.177  -3.175  -2.909  0.00  0.00    -0.056 NA
ATOM     20  O   UNL     1      -5.428  -2.893  -1.737  0.00  0.00    -0.336 OA
BRANCH  18  21
ATOM     21  C   UNL     1      -5.848  -4.596  -4.925  0.00  0.00    +0.022 A 
ATOM     22  C   UNL     1      -4.996  -5.487  -5.573  0.00  0.00    +0.012 A 
ATOM     23  C   UNL     1      -5.361  -6.023  -6.792  0.00  0.00    +0.013 A 
ATOM     24  C   UNL     1      -6.569  -5.677  -7.369  0.00  0.00    +0.055 A 
ATOM     25  C   UNL     1      -7.418  -4.792  -6.729  0.00  0.00    +0.013 A 
ATOM     26  C   UNL     1      -7.067  -4.255  -5.508  0.00  0.00    +0.012 A 
BRANCH  24  27
ATOM     27  C   UNL     1      -6.961  -6.264  -8.700  0.00  0.00    +0.417 C 
ATOM     28  F   UNL     1      -7.667  -7.455  -8.495  0.00  0.00    -0.166 F 
ATOM     29  F   UNL     1      -7.770  -5.356  -9.391  0.00  0.00    -0.166 F 
ATOM     30  F   UNL     1      -5.810  -6.528  -9.451  0.00  0.00    -0.166 F 
ENDBRANCH  24  27
ENDBRANCH  18  21
ENDBRANCH  13  16
BRANCH   1  32
ATOM     31  C   UNL     1      -0.018   1.526   0.009  0.00  0.00    +0.027 C 
ATOM     32  C   UNL     1       0.002  -0.004   0.003  0.00  0.00    +0.068 C 
ATOM     33  C   UNL     1       0.739  -0.509   1.245  0.00  0.00    +0.027 C 
ENDBRANCH   1  32
TORSDOF 4
