REMARK  Name = ZINC54581549
REMARK  9 active torsions:
REMARK  status: ('A' for Active; 'I' for Inactive)
REMARK    1  A    between atoms: C_1  and  C_2
REMARK    2  A    between atoms: C_3  and  N_9
REMARK    3  A    between atoms: N_9  and  N_10
REMARK    4  A    between atoms: N_13  and  C_14
REMARK    5  A    between atoms: C_14  and  C_16
REMARK    6  A    between atoms: C_14  and  C_17
REMARK    7  A    between atoms: C_20  and  S_23
REMARK    8  A    between atoms: S_23  and  N_26
REMARK    9  A    between atoms: N_26  and  C_27
REMARK                            x       y       z     vdW  Elec       q    Type
REMARK                         _______ _______ _______ _____ _____    ______ ____
ROOT
ATOM      1  N   UNL     1      -0.006  -0.687  -3.627  0.00  0.00    -0.220 N 
ATOM      2  C   UNL     1      -0.021  -0.009  -4.792  0.00  0.00    +0.316 C 
ATOM      3  O   UNL     1      -0.018  -0.613  -5.847  0.00  0.00    -0.251 OA
ATOM      4  N   UNL     1      -0.040   1.339  -4.787  0.00  0.00    -0.292 N 
ATOM      5  H   UNL     1       0.007  -1.657  -3.631  0.00  0.00    +0.174 HD
ATOM      6  H   UNL     1      -0.043   1.821  -3.945  0.00  0.00    +0.151 HD
ENDROOT
BRANCH   1   7
ATOM      7  N   UNL     1      -0.010   0.010  -2.411  0.00  0.00    -0.263 N 
ATOM      8  H   UNL     1      -0.023   0.980  -2.408  0.00  0.00    +0.170 HD
BRANCH   7  11
ATOM      9  C   UNL     1      -0.018   1.503   0.010  0.00  0.00    +0.047 C 
ATOM     10  C   UNL     1       0.002  -0.004   0.002  0.00  0.00    -0.010 A 
ATOM     11  C   UNL     1       0.006  -0.693  -1.204  0.00  0.00    +0.049 A 
ATOM     12  C   UNL     1       0.025  -2.082  -1.208  0.00  0.00    +0.025 A 
ATOM     13  C   UNL     1       0.040  -2.774  -0.012  0.00  0.00    +0.003 A 
ATOM     14  C   UNL     1       0.035  -2.087   1.187  0.00  0.00    +0.020 A 
ATOM     15  C   UNL     1       0.023  -0.702   1.194  0.00  0.00    +0.046 A 
ATOM     16 CL   UNL     1       0.026   0.157   2.703  0.00  0.00    -0.083 Cl
ENDBRANCH   7  11
ENDBRANCH   1   7
BRANCH   4  17
ATOM     17  C   UNL     1      -0.056   2.076  -6.053  0.00  0.00    +0.102 C 
ATOM     18  C   UNL     1      -1.498   2.204  -6.550  0.00  0.00    +0.033 C 
BRANCH  17  19
ATOM     19  C   UNL     1       0.526   3.450  -5.842  0.00  0.00    -0.027 A 
ATOM     20  C   UNL     1       0.234   4.155  -4.690  0.00  0.00    +0.007 A 
ATOM     21  C   UNL     1       0.768   5.415  -4.497  0.00  0.00    +0.029 A 
ATOM     22  C   UNL     1       1.595   5.970  -5.456  0.00  0.00    +0.105 A 
ATOM     23  C   UNL     1       1.888   5.264  -6.607  0.00  0.00    +0.029 A 
ATOM     24  C   UNL     1       1.357   4.002  -6.799  0.00  0.00    +0.007 A 
BRANCH  22  25
ATOM     25  S   UNL     1       2.275   7.577  -5.210  0.00  0.00    +0.058 S 
ATOM     26  O   UNL     1       2.577   8.091  -6.499  0.00  0.00    -0.153 OA
ATOM     27  O   UNL     1       1.411   8.249  -4.304  0.00  0.00    -0.153 OA
BRANCH  25  28
ATOM     28  N   UNL     1       3.722   7.381  -4.427  0.00  0.00    -0.193 NA
ATOM     29  C   UNL     1       4.828   6.691  -5.095  0.00  0.00    +0.127 C 
ATOM     30  H   UNL     1       3.836   7.724  -3.527  0.00  0.00    +0.148 HD
ENDBRANCH  25  28
ENDBRANCH  22  25
ENDBRANCH  17  19
ENDBRANCH   4  17
TORSDOF 6
