REMARK  Name = ZINC14544157
REMARK  9 active torsions:
REMARK  status: ('A' for Active; 'I' for Inactive)
REMARK    1  A    between atoms: C_1  and  C_2
REMARK    2  A    between atoms: C_2  and  C_3
REMARK    3  A    between atoms: C_2  and  C_4
REMARK    4  A    between atoms: C_2  and  N_5
REMARK    5  A    between atoms: N_5  and  S_6
REMARK    6  A    between atoms: S_6  and  C_9
REMARK    7  A    between atoms: C_22  and  C_25
REMARK    8  A    between atoms: C_34  and  O_35
REMARK    9  A    between atoms: O_35  and  C_36
REMARK                            x       y       z     vdW  Elec       q    Type
REMARK                         _______ _______ _______ _____ _____    ______ ____
ROOT
ATOM      1  C   UNL     1       6.955   7.001   0.982  0.00  0.00    +0.106 A 
ATOM      2  C   UNL     1       7.038   6.820  -0.387  0.00  0.00    +0.030 A 
ATOM      3  C   UNL     1       5.893   6.819  -1.156  0.00  0.00    +0.025 A 
ATOM      4  C   UNL     1       4.649   7.000  -0.564  0.00  0.00    +0.031 A 
ATOM      5  C   UNL     1       4.572   7.171   0.823  0.00  0.00    -0.018 A 
ATOM      6  C   UNL     1       5.722   7.176   1.582  0.00  0.00    +0.034 A 
ATOM      7  C   UNL     1       3.228   7.338   1.417  0.00  0.00    +0.049 C 
ATOM      8  C   UNL     1       3.019   8.062   2.697  0.00  0.00    -0.023 C 
ATOM      9  C   UNL     1       1.825   8.641   2.666  0.00  0.00    -0.030 C 
ATOM     10  C   UNL     1       1.146   8.369   1.323  0.00  0.00    +0.033 C 
ATOM     11  C   UNL     1       2.355   8.141   0.406  0.00  0.00    +0.029 C 
ATOM     12  C   UNL     1       2.159   7.217  -0.782  0.00  0.00    +0.109 C 
ATOM     13  N   UNL     1       3.504   7.031  -1.369  0.00  0.00    -0.336 N 
ATOM     14  H   UNL     1       3.595   6.929  -2.329  0.00  0.00    +0.147 HD
ENDROOT
BRANCH  12  15
ATOM     15  C   UNL     1       1.603   5.892  -0.326  0.00  0.00    +0.022 A 
ATOM     16  C   UNL     1       0.217   5.725  -0.168  0.00  0.00    -0.009 A 
ATOM     17  C   UNL     1      -0.678   6.777  -0.429  0.00  0.00    +0.009 A 
ATOM     18  C   UNL     1      -2.015   6.579  -0.266  0.00  0.00    +0.001 A 
ATOM     19  C   UNL     1      -2.512   5.345   0.151  0.00  0.00    +0.001 A 
ATOM     20  C   UNL     1      -1.674   4.306   0.418  0.00  0.00    +0.008 A 
ATOM     21  C   UNL     1      -0.288   4.472   0.262  0.00  0.00    -0.017 A 
ATOM     22  C   UNL     1       0.607   3.419   0.522  0.00  0.00    +0.012 A 
ATOM     23  C   UNL     1       1.943   3.613   0.360  0.00  0.00    +0.046 A 
ATOM     24  C   UNL     1       2.443   4.848  -0.064  0.00  0.00    +0.126 A 
BRANCH  24  25
ATOM     25  O   UNL     1       3.784   5.011  -0.217  0.00  0.00    -0.495 OA
ATOM     26  C   UNL     1       4.612   3.883   0.072  0.00  0.00    +0.277 C 
ENDBRANCH  24  25
ENDBRANCH  12  15
BRANCH   1  27
ATOM     27  S   UNL     1       8.421   7.010   1.960  0.00  0.00    +0.059 S 
ATOM     28  O   UNL     1       8.095   6.368   3.185  0.00  0.00    -0.153 OA
ATOM     29  O   UNL     1       9.473   6.556   1.119  0.00  0.00    -0.153 OA
BRANCH  27  30
ATOM     30  N   UNL     1       8.756   8.589   2.327  0.00  0.00    -0.185 NA
ATOM     31  H   UNL     1       8.700   8.896   3.245  0.00  0.00    +0.149 HD
BRANCH  30  33
ATOM     32  C   UNL     1       8.092   9.478   0.147  0.00  0.00    +0.029 C 
ATOM     33  C   UNL     1       9.136   9.523   1.264  0.00  0.00    +0.032 C 
ATOM     34  C   UNL     1       9.211  10.941   1.835  0.00  0.00    +0.029 C 
ATOM     35  C   UNL     1      10.503   9.127   0.702  0.00  0.00    +0.029 C 
ENDBRANCH  30  33
ENDBRANCH  27  30
ENDBRANCH   1  27
TORSDOF 5
