REMARK  Name = ZINC08965643
REMARK  9 active torsions:
REMARK  status: ('A' for Active; 'I' for Inactive)
REMARK    1  A    between atoms: C_1  and  C_2
REMARK    2  A    between atoms: C_2  and  C_4
REMARK    3  A    between atoms: C_4  and  C_6
REMARK    4  A    between atoms: C_4  and  N_13
REMARK    5  A    between atoms: C_6  and  C_7
REMARK    6  A    between atoms: C_14  and  C_16
REMARK    7  A    between atoms: C_16  and  N_63
REMARK    8  A    between atoms: N_19  and  C_22
REMARK    9  A    between atoms: N_25  and  C_30
REMARK                            x       y       z     vdW  Elec       q    Type
REMARK                         _______ _______ _______ _____ _____    ______ ____
ROOT
ATOM      1  C   UNL     1      -3.861   2.448   6.107  0.00  0.00    -0.059 C 
ATOM      2  C   UNL     1      -3.595   2.271   7.604  0.00  0.00    +0.086 C 
ATOM      3  N   UNL     1      -4.090   3.449   8.330  0.00  0.00    -0.331 N 
ATOM      4  C   UNL     1      -3.425   4.671   7.858  0.00  0.00    +0.086 C 
ATOM      5  C   UNL     1      -3.691   4.849   6.362  0.00  0.00    -0.059 C 
ATOM      6  N   UNL     1      -3.169   3.668   5.642  0.00  0.00    +0.387 N 
ATOM      7  H   UNL     1      -2.164   3.577   5.835  0.00  0.00    -0.081 HD
ENDROOT
BRANCH   3   8
ATOM      8  C   UNL     1      -3.930   3.292   9.697  0.00  0.00    +0.074 A 
ATOM      9  C   UNL     1      -2.640   3.167  10.253  0.00  0.00    +0.158 A 
ATOM     10  N   UNL     1      -2.487   3.026  11.541  0.00  0.00    -0.170 NA
ATOM     11  N   UNL     1      -3.592   2.982  12.397  0.00  0.00    -0.195 N 
ATOM     12  C   UNL     1      -4.843   3.093  11.908  0.00  0.00    +0.292 A 
ATOM     13  O   UNL     1      -5.804   3.054  12.662  0.00  0.00    -0.264 OA
ATOM     14  C   UNL     1      -5.035   3.252  10.528  0.00  0.00    +0.129 A 
ATOM     15 CL   UNL     1      -6.636   3.396   9.873  0.00  0.00    -0.076 Cl
BRANCH  11  16
ATOM     16  C   UNL     1      -3.397   2.824  13.774  0.00  0.00    +0.069 A 
ATOM     17  C   UNL     1      -4.045   3.665  14.670  0.00  0.00    +0.028 A 
ATOM     18  C   UNL     1      -3.855   3.502  16.028  0.00  0.00    +0.002 A 
ATOM     19  C   UNL     1      -3.012   2.511  16.496  0.00  0.00    +0.000 A 
ATOM     20  C   UNL     1      -2.361   1.676  15.606  0.00  0.00    +0.002 A 
ATOM     21  C   UNL     1      -2.551   1.829  14.247  0.00  0.00    +0.028 A 
ENDBRANCH  11  16
ENDBRANCH   3   8
BRANCH   6  22
ATOM     22  C   UNL     1      -3.365   3.837   4.186  0.00  0.00    +0.019 C 
BRANCH  22  24
ATOM     23  N   UNL     1      -2.648   2.683   2.119  0.00  0.00    -0.307 N 
ATOM     24  C   UNL     1      -2.632   2.734   3.466  0.00  0.00    +0.197 C 
ATOM     25  O   UNL     1      -2.029   1.893   4.098  0.00  0.00    -0.278 OA
ATOM     26  H   UNL     1      -3.130   3.356   1.613  0.00  0.00    +0.149 HD
BRANCH  23  27
ATOM     27  C   UNL     1      -1.936   1.611   1.419  0.00  0.00    +0.143 C 
BRANCH  27  29
ATOM     28  C   UNL     1      -2.213  -0.962   1.080  0.00  0.00    +0.088 C 
ATOM     29  C   UNL     1      -2.820   0.394   1.331  0.00  0.00    +0.151 C 
ATOM     30  O   UNL     1      -4.016   0.506   1.462  0.00  0.00    -0.296 OA
ENDBRANCH  27  29
BRANCH  27  31
ATOM     31  C   UNL     1      -1.570   2.078   0.008  0.00  0.00    +0.065 C 
BRANCH  31  32
ATOM     32  C   UNL     1      -0.589   3.218   0.095  0.00  0.00    -0.045 A 
ATOM     33  C   UNL     1       0.770   2.961   0.112  0.00  0.00    +0.004 A 
ATOM     34  C   UNL     1       1.670   4.007   0.186  0.00  0.00    +0.000 A 
ATOM     35  C   UNL     1       1.213   5.310   0.249  0.00  0.00    +0.000 A 
ATOM     36  C   UNL     1      -0.145   5.567   0.238  0.00  0.00    +0.000 A 
ATOM     37  C   UNL     1      -1.046   4.521   0.163  0.00  0.00    +0.004 A 
ENDBRANCH  31  32
ENDBRANCH  27  31
ENDBRANCH  23  27
ENDBRANCH  22  24
ENDBRANCH   6  22
TORSDOF 8
