REMARK  Name = ZINC39666548
REMARK  12 active torsions:
REMARK  status: ('A' for Active; 'I' for Inactive)
REMARK    1  A    between atoms: C_1  and  C_2
REMARK    2  A    between atoms: C_2  and  C_3
REMARK    3  A    between atoms: C_3  and  C_4
REMARK    4  A    between atoms: C_4  and  C_5
REMARK    5  A    between atoms: C_5  and  C_6
REMARK    6  A    between atoms: C_6  and  C_7
REMARK    7  A    between atoms: C_11  and  C_20
REMARK    8  A    between atoms: N_22  and  C_23
REMARK    9  A    between atoms: C_23  and  C_24
REMARK   10  A    between atoms: C_24  and  C_26
REMARK   11  A    between atoms: C_24  and  O_27
REMARK   12  A    between atoms: O_27  and  C_28
REMARK                            x       y       z     vdW  Elec       q    Type
REMARK                         _______ _______ _______ _____ _____    ______ ____
ROOT
ATOM      1  C   UNL     1       1.153  -4.279  -1.983  0.00  0.00    +0.216 C 
ATOM      2  O   UNL     1       1.710  -3.356  -2.539  0.00  0.00    -0.276 OA
ATOM      3  N   UNL     1       1.497  -5.548  -2.276  0.00  0.00    -0.300 N 
ATOM      4  C   UNL     1       0.932  -6.796  -1.712  0.00  0.00    +0.121 C 
ATOM      5  C   UNL     1       0.849  -7.765  -2.912  0.00  0.00    +0.100 C 
ATOM      6  C   UNL     1       1.898  -7.246  -3.909  0.00  0.00    -0.004 C 
ATOM      7  C   UNL     1       2.522  -6.012  -3.243  0.00  0.00    +0.115 C 
ATOM      8  C   UNL     1       1.229  -6.848  -5.221  0.00  0.00    -0.010 C 
ATOM      9  C   UNL     1       2.299  -6.389  -6.216  0.00  0.00    -0.082 C 
ATOM     10  N   UNL     1       3.258  -7.478  -6.442  0.00  0.00    +0.379 N 
ATOM     11  C   UNL     1       3.964  -7.792  -5.194  0.00  0.00    -0.082 C 
ATOM     12  C   UNL     1       2.964  -8.310  -4.157  0.00  0.00    -0.010 C 
ATOM     13  H   UNL     1       2.765  -8.297  -6.763  0.00  0.00    -0.086 HD
ATOM     14  H   UNL     1       3.926  -7.195  -7.143  0.00  0.00    -0.086 HD
ENDROOT
BRANCH   5  15
ATOM     15  C   UNL     1      -0.527  -7.723  -3.526  0.00  0.00    +0.218 C 
ATOM     16  O   UNL     1      -1.187  -6.707  -3.467  0.00  0.00    -0.275 OA
ATOM     17  N   UNL     1      -1.025  -8.815  -4.140  0.00  0.00    -0.312 N 
ATOM     18  H   UNL     1      -0.497  -9.628  -4.187  0.00  0.00    +0.149 HD
BRANCH  17  19
ATOM     19  C   UNL     1      -2.362  -8.774  -4.736  0.00  0.00    +0.148 C 
BRANCH  19  20
ATOM     20  C   UNL     1      -2.683 -10.132  -5.364  0.00  0.00    +0.187 C 
ATOM     21  C   UNL     1      -4.025 -10.053  -6.094  0.00  0.00    +0.053 C 
BRANCH  20  22
ATOM     22  O   UNL     1      -2.756 -11.125  -4.339  0.00  0.00    -0.486 OA
BRANCH  22  23
ATOM     23  C   UNL     1      -2.509 -12.410  -4.706  0.00  0.00    +0.139 A 
ATOM     24  C   UNL     1      -2.311 -12.725  -6.043  0.00  0.00    +0.047 A 
ATOM     25  C   UNL     1      -2.059 -14.032  -6.413  0.00  0.00    +0.004 A 
ATOM     26  C   UNL     1      -2.006 -15.027  -5.454  0.00  0.00    +0.002 A 
ATOM     27  C   UNL     1      -2.204 -14.716  -4.122  0.00  0.00    +0.023 A 
ATOM     28  C   UNL     1      -2.450 -13.409  -3.744  0.00  0.00    +0.083 A 
ATOM     29 CL   UNL     1      -2.691 -13.019  -2.070  0.00  0.00    -0.080 Cl
ENDBRANCH  22  23
ENDBRANCH  20  22
ENDBRANCH  19  20
ENDBRANCH  17  19
ENDBRANCH   5  15
BRANCH   1  30
ATOM     30  C   UNL     1       0.078  -4.006  -0.963  0.00  0.00    +0.096 C 
BRANCH  30  31
ATOM     31  C   UNL     1      -0.117  -2.495  -0.818  0.00  0.00    +0.009 C 
BRANCH  31  32
ATOM     32  C   UNL     1      -1.208  -2.219   0.217  0.00  0.00    +0.000 C 
BRANCH  32  33
ATOM     33  C   UNL     1      -1.403  -0.708   0.362  0.00  0.00    -0.000 C 
BRANCH  33  35
ATOM     34  C   UNL     1      -2.690   1.079   1.542  0.00  0.00    +0.004 C 
ATOM     35  C   UNL     1      -2.495  -0.431   1.397  0.00  0.00    -0.003 C 
ENDBRANCH  33  35
ENDBRANCH  32  33
ENDBRANCH  31  32
ENDBRANCH  30  31
ENDBRANCH   1  30
TORSDOF 10
