REMARK  Name = ZINC15016443
REMARK  8 active torsions:
REMARK  status: ('A' for Active; 'I' for Inactive)
REMARK    1  A    between atoms: C_4  and  C_7
REMARK    2  A    between atoms: C_8  and  C_9
REMARK    3  A    between atoms: C_10  and  C_11
REMARK    4  A    between atoms: C_10  and  N_27
REMARK    5  A    between atoms: C_11  and  N_13
REMARK    6  A    between atoms: N_14  and  C_15
REMARK    7  A    between atoms: C_24  and  O_25
REMARK    8  A    between atoms: C_28  and  C_30
REMARK                            x       y       z     vdW  Elec       q    Type
REMARK                         _______ _______ _______ _____ _____    ______ ____
ROOT
ATOM      1  C   UNL     1       5.103  -2.790  -0.092  0.00  0.00    +0.029 C 
ATOM      2  C   UNL     1       4.926  -4.141  -0.090  0.00  0.00    +0.100 C 
ENDROOT
BRANCH   2   3
ATOM      3  N   UNL     1       3.638  -4.676  -0.031  0.00  0.00    -0.277 N 
ATOM      4  C   UNL     1       3.465  -6.007   0.086  0.00  0.00    +0.248 C 
ATOM      5  O   UNL     1       4.428  -6.733   0.244  0.00  0.00    -0.270 OA
ATOM      6  H   UNL     1       2.867  -4.089  -0.075  0.00  0.00    +0.155 HD
BRANCH   4   7
ATOM      7  C   UNL     1       2.106  -6.585   0.022  0.00  0.00    +0.037 A 
ATOM      8  C   UNL     1       1.012  -5.770  -0.272  0.00  0.00    +0.013 A 
ATOM      9  C   UNL     1      -0.254  -6.316  -0.330  0.00  0.00    +0.001 A 
ATOM     10  C   UNL     1      -0.440  -7.667  -0.097  0.00  0.00    +0.000 A 
ATOM     11  C   UNL     1       0.641  -8.480   0.195  0.00  0.00    +0.001 A 
ATOM     12  C   UNL     1       1.913  -7.948   0.250  0.00  0.00    +0.013 A 
ENDBRANCH   4   7
ENDBRANCH   2   3
BRANCH   1  14
ATOM     13  C   UNL     1       4.163  -0.590  -0.037  0.00  0.00    +0.008 C 
ATOM     14  C   UNL     1       3.986  -1.932  -0.035  0.00  0.00    +0.003 C 
BRANCH  13  18
ATOM     15  C   UNL     1       0.803   1.991   0.133  0.00  0.00    +0.000 A 
ATOM     16  C   UNL     1       2.079   2.525   0.076  0.00  0.00    +0.001 A 
ATOM     17  C   UNL     1       3.176   1.693   0.021  0.00  0.00    +0.008 A 
ATOM     18  C   UNL     1       2.998   0.305   0.022  0.00  0.00    -0.025 A 
ATOM     19  C   UNL     1       1.705  -0.227   0.081  0.00  0.00    +0.008 A 
ATOM     20  C   UNL     1       0.618   0.619   0.135  0.00  0.00    +0.001 A 
ENDBRANCH  13  18
ENDBRANCH   1  14
BRANCH   2  21
ATOM     21  C   UNL     1       6.088  -5.034  -0.149  0.00  0.00    +0.299 C 
ATOM     22  O   UNL     1       6.660  -5.360   0.877  0.00  0.00    -0.265 OA
BRANCH  21  23
ATOM     23  N   UNL     1       6.524  -5.495  -1.338  0.00  0.00    -0.074 NA
ATOM     24  N   UNL     1       7.484  -6.355  -1.384  0.00  0.00    -0.151 NA
BRANCH  24  25
ATOM     25  C   UNL     1       7.850  -6.887  -2.556  0.00  0.00    +0.152 A 
ATOM     26  C   UNL     1       8.845  -7.957  -2.773  0.00  0.00    +0.033 A 
ATOM     27  C   UNL     1       9.659  -8.700  -1.922  0.00  0.00    +0.050 A 
ATOM     28  C   UNL     1      10.507  -9.654  -2.449  0.00  0.00    +0.124 A 
ATOM     29  C   UNL     1      10.548  -9.872  -3.819  0.00  0.00    +0.040 A 
ATOM     30  C   UNL     1       9.745  -9.141  -4.670  0.00  0.00    +0.029 A 
ATOM     31  C   UNL     1       8.886  -8.176  -4.158  0.00  0.00    +0.052 A 
ATOM     32  N   UNL     1       7.984  -7.309  -4.755  0.00  0.00    -0.324 N 
ATOM     33  H   UNL     1       7.817  -7.257  -5.710  0.00  0.00    +0.169 HD
ATOM     34  C   UNL     1       7.364  -6.548  -3.822  0.00  0.00    +0.219 A 
ATOM     35  F   UNL     1      11.300 -10.377  -1.628  0.00  0.00    -0.205 F 
BRANCH  34  36
ATOM     36  O   UNL     1       6.428  -5.609  -4.074  0.00  0.00    -0.492 OA
ATOM     37  H   UNL     1       6.791  -4.742  -4.303  0.00  0.00    +0.294 HD
ENDBRANCH  34  36
ENDBRANCH  24  25
ENDBRANCH  21  23
ENDBRANCH   2  21
TORSDOF 8
