REMARK  Name = ZINC11664074
REMARK  17 active torsions:
REMARK  status: ('A' for Active; 'I' for Inactive)
REMARK    1  A    between atoms: C_1  and  C_2
REMARK    2  A    between atoms: C_2  and  C_3
REMARK    3  A    between atoms: C_2  and  N_64
REMARK    4  A    between atoms: C_4  and  N_64
REMARK    5  A    between atoms: C_5  and  C_6
REMARK    6  A    between atoms: C_5  and  N_64
REMARK    7  A    between atoms: C_6  and  C_8
REMARK    8  A    between atoms: C_6  and  O_32
REMARK    9  A    between atoms: C_8  and  O_9
REMARK   10  A    between atoms: O_9  and  C_10
REMARK   11  A    between atoms: C_12  and  C_18
REMARK   12  A    between atoms: C_15  and  O_16
REMARK   13  A    between atoms: O_16  and  C_17
REMARK   14  A    between atoms: C_18  and  N_66
REMARK   15  A    between atoms: C_19  and  C_20
REMARK   16  A    between atoms: C_19  and  N_66
REMARK   17  A    between atoms: C_25  and  C_26
REMARK                            x       y       z     vdW  Elec       q    Type
REMARK                         _______ _______ _______ _____ _____    ______ ____
ROOT
ATOM      1  C   UNL     1       5.734   1.025   5.896  0.00  0.00    +0.162 A 
ATOM      2  C   UNL     1       5.573   0.751   4.547  0.00  0.00    +0.051 A 
ATOM      3  C   UNL     1       5.325   1.780   3.657  0.00  0.00    -0.061 A 
ATOM      4  C   UNL     1       5.242   3.084   4.109  0.00  0.00    +0.005 A 
ATOM      5  C   UNL     1       5.395   3.363   5.455  0.00  0.00    +0.049 A 
ATOM      6  C   UNL     1       5.644   2.337   6.351  0.00  0.00    +0.162 A 
ENDROOT
BRANCH   6   7
ATOM      7  O   UNL     1       5.802   2.611   7.674  0.00  0.00    -0.491 OA
ATOM      8  C   UNL     1       5.697   3.980   8.070  0.00  0.00    +0.277 C 
ENDBRANCH   6   7
BRANCH   1   9
ATOM      9  O   UNL     1       5.978   0.014   6.772  0.00  0.00    -0.486 OA
BRANCH   9  10
ATOM     10  C   UNL     1       6.056  -1.307   6.233  0.00  0.00    +0.258 C 
BRANCH  10  11
ATOM     11  C   UNL     1       6.334  -2.303   7.361  0.00  0.00    +0.135 C 
BRANCH  11  12
ATOM     12  O   UNL     1       5.224  -2.326   8.260  0.00  0.00    -0.390 OA
ATOM     13  H   UNL     1       4.389  -2.588   7.848  0.00  0.00    +0.210 HD
ENDBRANCH  11  12
BRANCH  11  14
ATOM     14  C   UNL     1       6.542  -3.698   6.770  0.00  0.00    -0.044 C 
BRANCH  14  16
ATOM     15  C   UNL     1       8.088  -4.360   8.512  0.00  0.00    -0.096 C 
ATOM     16  N   UNL     1       6.788  -4.651   7.873  0.00  0.00    +0.381 N 
ATOM     17  H   UNL     1       6.043  -4.551   8.572  0.00  0.00    -0.082 HD
BRANCH  16  19
ATOM     18  C   UNL     1       7.995  -6.283   6.461  0.00  0.00    -0.014 C 
ATOM     19  C   UNL     1       6.778  -6.036   7.356  0.00  0.00    -0.075 C 
ATOM     20  C   UNL     1       6.810  -7.005   8.539  0.00  0.00    -0.014 C 
ENDBRANCH  16  19
ENDBRANCH  14  16
ENDBRANCH  11  14
ENDBRANCH  10  11
ENDBRANCH   9  10
ENDBRANCH   1   9
BRANCH   3  21
ATOM     21  C   UNL     1       5.151   1.480   2.191  0.00  0.00    -0.046 C 
BRANCH  21  22
ATOM     22  N   UNL     1       3.724   1.222   1.916  0.00  0.00    +0.384 N 
ATOM     23  H   UNL     1       3.175   2.052   2.170  0.00  0.00    -0.085 HD
ATOM     24  H   UNL     1       3.411   0.420   2.476  0.00  0.00    -0.085 HD
BRANCH  22  25
ATOM     25  C   UNL     1       3.524   0.925   0.485  0.00  0.00    -0.043 C 
BRANCH  25  26
ATOM     26  C   UNL     1       2.084   0.543   0.258  0.00  0.00    -0.019 A 
ATOM     27  C   UNL     1       1.139   1.312  -0.326  0.00  0.00    +0.107 A 
ATOM     28  N   UNL     1      -0.016   0.614  -0.342  0.00  0.00    -0.284 N 
ATOM     29  H   UNL     1      -0.888   0.931  -0.713  0.00  0.00    +0.188 HD
ATOM     30  N   UNL     1       0.220  -0.633   0.253  0.00  0.00    -0.174 NA
ATOM     31  C   UNL     1       1.484  -0.680   0.615  0.00  0.00    +0.094 A 
BRANCH  31  32
ATOM     32  C   UNL     1       2.159  -1.821   1.283  0.00  0.00    +0.002 A 
ATOM     33  C   UNL     1       3.433  -2.215   0.878  0.00  0.00    +0.010 A 
ATOM     34  C   UNL     1       4.057  -3.273   1.506  0.00  0.00    +0.001 A 
ATOM     35  C   UNL     1       3.417  -3.950   2.528  0.00  0.00    +0.000 A 
ATOM     36  C   UNL     1       2.150  -3.567   2.931  0.00  0.00    +0.001 A 
ATOM     37  C   UNL     1       1.518  -2.506   2.313  0.00  0.00    +0.010 A 
ENDBRANCH  31  32
ENDBRANCH  25  26
ENDBRANCH  22  25
ENDBRANCH  21  22
ENDBRANCH   3  21
TORSDOF 13
