REMARK  Name = ZINC65074868
REMARK  6 active torsions:
REMARK  status: ('A' for Active; 'I' for Inactive)
REMARK    1  A    between atoms: C_1  and  C_2
REMARK    2  A    between atoms: C_2  and  C_3
REMARK    3  A    between atoms: C_6  and  S_9
REMARK    4  A    between atoms: S_9  and  N_12
REMARK    5  A    between atoms: N_23  and  C_24
REMARK    6  A    between atoms: C_24  and  C_25
REMARK                            x       y       z     vdW  Elec       q    Type
REMARK                         _______ _______ _______ _____ _____    ______ ____
ROOT
ATOM      1  N   UNL     1       3.300  -0.612  -5.813  0.00  0.00    -0.176 NA
ATOM      2  C   UNL     1       2.412  -0.009  -6.817  0.00  0.00    +0.111 C 
ATOM      3  C   UNL     1       3.173   0.106  -8.142  0.00  0.00    +0.047 C 
ATOM      4  C   UNL     1       4.475   0.879  -7.913  0.00  0.00    +0.075 C 
ATOM      5  C   UNL     1       5.352   0.113  -6.918  0.00  0.00    +0.047 C 
ATOM      6  C   UNL     1       4.614   0.001  -5.575  0.00  0.00    +0.111 C 
ATOM      7  C   UNL     1       5.206   1.028  -9.217  0.00  0.00    +0.089 C 
ATOM      8  N   UNL     1       5.235   2.115  -9.891  0.00  0.00    -0.374 N 
ATOM      9  C   UNL     1       4.571   3.346  -9.475  0.00  0.00    +0.129 C 
ATOM     10  C   UNL     1       3.530   3.042  -8.396  0.00  0.00    +0.102 C 
ATOM     11  N   UNL     1       4.160   2.205  -7.361  0.00  0.00    -0.303 NA
ATOM     12  N   UNL     1       5.879  -0.058  -9.710  0.00  0.00    -0.329 N 
ATOM     13  H   UNL     1       3.567   2.127  -6.548  0.00  0.00    +0.123 HD
ATOM     14  H   UNL     1       5.874  -0.895  -9.220  0.00  0.00    +0.147 HD
ATOM     15  H   UNL     1       5.726   2.121 -10.727  0.00  0.00    +0.161 HD
ENDROOT
BRANCH   1  16
ATOM     16  S   UNL     1       2.826  -1.951  -4.962  0.00  0.00    +0.061 S 
ATOM     17  O   UNL     1       4.014  -2.596  -4.526  0.00  0.00    -0.153 OA
ATOM     18  O   UNL     1       1.847  -2.610  -5.754  0.00  0.00    -0.153 OA
BRANCH  16  22
ATOM     19  C   UNL     1       0.707  -0.490  -1.238  0.00  0.00    -0.048 A 
ATOM     20  C   UNL     1      -0.011  -0.719  -2.397  0.00  0.00    +0.005 A 
ATOM     21  C   UNL     1       0.636  -1.164  -3.534  0.00  0.00    +0.029 A 
ATOM     22  C   UNL     1       2.002  -1.381  -3.513  0.00  0.00    +0.105 A 
ATOM     23  C   UNL     1       2.720  -1.152  -2.354  0.00  0.00    +0.029 A 
ATOM     24  C   UNL     1       2.073  -0.702  -1.218  0.00  0.00    +0.005 A 
BRANCH  19  26
ATOM     25  C   UNL     1      -0.019   1.526   0.010  0.00  0.00    +0.009 C 
ATOM     26  C   UNL     1       0.002  -0.004   0.002  0.00  0.00    +0.032 C 
ENDBRANCH  19  26
ENDBRANCH  16  22
ENDBRANCH   1  16
BRANCH  12  27
ATOM     27  C   UNL     1       6.605   0.044 -10.979  0.00  0.00    +0.138 C 
BRANCH  27  28
ATOM     28  C   UNL     1       7.253  -1.280 -11.294  0.00  0.00    -0.029 A 
ATOM     29  C   UNL     1       8.532  -1.547 -10.843  0.00  0.00    +0.008 A 
ATOM     30  C   UNL     1       9.128  -2.760 -11.131  0.00  0.00    +0.040 A 
ATOM     31  C   UNL     1       8.444  -3.709 -11.872  0.00  0.00    +0.142 A 
ATOM     32  C   UNL     1       7.162  -3.440 -12.324  0.00  0.00    +0.076 A 
ATOM     33  C   UNL     1       6.566  -2.227 -12.030  0.00  0.00    +0.028 A 
ATOM     34 CL   UNL     1       6.302  -4.628 -13.253  0.00  0.00    -0.081 Cl
ATOM     35  F   UNL     1       9.026  -4.895 -12.155  0.00  0.00    -0.204 F 
ENDBRANCH  27  28
ENDBRANCH  12  27
TORSDOF 5
