REMARK  Name = ZINC44960172
REMARK  14 active torsions:
REMARK  status: ('A' for Active; 'I' for Inactive)
REMARK    1  A    between atoms: C_3  and  S_8
REMARK    2  A    between atoms: C_6  and  N_7
REMARK    3  A    between atoms: S_8  and  C_9
REMARK    4  A    between atoms: C_11  and  O_40
REMARK    5  A    between atoms: C_13  and  O_39
REMARK    6  A    between atoms: C_15  and  O_22
REMARK    7  A    between atoms: C_17  and  C_20
REMARK    8  A    between atoms: C_20  and  O_21
REMARK    9  A    between atoms: O_22  and  C_23
REMARK   10  A    between atoms: C_25  and  O_38
REMARK   11  A    between atoms: C_27  and  O_37
REMARK   12  A    between atoms: C_29  and  O_36
REMARK   13  A    between atoms: C_31  and  C_34
REMARK   14  A    between atoms: C_34  and  O_35
REMARK                            x       y       z     vdW  Elec       q    Type
REMARK                         _______ _______ _______ _____ _____    ______ ____
ROOT
ATOM      1  C   UNL     1       4.994   1.066   0.076  0.00  0.00    +0.212 C 
ATOM      2  C   UNL     1       5.961   0.547  -0.992  0.00  0.00    +0.185 C 
ATOM      3  C   UNL     1       6.755  -0.632  -0.421  0.00  0.00    +0.178 C 
ATOM      4  C   UNL     1       7.481  -0.177   0.848  0.00  0.00    +0.183 C 
ATOM      5  C   UNL     1       6.456   0.370   1.845  0.00  0.00    +0.176 C 
ATOM      6  O   UNL     1       5.731   1.443   1.241  0.00  0.00    -0.355 OA
ENDROOT
BRANCH   3   7
ATOM      7  O   UNL     1       7.710  -1.078  -1.387  0.00  0.00    -0.386 OA
ATOM      8  H   UNL     1       7.316  -1.409  -2.205  0.00  0.00    +0.210 HD
ENDBRANCH   3   7
BRANCH   2   9
ATOM      9  O   UNL     1       6.860   1.591  -1.371  0.00  0.00    -0.386 OA
ATOM     10  H   UNL     1       6.423   2.372  -1.737  0.00  0.00    +0.210 HD
ENDBRANCH   2   9
BRANCH   1  11
ATOM     11  S   UNL     1       4.100   2.507  -0.567  0.00  0.00    -0.091 S 
BRANCH  11  14
ATOM     12  C   UNL     1       1.160   4.261   1.543  0.00  0.00    +0.024 A 
ATOM     13  C   UNL     1       2.069   3.961   0.548  0.00  0.00    +0.016 A 
ATOM     14  C   UNL     1       2.940   2.890   0.703  0.00  0.00    +0.011 A 
ATOM     15  C   UNL     1       2.896   2.121   1.859  0.00  0.00    +0.016 A 
ATOM     16  C   UNL     1       1.987   2.421   2.853  0.00  0.00    +0.024 A 
ATOM     17  C   UNL     1       1.116   3.492   2.698  0.00  0.00    +0.025 A 
BRANCH  17  18
ATOM     18  N   UNL     1       0.194   3.796   3.707  0.00  0.00    -0.358 N 
ATOM     19  H   UNL     1      -0.414   4.544   3.599  0.00  0.00    +0.142 HD
ATOM     20  H   UNL     1       0.164   3.259   4.514  0.00  0.00    +0.142 HD
ENDBRANCH  17  18
ENDBRANCH  11  14
ENDBRANCH   1  11
BRANCH   5  21
ATOM     21  C   UNL     1       5.484  -0.744   2.240  0.00  0.00    +0.190 C 
BRANCH  21  22
ATOM     22  O   UNL     1       4.600  -0.266   3.256  0.00  0.00    -0.392 OA
ATOM     23  H   UNL     1       3.955  -0.921   3.556  0.00  0.00    +0.210 HD
ENDBRANCH  21  22
ENDBRANCH   5  21
BRANCH   4  24
ATOM     24  O   UNL     1       8.168  -1.287   1.429  0.00  0.00    -0.340 OA
BRANCH  24  25
ATOM     25  C   UNL     1       9.284  -0.919   2.243  0.00  0.00    +0.282 C 
ATOM     26  C   UNL     1       9.807  -2.154   2.981  0.00  0.00    +0.201 C 
ATOM     27  C   UNL     1      10.298  -3.182   1.957  0.00  0.00    +0.179 C 
ATOM     28  C   UNL     1      11.370  -2.536   1.075  0.00  0.00    +0.177 C 
ATOM     29  C   UNL     1      10.786  -1.286   0.410  0.00  0.00    +0.178 C 
ATOM     30  O   UNL     1      10.321  -0.385   1.417  0.00  0.00    -0.341 OA
BRANCH  28  31
ATOM     31  O   UNL     1      12.493  -2.170   1.878  0.00  0.00    -0.386 OA
ATOM     32  H   UNL     1      12.910  -2.914   2.333  0.00  0.00    +0.210 HD
ENDBRANCH  28  31
BRANCH  27  33
ATOM     33  O   UNL     1       9.202  -3.609   1.146  0.00  0.00    -0.386 OA
ATOM     34  H   UNL     1       8.482  -4.023   1.643  0.00  0.00    +0.210 HD
ENDBRANCH  27  33
BRANCH  26  35
ATOM     35  O   UNL     1      10.888  -1.777   3.837  0.00  0.00    -0.384 OA
ATOM     36  H   UNL     1      10.648  -1.123   4.508  0.00  0.00    +0.210 HD
ENDBRANCH  26  35
BRANCH  29  37
ATOM     37  C   UNL     1      11.869  -0.601  -0.427  0.00  0.00    +0.190 C 
BRANCH  37  38
ATOM     38  O   UNL     1      11.290   0.478  -1.163  0.00  0.00    -0.392 OA
ATOM     39  H   UNL     1      11.920   0.959  -1.717  0.00  0.00    +0.210 HD
ENDBRANCH  37  38
ENDBRANCH  29  37
ENDBRANCH  24  25
ENDBRANCH   4  24
TORSDOF 14
