REMARK  Name = ZINC24839856
REMARK  8 active torsions:
REMARK  status: ('A' for Active; 'I' for Inactive)
REMARK    1  A    between atoms: C_1  and  C_2
REMARK    2  A    between atoms: C_3  and  C_30
REMARK    3  A    between atoms: N_9  and  C_29
REMARK    4  A    between atoms: C_10  and  S_12
REMARK    5  A    between atoms: S_12  and  C_13
REMARK    6  A    between atoms: C_13  and  C_14
REMARK    7  A    between atoms: C_16  and  O_17
REMARK    8  A    between atoms: C_26  and  C_28
REMARK                            x       y       z     vdW  Elec       q    Type
REMARK                         _______ _______ _______ _____ _____    ______ ____
ROOT
ATOM      1  C   UNL     1      -0.286  -6.287  -0.968  0.00  0.00    -0.020 A 
ATOM      2  C   UNL     1      -0.279  -6.960  -2.147  0.00  0.00    +0.092 A 
ATOM      3  C   UNL     1      -0.200  -6.248  -3.361  0.00  0.00    +0.285 A 
ATOM      4  O   UNL     1      -0.132  -4.908  -3.389  0.00  0.00    -0.425 OA
ATOM      5  C   UNL     1      -0.136  -4.178  -2.253  0.00  0.00    +0.141 A 
ATOM      6  C   UNL     1      -0.211  -4.825  -1.005  0.00  0.00    +0.022 A 
ATOM      7  C   UNL     1      -0.215  -4.073   0.175  0.00  0.00    +0.013 A 
ATOM      8  C   UNL     1      -0.140  -2.712   0.112  0.00  0.00    +0.024 A 
ATOM      9  C   UNL     1      -0.071  -2.064  -1.121  0.00  0.00    +0.037 A 
ATOM     10  C   UNL     1      -0.065  -2.794  -2.300  0.00  0.00    +0.070 A 
ATOM     11  N   UNL     1       0.000  -0.672  -1.169  0.00  0.00    -0.286 N 
ATOM     12  C   UNL     1      -0.605  -0.000  -2.168  0.00  0.00    +0.214 C 
ATOM     13  O   UNL     1      -1.141  -0.609  -3.070  0.00  0.00    -0.276 OA
ATOM     14  C   UNL     1      -0.617   1.507  -2.165  0.00  0.00    +0.109 C 
ATOM     15  H   UNL     1       0.550  -0.122  -0.391  0.00  0.00    +0.155 HD
ENDROOT
BRANCH   3  16
ATOM     16  O   UNL     1      -0.194  -6.865  -4.412  0.00  0.00    -0.480 OA
ATOM     17  H   UNL     1      -0.133  -6.323  -5.367  0.00  0.00    +0.295 HD
ENDBRANCH   3  16
BRANCH   1  18
ATOM     18  C   UNL     1      -0.369  -7.024   0.344  0.00  0.00    +0.113 C 
BRANCH  18  19
ATOM     19  S   UNL     1       1.302  -7.404   0.929  0.00  0.00    -0.083 S 
BRANCH  19  29
ATOM     20  C   UNL     1       0.732 -10.795   6.982  0.00  0.00    +0.045 C 
ATOM     21  C   UNL     1      -0.207 -10.196   5.967  0.00  0.00    -0.026 A 
ATOM     22  C   UNL     1      -1.534 -10.259   6.151  0.00  0.00    -0.008 A 
ATOM     23  S   UNL     1      -2.190  -9.431   4.715  0.00  0.00    -0.073 S 
ATOM     24  C   UNL     1      -0.663  -9.024   3.910  0.00  0.00    +0.117 A 
ATOM     25  C   UNL     1       0.315  -9.543   4.779  0.00  0.00    +0.075 A 
ATOM     26  C   UNL     1       1.673  -9.354   4.372  0.00  0.00    +0.263 A 
ATOM     27  O   UNL     1       2.588  -9.770   5.062  0.00  0.00    -0.267 OA
ATOM     28  N   UNL     1       1.928  -8.712   3.217  0.00  0.00    -0.290 N 
ATOM     29  C   UNL     1       0.917  -8.239   2.432  0.00  0.00    +0.173 A 
ATOM     30  N   UNL     1      -0.343  -8.394   2.785  0.00  0.00    -0.216 NA
ATOM     31  C   UNL     1       3.317  -8.517   2.795  0.00  0.00    +0.154 C 
ATOM     32  C   UNL     1      -2.289 -10.882   7.296  0.00  0.00    +0.052 C 
ENDBRANCH  19  29
ENDBRANCH  18  19
ENDBRANCH   1  18
TORSDOF 4
