REMARK  Name = ZINC09727876
REMARK  5 active torsions:
REMARK  status: ('A' for Active; 'I' for Inactive)
REMARK    1  A    between atoms: C_6  and  C_7
REMARK    2  A    between atoms: C_17  and  C_19
REMARK    3  A    between atoms: C_26  and  C_28
REMARK    4  A    between atoms: C_28  and  N_66
REMARK    5  A    between atoms: C_31  and  C_34
REMARK                            x       y       z     vdW  Elec       q    Type
REMARK                         _______ _______ _______ _____ _____    ______ ____
ROOT
ATOM      1  C   UNL     1       3.066  -1.083   3.925  0.00  0.00    +0.013 C 
ATOM      2  C   UNL     1       1.951  -0.806   4.630  0.00  0.00    -0.024 C 
ATOM      3  C   UNL     1       1.865  -1.226   6.064  0.00  0.00    +0.037 C 
ATOM      4  C   UNL     1       0.499  -1.030   6.689  0.00  0.00    +0.005 C 
ATOM      5  C   UNL     1      -0.255   0.178   6.138  0.00  0.00    +0.012 C 
ATOM      6  C   UNL     1      -0.506  -0.054   4.647  0.00  0.00    +0.066 C 
ATOM      7  C   UNL     1       0.871  -0.143   3.999  0.00  0.00    +0.068 C 
ATOM      8  N   UNL     1       0.845   0.519   2.894  0.00  0.00    -0.181 NA
ATOM      9  N   UNL     1      -0.348   1.223   2.692  0.00  0.00    -0.186 N 
ATOM     10  C   UNL     1      -1.111   1.186   3.962  0.00  0.00    +0.140 C 
ATOM     11  C   UNL     1      -0.731   1.830   1.552  0.00  0.00    +0.219 C 
ATOM     12  O   UNL     1      -1.794   2.412   1.501  0.00  0.00    -0.276 OA
ENDROOT
BRANCH   1  18
ATOM     13  C   UNL     1       4.658  -1.093   5.837  0.00  0.00    +0.011 A 
ATOM     14  C   UNL     1       5.769  -1.605   6.472  0.00  0.00    +0.039 A 
ATOM     15  C   UNL     1       6.490  -2.637   5.891  0.00  0.00    +0.123 A 
ATOM     16  C   UNL     1       6.098  -3.162   4.669  0.00  0.00    +0.039 A 
ATOM     17  C   UNL     1       4.986  -2.662   4.025  0.00  0.00    +0.011 A 
ATOM     18  C   UNL     1       4.254  -1.622   4.607  0.00  0.00    -0.025 A 
ATOM     19  F   UNL     1       7.580  -3.131   6.517  0.00  0.00    -0.205 F 
ENDBRANCH   1  18
BRANCH  10  20
ATOM     20  C   UNL     1      -0.865   2.430   4.776  0.00  0.00    -0.024 A 
ATOM     21  C   UNL     1       0.400   2.985   4.824  0.00  0.00    +0.008 A 
ATOM     22  C   UNL     1       0.626   4.129   5.566  0.00  0.00    +0.038 A 
ATOM     23  C   UNL     1      -0.414   4.713   6.270  0.00  0.00    +0.123 A 
ATOM     24  C   UNL     1      -1.679   4.154   6.225  0.00  0.00    +0.038 A 
ATOM     25  C   UNL     1      -1.904   3.013   5.478  0.00  0.00    +0.008 A 
ATOM     26  F   UNL     1      -0.193   5.828   7.000  0.00  0.00    -0.205 F 
ENDBRANCH  10  20
BRANCH  11  27
ATOM     27  C   UNL     1       0.162   1.785   0.338  0.00  0.00    +0.021 C 
BRANCH  27  33
ATOM     28  C   UNL     1      -1.704   1.838  -1.204  0.00  0.00    -0.077 C 
ATOM     29  C   UNL     1      -2.416   2.697  -2.251  0.00  0.00    -0.006 C 
ATOM     30  C   UNL     1      -1.481   2.920  -3.443  0.00  0.00    +0.071 C 
ATOM     31  C   UNL     1      -0.190   3.582  -2.952  0.00  0.00    -0.006 C 
ATOM     32  C   UNL     1       0.458   2.696  -1.885  0.00  0.00    -0.077 C 
ATOM     33  N   UNL     1      -0.483   2.541  -0.755  0.00  0.00    +0.385 N 
ATOM     34  H   UNL     1      -0.744   3.472  -0.408  0.00  0.00    -0.081 HD
BRANCH  30  35
ATOM     35  C   UNL     1      -2.154   3.815  -4.451  0.00  0.00    +0.213 C 
ATOM     36  O   UNL     1      -1.652   4.879  -4.748  0.00  0.00    -0.276 OA
ATOM     37  N   UNL     1      -3.314   3.435  -5.021  0.00  0.00    -0.329 N 
ATOM     38  H   UNL     1      -3.716   2.584  -4.783  0.00  0.00    +0.145 HD
ATOM     39  H   UNL     1      -3.748   4.011  -5.670  0.00  0.00    +0.145 HD
ENDBRANCH  30  35
ENDBRANCH  27  33
ENDBRANCH  11  27
TORSDOF 5
