REMARK  Name = ZINC39942266
REMARK  10 active torsions:
REMARK  status: ('A' for Active; 'I' for Inactive)
REMARK    1  A    between atoms: C_1  and  O_2
REMARK    2  A    between atoms: O_2  and  C_3
REMARK    3  A    between atoms: C_3  and  C_4
REMARK    4  A    between atoms: C_4  and  N_5
REMARK    5  A    between atoms: N_5  and  C_6
REMARK    6  A    between atoms: C_12  and  C_14
REMARK    7  A    between atoms: C_14  and  S_15
REMARK    8  A    between atoms: S_15  and  C_16
REMARK    9  A    between atoms: C_20  and  C_25
REMARK   10  A    between atoms: N_21  and  C_22
REMARK                            x       y       z     vdW  Elec       q    Type
REMARK                         _______ _______ _______ _____ _____    ______ ____
ROOT
ATOM      1  C   UNL     1       4.255  -2.352  -1.116  0.00  0.00    +0.237 C 
ATOM      2  N   UNL     1       3.987  -0.936  -1.419  0.00  0.00    -0.237 N 
ATOM      3  N   UNL     1       3.361  -0.909  -2.670  0.00  0.00    -0.169 NA
ATOM      4  C   UNL     1       3.218  -2.114  -3.156  0.00  0.00    +0.147 C 
ATOM      5  N   UNL     1       3.734  -3.080  -2.284  0.00  0.00    -0.282 N 
ATOM      6  H   UNL     1       4.202  -0.173  -0.861  0.00  0.00    +0.171 HD
ENDROOT
BRANCH   4   7
ATOM      7  C   UNL     1       2.624  -2.402  -4.394  0.00  0.00    +0.022 C 
ATOM      8  C   UNL     1       2.010  -1.502  -5.266  0.00  0.00    +0.006 A 
ATOM      9  C   UNL     1       1.798  -0.108  -5.203  0.00  0.00    +0.010 A 
ATOM     10  C   UNL     1       1.157   0.522  -6.220  0.00  0.00    +0.001 A 
ATOM     11  C   UNL     1       0.698  -0.175  -7.339  0.00  0.00    +0.002 A 
ATOM     12  C   UNL     1       0.867  -1.515  -7.466  0.00  0.00    +0.026 A 
ATOM     13  C   UNL     1       1.528  -2.242  -6.443  0.00  0.00    +0.043 A 
ATOM     14  N   UNL     1       1.813  -3.525  -6.330  0.00  0.00    -0.380 N 
ATOM     15  C   UNL     1       2.520  -3.754  -5.066  0.00  0.00    +0.152 C 
ATOM     16  H   UNL     1       1.594  -4.208  -6.982  0.00  0.00    +0.160 HD
ENDBRANCH   4   7
BRANCH   5  17
ATOM     17  C   UNL     1       3.752  -4.530  -2.492  0.00  0.00    +0.078 C 
ATOM     18  C   UNL     1       4.091  -5.412  -1.288  0.00  0.00    +0.024 C 
ATOM     19  C   UNL     1       5.107  -5.237  -2.418  0.00  0.00    +0.024 C 
ENDBRANCH   5  17
BRANCH   1  20
ATOM     20  S   UNL     1       3.376  -2.856   0.389  0.00  0.00    -0.109 S 
BRANCH  20  21
ATOM     21  C   UNL     1       1.638  -2.482   0.029  0.00  0.00    +0.168 C 
BRANCH  21  23
ATOM     22  N   UNL     1      -0.547  -2.668   1.174  0.00  0.00    -0.273 N 
ATOM     23  C   UNL     1       0.787  -2.858   1.214  0.00  0.00    +0.230 C 
ATOM     24  O   UNL     1       1.302  -3.332   2.205  0.00  0.00    -0.274 OA
BRANCH  22  25
ATOM     25  C   UNL     1      -1.321  -2.928   2.301  0.00  0.00    +0.010 C 
ATOM     26  C   UNL     1      -2.196  -3.894   2.234  0.00  0.00    -0.008 C 
ATOM     27  C   UNL     1      -3.105  -4.280   3.364  0.00  0.00    +0.029 C 
ATOM     28  C   UNL     1      -2.583  -3.703   4.681  0.00  0.00    +0.004 C 
ATOM     29  C   UNL     1      -2.288  -2.212   4.475  0.00  0.00    +0.006 C 
ATOM     30  C   UNL     1      -1.096  -2.085   3.521  0.00  0.00    +0.051 C 
ENDBRANCH  22  25
BRANCH  22  31
ATOM     31  C   UNL     1      -1.181  -2.188  -0.056  0.00  0.00    +0.141 C 
BRANCH  31  32
ATOM     32  C   UNL     1      -1.368  -0.672   0.024  0.00  0.00    +0.178 C 
BRANCH  32  34
ATOM     33  C   UNL     1      -0.150   1.389   0.139  0.00  0.00    +0.194 C 
ATOM     34  O   UNL     1      -0.088  -0.036   0.062  0.00  0.00    -0.381 OA
ENDBRANCH  32  34
ENDBRANCH  31  32
ENDBRANCH  22  31
ENDBRANCH  21  23
ENDBRANCH  20  21
ENDBRANCH   1  20
TORSDOF 9
