REMARK  Name = ZINC40920612
REMARK  15 active torsions:
REMARK  status: ('A' for Active; 'I' for Inactive)
REMARK    1  A    between atoms: C_1  and  C_2
REMARK    2  A    between atoms: C_2  and  C_3
REMARK    3  A    between atoms: C_3  and  C_4
REMARK    4  A    between atoms: C_4  and  C_5
REMARK    5  A    between atoms: C_5  and  C_6
REMARK    6  A    between atoms: C_6  and  O_7
REMARK    7  A    between atoms: O_7  and  C_8
REMARK    8  A    between atoms: C_11  and  C_16
REMARK    9  A    between atoms: C_13  and  O_14
REMARK   10  A    between atoms: O_14  and  C_15
REMARK   11  A    between atoms: C_18  and  C_27
REMARK   12  A    between atoms: C_19  and  C_26
REMARK   13  A    between atoms: N_29  and  C_30
REMARK   14  A    between atoms: C_33  and  C_37
REMARK   15  A    between atoms: C_35  and  C_36
REMARK                            x       y       z     vdW  Elec       q    Type
REMARK                         _______ _______ _______ _____ _____    ______ ____
ROOT
ATOM      1  C   UNL     1       2.645  -9.252  -4.453  0.00  0.00    +0.179 C 
ATOM      2  C   UNL     1       1.455 -10.154  -4.648  0.00  0.00    +0.060 C 
ATOM      3  C   UNL     1       1.137 -11.141  -3.798  0.00  0.00    +0.018 C 
ATOM      4  N   UNL     1       1.885 -11.416  -2.679  0.00  0.00    -0.286 N 
ATOM      5  C   UNL     1       3.130 -10.812  -2.581  0.00  0.00    +0.240 A 
ATOM      6  N   UNL     1       3.502  -9.800  -3.408  0.00  0.00    -0.201 N 
ATOM      7  N   UNL     1       4.798  -9.459  -3.024  0.00  0.00    -0.042 NA
ATOM      8  N   UNL     1       5.106 -10.240  -2.039  0.00  0.00    -0.021 NA
ATOM      9  N   UNL     1       4.127 -11.038  -1.774  0.00  0.00    -0.092 NA
ATOM     10  C   UNL     1      -0.085 -11.978  -4.080  0.00  0.00    +0.061 C 
ATOM     11  H   UNL     1       1.555 -12.008  -1.985  0.00  0.00    +0.155 HD
ENDROOT
BRANCH   1  15
ATOM     12  C   UNL     1       1.305  -5.359  -3.298  0.00  0.00    +0.162 A 
ATOM     13  C   UNL     1       0.972  -6.465  -2.532  0.00  0.00    +0.050 A 
ATOM     14  C   UNL     1       1.407  -7.722  -2.908  0.00  0.00    +0.010 A 
ATOM     15  C   UNL     1       2.174  -7.879  -4.048  0.00  0.00    -0.015 A 
ATOM     16  C   UNL     1       2.510  -6.780  -4.816  0.00  0.00    +0.055 A 
ATOM     17  C   UNL     1       2.073  -5.518  -4.448  0.00  0.00    +0.162 A 
BRANCH  17  18
ATOM     18  O   UNL     1       2.397  -4.436  -5.205  0.00  0.00    -0.491 OA
ATOM     19  C   UNL     1       3.092  -4.686  -6.429  0.00  0.00    +0.277 C 
ENDBRANCH  17  18
BRANCH  12  20
ATOM     20  O   UNL     1       0.878  -4.121  -2.929  0.00  0.00    -0.488 OA
BRANCH  20  21
ATOM     21  C   UNL     1       0.095  -4.033  -1.738  0.00  0.00    +0.229 C 
BRANCH  21  22
ATOM     22  C   UNL     1      -0.290  -2.574  -1.486  0.00  0.00    +0.041 C 
BRANCH  22  23
ATOM     23  C   UNL     1      -1.129  -2.480  -0.210  0.00  0.00    +0.003 C 
BRANCH  23  24
ATOM     24  C   UNL     1      -1.514  -1.021   0.041  0.00  0.00    -0.000 C 
BRANCH  24  26
ATOM     25  C   UNL     1      -2.738   0.533   1.567  0.00  0.00    +0.004 C 
ATOM     26  C   UNL     1      -2.353  -0.927   1.317  0.00  0.00    -0.003 C 
ENDBRANCH  24  26
ENDBRANCH  23  24
ENDBRANCH  22  23
ENDBRANCH  21  22
ENDBRANCH  20  21
ENDBRANCH  12  20
ENDBRANCH   1  15
BRANCH   2  27
ATOM     27  C   UNL     1       0.634  -9.951  -5.782  0.00  0.00    +0.248 C 
ATOM     28  O   UNL     1       0.955 -10.422  -6.859  0.00  0.00    -0.270 OA
ATOM     29  N   UNL     1      -0.503  -9.236  -5.671  0.00  0.00    -0.281 N 
ATOM     30  H   UNL     1      -0.723  -8.802  -4.832  0.00  0.00    +0.155 HD
BRANCH  29  31
ATOM     31  C   UNL     1      -1.365  -9.119  -6.766  0.00  0.00    +0.037 A 
ATOM     32  C   UNL     1      -1.287 -10.028  -7.814  0.00  0.00    +0.024 A 
ATOM     33  C   UNL     1      -2.140  -9.910  -8.893  0.00  0.00    +0.005 A 
ATOM     34  C   UNL     1      -3.072  -8.889  -8.932  0.00  0.00    -0.050 A 
ATOM     35  C   UNL     1      -3.152  -7.982  -7.891  0.00  0.00    +0.008 A 
ATOM     36  C   UNL     1      -2.305  -8.098  -6.806  0.00  0.00    -0.029 A 
ATOM     37  C   UNL     1      -2.398  -7.113  -5.669  0.00  0.00    +0.045 C 
ATOM     38  C   UNL     1      -4.001  -8.764 -10.112  0.00  0.00    +0.044 C 
ENDBRANCH  29  31
ENDBRANCH   2  27
TORSDOF 10
