REMARK  Name = ZINC43736887
REMARK  9 active torsions:
REMARK  status: ('A' for Active; 'I' for Inactive)
REMARK    1  A    between atoms: C_1  and  C_2
REMARK    2  A    between atoms: C_3  and  C_4
REMARK    3  A    between atoms: C_4  and  O_36
REMARK    4  A    between atoms: C_9  and  C_35
REMARK    5  A    between atoms: C_11  and  C_26
REMARK    6  A    between atoms: C_17  and  O_25
REMARK    7  A    between atoms: C_29  and  N_32
REMARK    8  A    between atoms: N_32  and  C_33
REMARK    9  A    between atoms: N_32  and  C_34
REMARK                            x       y       z     vdW  Elec       q    Type
REMARK                         _______ _______ _______ _____ _____    ______ ____
ROOT
ATOM      1  C   UNL     1       0.021  -2.120   0.389  0.00  0.00    +0.132 C 
ATOM      2  C   UNL     1       0.611  -2.789   1.660  0.00  0.00    +0.049 C 
ATOM      3  C   UNL     1      -0.484  -3.750   2.197  0.00  0.00    +0.008 C 
ATOM      4  C   UNL     1      -1.766  -3.187   1.550  0.00  0.00    +0.006 C 
ATOM      5  C   UNL     1      -1.273  -2.901   0.118  0.00  0.00    +0.012 C 
ATOM      6  C   UNL     1      -2.322  -2.220  -0.723  0.00  0.00    +0.023 C 
ATOM      7  C   UNL     1      -3.688  -2.344  -0.016  0.00  0.00    +0.046 C 
ATOM      8  C   UNL     1      -3.859  -3.781   0.411  0.00  0.00    -0.055 C 
ATOM      9  C   UNL     1      -4.652  -4.704  -0.104  0.00  0.00    -0.044 C 
ATOM     10  C   UNL     1      -5.644  -4.407  -1.200  0.00  0.00    +0.038 C 
ATOM     11  C   UNL     1      -6.624  -5.562  -1.421  0.00  0.00    +0.040 C 
ATOM     12  C   UNL     1      -5.856  -6.879  -1.533  0.00  0.00    +0.138 C 
ATOM     13  C   UNL     1      -5.156  -7.105  -0.220  0.00  0.00    +0.008 C 
ATOM     14  C   UNL     1      -4.611  -6.086   0.426  0.00  0.00    -0.046 C 
ATOM     15  C   UNL     1      -3.919  -6.364   1.741  0.00  0.00    +0.036 C 
ATOM     16  C   UNL     1      -2.600  -5.572   1.700  0.00  0.00    +0.013 C 
ATOM     17  C   UNL     1      -2.962  -4.105   1.607  0.00  0.00    +0.020 C 
ATOM     18  C   UNL     1      -0.865  -4.199  -0.598  0.00  0.00    +0.015 C 
ENDROOT
BRANCH   7  19
ATOM     19  C   UNL     1      -4.765  -1.726  -0.870  0.00  0.00    -0.040 A 
ATOM     20  C   UNL     1      -4.754  -1.916  -2.239  0.00  0.00    +0.006 A 
ATOM     21  C   UNL     1      -5.739  -1.351  -3.025  0.00  0.00    +0.023 A 
ATOM     22  C   UNL     1      -6.742  -0.591  -2.438  0.00  0.00    +0.029 A 
ATOM     23  C   UNL     1      -6.751  -0.402  -1.061  0.00  0.00    +0.023 A 
ATOM     24  C   UNL     1      -5.766  -0.974  -0.281  0.00  0.00    +0.006 A 
BRANCH  22  25
ATOM     25  N   UNL     1      -7.740  -0.017  -3.229  0.00  0.00    -0.336 N 
ATOM     26  C   UNL     1      -7.729  -0.218  -4.680  0.00  0.00    +0.129 C 
ATOM     27  C   UNL     1      -8.797   0.784  -2.608  0.00  0.00    +0.129 C 
ENDBRANCH  22  25
ENDBRANCH   7  19
BRANCH   1  30
ATOM     28  C   UNL     1      -0.692   1.860   1.144  0.00  0.00    +0.106 C 
ATOM     29  C   UNL     1      -0.436   0.436   0.874  0.00  0.00    -0.103 C 
ATOM     30  C   UNL     1      -0.233  -0.700   0.658  0.00  0.00    -0.067 C 
ENDBRANCH   1  30
BRANCH  12  31
ATOM     31  O   UNL     1      -6.767  -7.949  -1.778  0.00  0.00    -0.388 OA
ATOM     32  H   UNL     1      -6.344  -8.815  -1.860  0.00  0.00    +0.210 HD
ENDBRANCH  12  31
BRANCH   1  33
ATOM     33  O   UNL     1       0.924  -2.271  -0.706  0.00  0.00    -0.376 OA
ATOM     34  H   UNL     1       1.784  -1.851  -0.568  0.00  0.00    +0.211 HD
ENDBRANCH   1  33
TORSDOF 5
