REMARK  Name = ZINC38563665
REMARK  9 active torsions:
REMARK  status: ('A' for Active; 'I' for Inactive)
REMARK    1  A    between atoms: C_1  and  C_2
REMARK    2  A    between atoms: C_5  and  S_8
REMARK    3  A    between atoms: S_8  and  C_11
REMARK    4  A    between atoms: C_11  and  C_13
REMARK    5  A    between atoms: C_11  and  C_27
REMARK    6  A    between atoms: C_13  and  N_14
REMARK    7  A    between atoms: C_15  and  C_17
REMARK    8  A    between atoms: C_20  and  C_26
REMARK    9  A    between atoms: C_21  and  N_23
REMARK                            x       y       z     vdW  Elec       q    Type
REMARK                         _______ _______ _______ _____ _____    ______ ____
ROOT
ATOM      1  C   UNL     1       1.940  -4.764   0.369  0.00  0.00    +0.189 C 
ENDROOT
BRANCH   1   2
ATOM      2  C   UNL     1       2.544  -4.005  -0.785  0.00  0.00    +0.016 A 
ATOM      3  C   UNL     1       3.663  -3.240  -0.810  0.00  0.00    +0.013 A 
ATOM      4  C   UNL     1       4.032  -2.632  -1.996  0.00  0.00    +0.008 A 
ATOM      5  C   UNL     1       3.265  -2.819  -3.097  0.00  0.00    +0.045 A 
ATOM      6  S   UNL     1       1.978  -3.888  -2.474  0.00  0.00    -0.100 S 
ENDBRANCH   1   2
BRANCH   1   7
ATOM      7  S   UNL     1       0.258  -4.157   0.676  0.00  0.00    +0.006 S 
ATOM      8  O   UNL     1      -0.217  -4.642   1.925  0.00  0.00    -0.169 OA
ATOM      9  O   UNL     1      -0.531  -4.287  -0.499  0.00  0.00    -0.169 OA
BRANCH   7  14
ATOM     10  C   UNL     1       0.871   1.793   1.468  0.00  0.00    +0.044 C 
ATOM     11  C   UNL     1       0.718   0.306   1.270  0.00  0.00    -0.050 A 
ATOM     12  C   UNL     1       0.496  -0.203   0.004  0.00  0.00    +0.005 A 
ATOM     13  C   UNL     1       0.356  -1.566  -0.177  0.00  0.00    +0.027 A 
ATOM     14  C   UNL     1       0.438  -2.420   0.907  0.00  0.00    +0.089 A 
ATOM     15  C   UNL     1       0.660  -1.910   2.172  0.00  0.00    +0.027 A 
ATOM     16  C   UNL     1       0.805  -0.548   2.353  0.00  0.00    +0.005 A 
ENDBRANCH   7  14
ENDBRANCH   1   7
BRANCH   1  17
ATOM     17  C   UNL     1       1.890  -6.255   0.029  0.00  0.00    +0.136 C 
BRANCH  17  18
ATOM     18  N   UNL     1       1.302  -6.992   1.150  0.00  0.00    -0.309 N 
ATOM     19  C   UNL     1       1.158  -8.330   1.075  0.00  0.00    +0.244 C 
ATOM     20  O   UNL     1       1.515  -8.925   0.077  0.00  0.00    -0.270 OA
ATOM     21  H   UNL     1       1.018  -6.517   1.946  0.00  0.00    +0.149 HD
BRANCH  19  22
ATOM     22  C   UNL     1       0.565  -9.074   2.206  0.00  0.00    +0.039 A 
ATOM     23  C   UNL     1       0.148  -8.393   3.352  0.00  0.00    +0.013 A 
ATOM     24  C   UNL     1      -0.405  -9.093   4.404  0.00  0.00    +0.006 A 
ATOM     25  C   UNL     1      -0.547 -10.468   4.325  0.00  0.00    -0.020 A 
ATOM     26  C   UNL     1      -0.136 -11.148   3.193  0.00  0.00    +0.130 A 
ATOM     27  C   UNL     1       0.413 -10.459   2.131  0.00  0.00    +0.046 A 
ATOM     28  C   UNL     1      -1.151 -11.226   5.479  0.00  0.00    +0.046 C 
BRANCH  26  29
ATOM     29  N   UNL     1      -0.291 -12.618   3.119  0.00  0.00    +0.057 N 
ATOM     30  O   UNL     1       0.552 -13.288   2.568  0.00  0.00    -0.126 OA
ATOM     31  O   UNL     1      -1.261 -13.150   3.608  0.00  0.00    -0.126 OA
ENDBRANCH  26  29
ENDBRANCH  19  22
ENDBRANCH  17  18
ENDBRANCH   1  17
TORSDOF 7
