REMARK  Name = ZINC60308983
REMARK  9 active torsions:
REMARK  status: ('A' for Active; 'I' for Inactive)
REMARK    1  A    between atoms: C_1  and  C_2
REMARK    2  A    between atoms: C_2  and  C_3
REMARK    3  A    between atoms: C_3  and  C_4
REMARK    4  A    between atoms: C_14  and  C_16
REMARK    5  A    between atoms: C_16  and  C_17
REMARK    6  A    between atoms: C_17  and  C_18
REMARK    7  A    between atoms: C_20  and  C_23
REMARK    8  A    between atoms: C_23  and  N_30
REMARK    9  A    between atoms: C_31  and  C_33
REMARK                            x       y       z     vdW  Elec       q    Type
REMARK                         _______ _______ _______ _____ _____    ______ ____
ROOT
ATOM      1  C   UNL     1       2.957 -11.041   1.788  0.00  0.00    +0.108 C 
ENDROOT
BRANCH   1   2
ATOM      2  C   UNL     1       3.349 -12.467   1.494  0.00  0.00    +0.228 A 
ATOM      3  N   UNL     1       4.542 -12.975   1.628  0.00  0.00    -0.194 NA
ATOM      4  C   UNL     1       4.534 -14.266   1.279  0.00  0.00    +0.195 A 
ATOM      5  N   UNL     1       3.327 -14.597   0.917  0.00  0.00    -0.059 NA
ATOM      6  O   UNL     1       2.529 -13.431   1.056  0.00  0.00    -0.338 OA
BRANCH   4   7
ATOM      7  C   UNL     1       5.726 -15.188   1.301  0.00  0.00    +0.097 C 
ATOM      8  C   UNL     1       6.836 -14.589   0.414  0.00  0.00    +0.034 C 
ATOM      9  C   UNL     1       8.152 -15.194   0.822  0.00  0.00    +0.003 C 
ATOM     10  C   UNL     1       8.527 -16.420  -0.033  0.00  0.00    +0.000 C 
ATOM     11  C   UNL     1       7.327 -17.347  -0.307  0.00  0.00    +0.000 C 
ATOM     12  C   UNL     1       6.457 -17.537   0.906  0.00  0.00    +0.003 C 
ATOM     13  C   UNL     1       5.309 -16.508   0.852  0.00  0.00    +0.034 C 
BRANCH   7  14
ATOM     14  N   UNL     1       6.221 -15.289   2.676  0.00  0.00    -0.303 N 
ATOM     15  C   UNL     1       6.641 -14.184   3.323  0.00  0.00    +0.211 C 
ATOM     16  O   UNL     1       6.609 -13.106   2.768  0.00  0.00    -0.276 OA
ATOM     17  C   UNL     1       7.152 -14.287   4.738  0.00  0.00    +0.109 C 
ATOM     18  H   UNL     1       6.248 -16.151   3.120  0.00  0.00    +0.150 HD
ENDBRANCH   7  14
ENDBRANCH   4   7
ENDBRANCH   1   2
BRANCH   1  19
ATOM     19  C   UNL     1       3.126 -10.195   0.525  0.00  0.00    +0.105 C 
BRANCH  19  29
ATOM     20  C   UNL     1       0.763  -2.041   1.233  0.00  0.00    -0.006 C 
ATOM     21  C   UNL     1       1.398  -2.552   2.529  0.00  0.00    +0.010 C 
ATOM     22  C   UNL     1       1.206  -4.066   2.648  0.00  0.00    +0.056 C 
ATOM     23  C   UNL     1       1.704  -4.723   1.368  0.00  0.00    +0.054 A 
ATOM     24  C   UNL     1       1.861  -3.993   0.234  0.00  0.00    +0.015 A 
ATOM     25  S   UNL     1       2.447  -5.199  -0.923  0.00  0.00    -0.057 S 
ATOM     26  C   UNL     1       2.443  -6.523   0.120  0.00  0.00    +0.165 A 
ATOM     27  N   UNL     1       2.016  -6.010   1.252  0.00  0.00    -0.229 NA
ATOM     28  N   UNL     1       2.804  -7.838  -0.152  0.00  0.00    -0.265 N 
ATOM     29  C   UNL     1       2.735  -8.770   0.819  0.00  0.00    +0.219 C 
ATOM     30  O   UNL     1       2.358  -8.461   1.930  0.00  0.00    -0.275 OA
ATOM     31  C   UNL     1       1.595  -2.538   0.040  0.00  0.00    +0.048 C 
ATOM     32  H   UNL     1       3.105  -8.084  -1.040  0.00  0.00    +0.157 HD
BRANCH  20  33
ATOM     33  C   UNL     1       0.742  -0.511   1.242  0.00  0.00    +0.003 C 
BRANCH  33  35
ATOM     34  C   UNL     1      -0.019   1.526   0.010  0.00  0.00    +0.004 C 
ATOM     35  C   UNL     1       0.002  -0.004   0.002  0.00  0.00    -0.003 C 
ENDBRANCH  33  35
ENDBRANCH  20  33
ENDBRANCH  19  29
ENDBRANCH   1  19
TORSDOF 7
