REMARK  Name = ZINC03206711
REMARK  5 active torsions:
REMARK  status: ('A' for Active; 'I' for Inactive)
REMARK    1  A    between atoms: C_1  and  C_2
REMARK    2  A    between atoms: C_3  and  C_12
REMARK    3  A    between atoms: N_13  and  N_14
REMARK    4  A    between atoms: C_15  and  C_17
REMARK    5  A    between atoms: C_22  and  N_23
REMARK                            x       y       z     vdW  Elec       q    Type
REMARK                         _______ _______ _______ _____ _____    ______ ____
ROOT
ATOM      1  N   UNL     1      -1.038   6.039   0.280  0.00  0.00    -0.203 N 
ATOM      2  C   UNL     1       0.090   5.321   0.115  0.00  0.00    +0.265 C 
ATOM      3  O   UNL     1       1.162   5.886   0.008  0.00  0.00    -0.268 OA
ATOM      4  H   UNL     1      -1.893   5.588   0.365  0.00  0.00    +0.178 HD
ENDROOT
BRANCH   2   5
ATOM      5  C   UNL     1       0.025   3.848   0.064  0.00  0.00    +0.062 A 
ATOM      6  C   UNL     1      -1.179   3.188   0.318  0.00  0.00    +0.015 A 
ATOM      7  C   UNL     1      -1.234   1.812   0.263  0.00  0.00    +0.001 A 
ATOM      8  C   UNL     1      -0.097   1.078  -0.032  0.00  0.00    +0.002 A 
ATOM      9  C   UNL     1       1.101   1.716  -0.285  0.00  0.00    +0.027 A 
ATOM     10  C   UNL     1       1.173   3.101  -0.239  0.00  0.00    +0.058 A 
BRANCH  10  11
ATOM     11  N   UNL     1       2.384   3.749  -0.494  0.00  0.00    -0.322 N 
ATOM     12  C   UNL     1       2.601   4.677  -1.474  0.00  0.00    +0.091 A 
ATOM     13  C   UNL     1       3.888   5.072  -1.402  0.00  0.00    +0.019 A 
ATOM     14  C   UNL     1       4.492   4.357  -0.348  0.00  0.00    +0.019 A 
ATOM     15  C   UNL     1       3.551   3.556   0.190  0.00  0.00    +0.091 A 
ENDBRANCH  10  11
ENDBRANCH   2   5
BRANCH   1  17
ATOM     16  C   UNL     1      -2.064   8.131   0.488  0.00  0.00    +0.140 C 
ATOM     17  N   UNL     1      -0.977   7.438   0.329  0.00  0.00    -0.187 NA
BRANCH  16  20
ATOM     18  C   UNL     1       0.519   9.844   0.257  0.00  0.00    +0.064 C 
ATOM     19  C   UNL     1      -0.882  10.369   0.440  0.00  0.00    +0.023 A 
ATOM     20  C   UNL     1      -2.000   9.600   0.538  0.00  0.00    +0.023 A 
ATOM     21  C   UNL     1      -3.133  10.526   0.712  0.00  0.00    +0.009 A 
ATOM     22  C   UNL     1      -4.507  10.354   0.872  0.00  0.00    +0.010 A 
ATOM     23  C   UNL     1      -5.320  11.456   1.014  0.00  0.00    +0.001 A 
ATOM     24  C   UNL     1      -4.777  12.734   1.001  0.00  0.00    +0.002 A 
ATOM     25  C   UNL     1      -3.422  12.919   0.845  0.00  0.00    +0.026 A 
ATOM     26  C   UNL     1      -2.583  11.819   0.698  0.00  0.00    +0.047 A 
ATOM     27  N   UNL     1      -1.221  11.686   0.528  0.00  0.00    -0.358 N 
ATOM     28  H   UNL     1      -0.594  12.425   0.482  0.00  0.00    +0.166 HD
ENDBRANCH  16  20
ENDBRANCH   1  17
TORSDOF 4
