REMARK  Name = ZINC17150354
REMARK  13 active torsions:
REMARK  status: ('A' for Active; 'I' for Inactive)
REMARK    1  A    between atoms: C_1  and  C_2
REMARK    2  A    between atoms: C_5  and  C_32
REMARK    3  A    between atoms: C_6  and  O_8
REMARK    4  A    between atoms: O_8  and  C_9
REMARK    5  A    between atoms: C_9  and  C_10
REMARK    6  A    between atoms: C_13  and  S_16
REMARK    7  A    between atoms: N_14  and  N_15
REMARK    8  A    between atoms: S_16  and  C_17
REMARK    9  A    between atoms: C_17  and  C_19
REMARK   10  A    between atoms: C_17  and  C_20
REMARK   11  A    between atoms: N_22  and  C_23
REMARK   12  A    between atoms: C_32  and  C_33
REMARK   13  A    between atoms: C_32  and  C_34
REMARK                            x       y       z     vdW  Elec       q    Type
REMARK                         _______ _______ _______ _____ _____    ______ ____
ROOT
ATOM      1  C   UNL     1       6.921  -4.357   1.407  0.00  0.00    +0.189 A 
ATOM      2  N   UNL     1       7.262  -3.200   0.915  0.00  0.00    -0.128 NA
ATOM      3  N   UNL     1       6.214  -2.495   0.679  0.00  0.00    -0.121 NA
ATOM      4  C   UNL     1       5.138  -3.170   1.010  0.00  0.00    +0.209 A 
ATOM      5  N   UNL     1       5.556  -4.378   1.491  0.00  0.00    -0.225 N 
ENDROOT
BRANCH   5   6
ATOM      6  N   UNL     1       4.773  -5.396   1.956  0.00  0.00    -0.295 N 
ATOM      7  H   UNL     1       4.521  -6.027   1.210  0.00  0.00    +0.163 HD
ATOM      8  H   UNL     1       5.231  -5.890   2.708  0.00  0.00    +0.163 HD
ENDBRANCH   5   6
BRANCH   1   9
ATOM      9  C   UNL     1       7.857  -5.466   1.814  0.00  0.00    +0.306 C 
BRANCH   9  10
ATOM     10  O   UNL     1       8.217  -5.306   3.188  0.00  0.00    -0.484 OA
BRANCH  10  16
ATOM     11  C   UNL     1      10.911  -9.335   2.614  0.00  0.00    +0.044 C 
ATOM     12  C   UNL     1      10.395  -8.206   3.468  0.00  0.00    -0.047 A 
ATOM     13  C   UNL     1      10.783  -8.109   4.792  0.00  0.00    +0.004 A 
ATOM     14  C   UNL     1      10.312  -7.074   5.579  0.00  0.00    +0.008 A 
ATOM     15  C   UNL     1       9.457  -6.131   5.043  0.00  0.00    -0.003 A 
ATOM     16  C   UNL     1       9.062  -6.229   3.716  0.00  0.00    +0.125 A 
ATOM     17  C   UNL     1       9.536  -7.268   2.929  0.00  0.00    +0.049 A 
BRANCH  15  18
ATOM     18  C   UNL     1       8.949  -5.000   5.899  0.00  0.00    +0.016 C 
ATOM     19  C   UNL     1       8.177  -5.570   7.091  0.00  0.00    +0.012 C 
ATOM     20  C   UNL     1      10.132  -4.173   6.406  0.00  0.00    +0.012 C 
ENDBRANCH  15  18
ENDBRANCH  10  16
ENDBRANCH   9  10
ENDBRANCH   1   9
BRANCH   4  21
ATOM     21  S   UNL     1       3.470  -2.619   0.869  0.00  0.00    -0.072 S 
BRANCH  21  22
ATOM     22  C   UNL     1       3.742  -0.969   0.178  0.00  0.00    +0.137 C 
ATOM     23  C   UNL     1       4.360  -1.095  -1.216  0.00  0.00    +0.029 C 
BRANCH  22  24
ATOM     24  C   UNL     1       2.426  -0.242   0.080  0.00  0.00    +0.230 C 
ATOM     25  O   UNL     1       1.386  -0.866   0.087  0.00  0.00    -0.274 OA
ATOM     26  N   UNL     1       2.404   1.103  -0.015  0.00  0.00    -0.282 N 
ATOM     27  H   UNL     1       3.234   1.597  -0.101  0.00  0.00    +0.155 HD
BRANCH  26  28
ATOM     28  C   UNL     1       1.181   1.787   0.012  0.00  0.00    +0.072 A 
ATOM     29  C   UNL     1       0.076   1.213   0.627  0.00  0.00    +0.029 A 
ATOM     30  C   UNL     1      -1.130   1.886   0.648  0.00  0.00    +0.043 A 
ATOM     31  C   UNL     1      -1.238   3.137   0.066  0.00  0.00    +0.161 A 
ATOM     32  C   UNL     1      -0.137   3.714  -0.550  0.00  0.00    +0.195 A 
ATOM     33  C   UNL     1       1.072   3.041  -0.578  0.00  0.00    +0.182 A 
ATOM     34  F   UNL     1       2.145   3.602  -1.177  0.00  0.00    -0.200 F 
ATOM     35  F   UNL     1      -0.245   4.933  -1.123  0.00  0.00    -0.199 F 
ATOM     36  F   UNL     1      -2.417   3.795   0.092  0.00  0.00    -0.202 F 
ENDBRANCH  26  28
ENDBRANCH  22  24
ENDBRANCH  21  22
ENDBRANCH   4  21
TORSDOF 9
