REMARK  Name = ZINC63375492
REMARK  10 active torsions:
REMARK  status: ('A' for Active; 'I' for Inactive)
REMARK    1  A    between atoms: CB_1  and  CA_2
REMARK    2  A    between atoms: CA_2  and  C_4
REMARK    3  A    between atoms: CA_2  and  N_7
REMARK    4  A    between atoms: C_8  and  CA_10
REMARK    5  A    between atoms: CA_10  and  CB_12
REMARK    6  A    between atoms: CA_10  and  N_16
REMARK    7  A    between atoms: CB_12  and  CG_13
REMARK    8  A    between atoms: CG_13  and  CD1_14
REMARK    9  A    between atoms: CG_13  and  CD2_15
REMARK   10  A    between atoms: C_17  and  C_19
REMARK                            x       y       z     vdW  Elec       q    Type
REMARK                         _______ _______ _______ _____ _____    ______ ____
ROOT
ATOM      1  C   UNK A   0      -0.373  -1.510  -7.613  0.00  0.00    +0.167 C 
ATOM      2  C   UNK A   0      -1.819  -2.017  -7.447  0.00  0.00    +0.065 C 
ATOM      3  C   UNK A   0      -2.031  -3.091  -8.484  0.00  0.00    -0.034 C 
ATOM      4  C   UNK A   0      -2.494  -4.332  -8.360  0.00  0.00    -0.001 A 
ATOM      5  C   UNK A   0      -3.048  -5.057  -7.206  0.00  0.00    +0.010 A 
ATOM      6  C   UNK A   0      -3.418  -6.346  -7.429  0.00  0.00    +0.001 A 
ATOM      7  C   UNK A   0      -3.293  -6.978  -8.670  0.00  0.00    +0.002 A 
ATOM      8  C   UNK A   0      -2.800  -6.385  -9.787  0.00  0.00    +0.026 A 
ATOM      9  C   UNK A   0      -2.386  -5.026  -9.679  0.00  0.00    +0.043 A 
ATOM     10  N   UNK A   0      -1.905  -4.219 -10.578  0.00  0.00    -0.375 N 
ATOM     11  C   UNK A   0      -1.702  -2.908  -9.960  0.00  0.00    +0.131 C 
ATOM     12  C   UNK A   0      -0.247  -2.451 -10.047  0.00  0.00    +0.134 C 
ATOM     13  N   UNK A   0       0.269  -2.300  -8.671  0.00  0.00    -0.276 N 
ATOM     14  C   UNK A   0       1.402  -3.018  -8.558  0.00  0.00    +0.248 C 
ATOM     15  O   UNK A   0       2.136  -3.012  -7.589  0.00  0.00    -0.270 OA
ATOM     16  C   UNK A   0       1.621  -3.806  -9.772  0.00  0.00    +0.042 A 
ATOM     17  C   UNK A   0       0.611  -3.475 -10.713  0.00  0.00    -0.013 A 
ATOM     18  C   UNK A   0       0.549  -4.058 -11.959  0.00  0.00    +0.006 A 
ATOM     19  C   UNK A   0       1.533  -4.993 -12.269  0.00  0.00    +0.000 A 
ATOM     20  C   UNK A   0       2.530  -5.324 -11.374  0.00  0.00    +0.001 A 
ATOM     21  C   UNK A   0       2.609  -4.743 -10.087  0.00  0.00    +0.013 A 
ATOM     22  H   UNK A   0      -1.712  -4.447 -11.501  0.00  0.00    +0.160 HD
ENDROOT
BRANCH   1  24
ATOM     23  N   LEU A   1       0.778  -0.604  -5.620  0.00  0.00    -0.302 N 
ATOM     24  C   UNK A   0       0.379  -1.685  -6.319  0.00  0.00    +0.235 C 
ATOM     25  O   UNK A   0       0.626  -2.798  -5.907  0.00  0.00    -0.274 OA
ATOM     26  H   LEU A   1       0.517   0.285  -5.910  0.00  0.00    +0.150 HD
BRANCH  23  27
ATOM     27  CA  LEU A   1       1.606  -0.770  -4.423  0.00  0.00    +0.159 C 
BRANCH  27  29
ATOM     28  N   LEU A   1       1.933   0.422  -2.281  0.00  0.00    -0.301 N 
ATOM     29  C   LEU A   1       1.471   0.449  -3.546  0.00  0.00    +0.234 C 
ATOM     30  O   LEU A   1       0.948   1.453  -3.980  0.00  0.00    -0.274 OA
ATOM     31  H   LEU A   1       2.310  -0.395  -1.919  0.00  0.00    +0.150 HD
BRANCH  28  33
ATOM     32  CB  LEU A   1       3.091   2.504  -1.724  0.00  0.00    +0.040 C 
ATOM     33  CA  LEU A   1       1.867   1.628  -1.451  0.00  0.00    +0.183 C 
BRANCH  33  34
ATOM     34  C   LEU A   1       1.844   1.236   0.004  0.00  0.00    +0.376 C 
ATOM     35  O   LEU A   1       1.607   2.075   0.857  0.00  0.00    -0.244 OA
ATOM     36  OXT LEU A   1       2.062   0.082   0.328  0.00  0.00    -0.244 OA
ENDBRANCH  33  34
ENDBRANCH  28  33
ENDBRANCH  27  29
BRANCH  27  37
ATOM     37  CB  LEU A   1       3.069  -0.943  -4.834  0.00  0.00    +0.034 C 
BRANCH  37  38
ATOM     38  CG  LEU A   1       3.929  -1.150  -3.586  0.00  0.00    -0.015 C 
ATOM     39  CD1 LEU A   1       3.562  -2.483  -2.929  0.00  0.00    +0.007 C 
ATOM     40  CD2 LEU A   1       5.407  -1.167  -3.981  0.00  0.00    +0.007 C 
ENDBRANCH  37  38
ENDBRANCH  27  37
ENDBRANCH  23  27
ENDBRANCH   1  24
TORSDOF 7
