REMARK  Name = ZINC39584144
REMARK  9 active torsions:
REMARK  status: ('A' for Active; 'I' for Inactive)
REMARK    1  A    between atoms: C_1  and  O_2
REMARK    2  A    between atoms: O_2  and  C_3
REMARK    3  A    between atoms: C_6  and  N_9
REMARK    4  A    between atoms: C_10  and  C_27
REMARK    5  A    between atoms: C_14  and  S_16
REMARK    6  A    between atoms: S_16  and  C_17
REMARK    7  A    between atoms: C_17  and  C_18
REMARK    8  A    between atoms: C_27  and  O_28
REMARK    9  A    between atoms: O_28  and  C_29
REMARK                            x       y       z     vdW  Elec       q    Type
REMARK                         _______ _______ _______ _____ _____    ______ ____
ROOT
ATOM      1  N   UNL     1       2.731  -2.503   4.253  0.00  0.00    -0.285 N 
ATOM      2  C   UNL     1       2.609  -3.956   4.486  0.00  0.00    +0.195 C 
ATOM      3  N   UNL     1       3.725  -4.273   5.415  0.00  0.00    -0.231 NA
ATOM      4  N   UNL     1       3.762  -3.099   6.300  0.00  0.00    -0.226 NA
ATOM      5  C   UNL     1       3.471  -1.956   5.404  0.00  0.00    +0.217 C 
ATOM      6  H   UNL     1       4.595  -4.376   4.913  0.00  0.00    +0.143 HD
ATOM      7  H   UNL     1       4.670  -2.997   6.728  0.00  0.00    +0.143 HD
ENDROOT
BRANCH   1  11
ATOM      8  C   UNL     1       1.284  -0.371   0.976  0.00  0.00    +0.120 A 
ATOM      9  C   UNL     1       2.651  -0.465   1.193  0.00  0.00    +0.047 A 
ATOM     10  C   UNL     1       3.131  -1.171   2.279  0.00  0.00    +0.027 A 
ATOM     11  C   UNL     1       2.245  -1.787   3.153  0.00  0.00    +0.033 A 
ATOM     12  C   UNL     1       0.877  -1.691   2.936  0.00  0.00    +0.027 A 
ATOM     13  C   UNL     1       0.399  -0.980   1.853  0.00  0.00    +0.047 A 
BRANCH   8  15
ATOM     14  C   UNL     1       1.781   0.927  -0.954  0.00  0.00    +0.277 C 
ATOM     15  O   UNL     1       0.812   0.325  -0.093  0.00  0.00    -0.495 OA
ENDBRANCH   8  15
ENDBRANCH   1  11
BRANCH   5  16
ATOM     16  S   UNL     1       2.453  -0.733   6.274  0.00  0.00    -0.114 S 
BRANCH  16  17
ATOM     17  C   UNL     1       0.989  -1.670   6.794  0.00  0.00    +0.146 C 
BRANCH  17  18
ATOM     18  C   UNL     1       0.047  -0.759   7.538  0.00  0.00    +0.118 A 
ATOM     19  N   UNL     1      -0.903  -0.061   6.989  0.00  0.00    -0.232 NA
ATOM     20  C   UNL     1      -1.559   0.648   7.944  0.00  0.00    +0.089 A 
ATOM     21  C   UNL     1      -2.635   1.538   7.915  0.00  0.00    +0.030 A 
ATOM     22  C   UNL     1      -3.080   2.106   9.075  0.00  0.00    +0.002 A 
ATOM     23  C   UNL     1      -2.475   1.808  10.287  0.00  0.00    +0.002 A 
ATOM     24  C   UNL     1      -1.411   0.932  10.340  0.00  0.00    +0.028 A 
ATOM     25  C   UNL     1      -0.945   0.345   9.172  0.00  0.00    +0.066 A 
ATOM     26  N   UNL     1       0.064  -0.552   8.882  0.00  0.00    -0.341 N 
ATOM     27  H   UNL     1       0.673  -0.957   9.519  0.00  0.00    +0.167 HD
ENDBRANCH  17  18
ENDBRANCH  16  17
ENDBRANCH   5  16
BRANCH   2  28
ATOM     28  C   UNL     1       2.768  -4.724   3.172  0.00  0.00    +0.268 C 
BRANCH  28  29
ATOM     29  O   UNL     1       4.025  -4.396   2.578  0.00  0.00    -0.489 OA
BRANCH  29  30
ATOM     30  C   UNL     1       4.324  -4.997   1.396  0.00  0.00    +0.121 A 
ATOM     31  C   UNL     1       3.424  -5.880   0.818  0.00  0.00    +0.047 A 
ATOM     32  C   UNL     1       3.730  -6.490  -0.383  0.00  0.00    +0.023 A 
ATOM     33  C   UNL     1       4.934  -6.221  -1.009  0.00  0.00    +0.041 A 
ATOM     34  C   UNL     1       5.834  -5.341  -0.434  0.00  0.00    +0.023 A 
ATOM     35  C   UNL     1       5.529  -4.724   0.764  0.00  0.00    +0.047 A 
ATOM     36 CL   UNL     1       5.317  -6.990  -2.518  0.00  0.00    -0.084 Cl
ENDBRANCH  29  30
ENDBRANCH  28  29
ENDBRANCH   2  28
TORSDOF 8
