REMARK  Name = ZINC54381964
REMARK  7 active torsions:
REMARK  status: ('A' for Active; 'I' for Inactive)
REMARK    1  A    between atoms: C_1  and  C_2
REMARK    2  A    between atoms: C_2  and  C_4
REMARK    3  A    between atoms: C_2  and  N_15
REMARK    4  A    between atoms: C_7  and  S_10
REMARK    5  A    between atoms: S_10  and  N_13
REMARK    6  A    between atoms: N_13  and  C_14
REMARK    7  A    between atoms: N_18  and  C_19
REMARK                            x       y       z     vdW  Elec       q    Type
REMARK                         _______ _______ _______ _____ _____    ______ ____
ROOT
ATOM      1  C   UNL     1      -0.031   1.501   0.023  0.00  0.00    +0.033 C 
ATOM      2  C   UNL     1       0.001  -0.028   0.012  0.00  0.00    +0.102 C 
ENDROOT
BRANCH   2   3
ATOM      3  C   UNL     1      -1.408  -0.561   0.026  0.00  0.00    -0.027 A 
ATOM      4  C   UNL     1      -2.141  -0.607  -1.146  0.00  0.00    +0.007 A 
ATOM      5  C   UNL     1      -3.434  -1.096  -1.133  0.00  0.00    +0.029 A 
ATOM      6  C   UNL     1      -3.995  -1.538   0.051  0.00  0.00    +0.105 A 
ATOM      7  C   UNL     1      -3.261  -1.492   1.222  0.00  0.00    +0.029 A 
ATOM      8  C   UNL     1      -1.967  -1.008   1.209  0.00  0.00    +0.007 A 
BRANCH   6   9
ATOM      9  S   UNL     1      -5.643  -2.159   0.068  0.00  0.00    +0.058 S 
ATOM     10  O   UNL     1      -6.123  -2.001   1.396  0.00  0.00    -0.153 OA
ATOM     11  O   UNL     1      -6.304  -1.589  -1.054  0.00  0.00    -0.153 OA
BRANCH   9  12
ATOM     12  N   UNL     1      -5.555  -3.789  -0.213  0.00  0.00    -0.193 NA
ATOM     13  C   UNL     1      -4.899  -4.665   0.760  0.00  0.00    +0.127 C 
ATOM     14  H   UNL     1      -5.938  -4.163  -1.022  0.00  0.00    +0.148 HD
ENDBRANCH   9  12
ENDBRANCH   6   9
ENDBRANCH   2   3
BRANCH   2  15
ATOM     15  N   UNL     1       0.687  -0.493  -1.196  0.00  0.00    -0.293 N 
ATOM     16  C   UNL     1       2.031  -0.594  -1.212  0.00  0.00    +0.304 C 
ATOM     17  O   UNL     1       2.674  -0.298  -0.224  0.00  0.00    -0.252 OA
ATOM     18  N   UNL     1       2.662  -1.022  -2.324  0.00  0.00    -0.267 N 
ATOM     19  H   UNL     1       0.174  -0.729  -1.985  0.00  0.00    +0.151 HD
ATOM     20  H   UNL     1       2.147  -1.319  -3.090  0.00  0.00    +0.156 HD
BRANCH  18  21
ATOM     21  C   UNL     1       4.062  -1.037  -2.373  0.00  0.00    +0.072 A 
ATOM     22  C   UNL     1       4.794  -1.326  -1.229  0.00  0.00    +0.026 A 
ATOM     23  C   UNL     1       6.175  -1.341  -1.280  0.00  0.00    +0.003 A 
ATOM     24  C   UNL     1       6.829  -1.068  -2.467  0.00  0.00    +0.023 A 
ATOM     25  C   UNL     1       6.104  -0.779  -3.609  0.00  0.00    +0.078 A 
ATOM     26  C   UNL     1       4.720  -0.769  -3.567  0.00  0.00    +0.163 A 
ATOM     27  F   UNL     1       4.011  -0.493  -4.684  0.00  0.00    -0.202 F 
ATOM     28 CL   UNL     1       6.929  -0.436  -5.098  0.00  0.00    -0.081 Cl
ENDBRANCH  18  21
ENDBRANCH   2  15
TORSDOF 5
