REMARK  Name = ZINC39361474
REMARK  7 active torsions:
REMARK  status: ('A' for Active; 'I' for Inactive)
REMARK    1  A    between atoms: C_1  and  C_2
REMARK    2  A    between atoms: C_11  and  N_30
REMARK    3  A    between atoms: C_12  and  C_26
REMARK    4  A    between atoms: N_20  and  C_23
REMARK    5  A    between atoms: C_23  and  C_24
REMARK    6  A    between atoms: C_26  and  O_28
REMARK    7  A    between atoms: O_28  and  C_29
REMARK                            x       y       z     vdW  Elec       q    Type
REMARK                         _______ _______ _______ _____ _____    ______ ____
ROOT
ATOM      1  C   UNL     1       0.019   1.411  -0.289  0.00  0.00    +0.063 C 
ATOM      2  C   UNL     1       0.079  -0.090  -0.173  0.00  0.00    +0.034 C 
ATOM      3  N   UNL     1       0.256  -0.815  -1.255  0.00  0.00    -0.185 NA
ATOM      4  C   UNL     1       0.328  -2.138  -1.228  0.00  0.00    +0.248 C 
ATOM      5  O   UNL     1       0.467  -2.734  -2.277  0.00  0.00    -0.273 OA
ATOM      6  C   UNL     1       0.248  -2.931   0.041  0.00  0.00    +0.167 C 
ATOM      7  C   UNL     1       0.004  -2.024   1.224  0.00  0.00    +0.122 C 
ATOM      8  C   UNL     1      -0.048  -0.687   1.085  0.00  0.00    +0.063 C 
ATOM      9  O   UNL     1      -0.162  -2.607   2.433  0.00  0.00    -0.445 OA
ATOM     10  C   UNL     1      -0.897  -3.739   2.471  0.00  0.00    +0.195 C 
ATOM     11  C   UNL     1      -1.268  -4.404   1.350  0.00  0.00    +0.114 C 
ATOM     12  C   UNL     1      -0.915  -3.922  -0.027  0.00  0.00    +0.128 C 
ATOM     13  C   UNL     1      -0.584  -5.070  -0.928  0.00  0.00    -0.005 A 
ATOM     14  C   UNL     1       0.402  -6.031  -0.859  0.00  0.00    +0.007 A 
ATOM     15  C   UNL     1       0.435  -6.975  -1.879  0.00  0.00    +0.000 A 
ATOM     16  C   UNL     1      -0.479  -6.948  -2.913  0.00  0.00    +0.002 A 
ATOM     17  C   UNL     1      -1.473  -5.986  -2.989  0.00  0.00    +0.024 A 
ATOM     18  C   UNL     1      -1.518  -5.032  -1.970  0.00  0.00    +0.041 A 
ATOM     19  N   UNL     1      -2.391  -3.973  -1.795  0.00  0.00    -0.266 N 
ATOM     20  C   UNL     1      -2.114  -3.267  -0.679  0.00  0.00    +0.237 C 
ATOM     21  O   UNL     1      -2.712  -2.292  -0.275  0.00  0.00    -0.274 OA
ENDROOT
BRANCH  10  22
ATOM     22  N   UNL     1      -1.284  -4.234   3.688  0.00  0.00    -0.329 N 
ATOM     23  H   UNL     1      -0.957  -3.823   4.504  0.00  0.00    +0.145 HD
ATOM     24  H   UNL     1      -1.884  -4.994   3.734  0.00  0.00    +0.145 HD
ENDBRANCH  10  22
BRANCH  11  25
ATOM     25  C   UNL     1      -2.013  -5.586   1.482  0.00  0.00    +0.341 C 
ATOM     26  O   UNL     1      -3.217  -5.571   1.295  0.00  0.00    -0.245 OA
BRANCH  25  27
ATOM     27  O   UNL     1      -1.395  -6.740   1.815  0.00  0.00    -0.465 OA
ATOM     28  C   UNL     1      -2.215  -7.904   1.933  0.00  0.00    +0.280 C 
ENDBRANCH  25  27
ENDBRANCH  11  25
BRANCH  19  29
ATOM     29  C   UNL     1      -3.488  -3.656  -2.713  0.00  0.00    +0.140 C 
BRANCH  29  30
ATOM     30  C   UNL     1      -4.733  -4.387  -2.281  0.00  0.00    -0.015 C 
ATOM     31  C   UNL     1      -5.839  -3.722  -2.057  0.00  0.00    +0.005 C 
ENDBRANCH  29  30
ENDBRANCH  19  29
TORSDOF 5
