REMARK  Name = ZINC58993732
REMARK  6 active torsions:
REMARK  status: ('A' for Active; 'I' for Inactive)
REMARK    1  A    between atoms: C_3  and  C_8
REMARK    2  A    between atoms: N_9  and  N_10
REMARK    3  A    between atoms: C_13  and  S_16
REMARK    4  A    between atoms: S_16  and  C_17
REMARK    5  A    between atoms: C_17  and  C_18
REMARK    6  A    between atoms: N_20  and  C_21
REMARK                            x       y       z     vdW  Elec       q    Type
REMARK                         _______ _______ _______ _____ _____    ______ ____
ROOT
ATOM      1  N   UNL     1       5.991   2.238  -0.069  0.00  0.00    -0.205 N 
ATOM      2  C   UNL     1       7.197   1.560  -0.081  0.00  0.00    +0.232 A 
ATOM      3  N   UNL     1       7.349   0.253  -0.086  0.00  0.00    -0.186 NA
ATOM      4  C   UNL     1       8.652  -0.048  -0.098  0.00  0.00    +0.211 A 
ATOM      5  N   UNL     1       9.347   1.065  -0.102  0.00  0.00    -0.144 NA
ATOM      6  N   UNL     1       8.424   2.123  -0.097  0.00  0.00    -0.245 N 
ATOM      7  H   UNL     1       5.980   3.208  -0.071  0.00  0.00    +0.177 HD
ATOM      8  H   UNL     1       8.627   3.072  -0.101  0.00  0.00    +0.192 HD
ENDROOT
BRANCH   1  10
ATOM      9  C   UNL     1       3.655   2.160  -0.043  0.00  0.00    +0.138 C 
ATOM     10  N   UNL     1       4.786   1.524  -0.054  0.00  0.00    -0.188 NA
BRANCH   9  13
ATOM     11  C   UNL     1      -0.016   1.381  -0.000  0.00  0.00    +0.002 A 
ATOM     12  C   UNL     1       1.167   2.090  -0.015  0.00  0.00    +0.009 A 
ATOM     13  C   UNL     1       2.386   1.409  -0.027  0.00  0.00    -0.004 A 
ATOM     14  C   UNL     1       2.398   0.012  -0.024  0.00  0.00    +0.024 A 
ATOM     15  C   UNL     1       1.207  -0.685  -0.010  0.00  0.00    +0.018 A 
ATOM     16  C   UNL     1       0.002  -0.003   0.002  0.00  0.00    +0.015 A 
ATOM     17 BR   UNL     1       1.220  -2.576  -0.007  0.00  0.00    -0.050 Br
ENDBRANCH   9  13
ENDBRANCH   1  10
BRANCH   4  18
ATOM     18  S   UNL     1       9.327  -1.676  -0.108  0.00  0.00    -0.075 S 
BRANCH  18  19
ATOM     19  C   UNL     1      11.121  -1.407  -0.124  0.00  0.00    +0.173 C 
BRANCH  19  20
ATOM     20  C   UNL     1      11.828  -2.737  -0.133  0.00  0.00    +0.227 C 
ATOM     21  O   UNL     1      11.185  -3.766  -0.130  0.00  0.00    -0.275 OA
ATOM     22  N   UNL     1      13.175  -2.785  -0.146  0.00  0.00    -0.285 N 
ATOM     23  H   UNL     1      13.688  -1.965  -0.216  0.00  0.00    +0.155 HD
BRANCH  22  24
ATOM     24  C   UNL     1      13.833  -4.017  -0.057  0.00  0.00    +0.033 A 
ATOM     25  C   UNL     1      15.033  -4.116   0.635  0.00  0.00    +0.024 A 
ATOM     26  C   UNL     1      15.680  -5.333   0.721  0.00  0.00    +0.017 A 
ATOM     27  C   UNL     1      15.133  -6.453   0.120  0.00  0.00    +0.018 A 
ATOM     28  C   UNL     1      13.938  -6.357  -0.570  0.00  0.00    +0.017 A 
ATOM     29  C   UNL     1      13.284  -5.143  -0.655  0.00  0.00    +0.024 A 
ATOM     30 BR   UNL     1      16.022  -8.118   0.240  0.00  0.00    -0.050 Br
ENDBRANCH  22  24
ENDBRANCH  19  20
ENDBRANCH  18  19
ENDBRANCH   4  18
TORSDOF 6
