REMARK  Name = ZINC04494681
REMARK  4 active torsions:
REMARK  status: ('A' for Active; 'I' for Inactive)
REMARK    1  A    between atoms: C_4  and  C_7
REMARK    2  A    between atoms: C_14  and  N_28
REMARK    3  A    between atoms: C_15  and  C_26
REMARK    4  A    between atoms: C_16  and  C_18
REMARK                            x       y       z     vdW  Elec       q    Type
REMARK                         _______ _______ _______ _____ _____    ______ ____
ROOT
ATOM      1  C   UNL     1       3.696  -0.686  -0.038  0.00  0.00    +0.074 A 
ATOM      2  C   UNL     1       4.018  -1.743  -0.822  0.00  0.00    +0.054 A 
ATOM      3  C   UNL     1       5.341  -2.122  -0.523  0.00  0.00    +0.245 A 
ATOM      4  N   UNL     1       5.797  -1.326   0.401  0.00  0.00    -0.135 NA
ATOM      5  N   UNL     1       4.791  -0.404   0.730  0.00  0.00    -0.273 N 
ATOM      6  H   UNL     1       4.860   0.306   1.387  0.00  0.00    +0.189 HD
ATOM      7  O   UNL     1       5.951  -3.164  -1.151  0.00  0.00    -0.421 OA
ATOM      8  C   UNL     1       5.173  -3.997  -1.871  0.00  0.00    +0.201 C 
ATOM      9  C   UNL     1       3.898  -3.736  -2.228  0.00  0.00    +0.098 C 
ATOM     10  C   UNL     1       3.188  -2.458  -1.857  0.00  0.00    +0.104 C 
ENDROOT
BRANCH  10  11
ATOM     11  C   UNL     1       3.036  -1.588  -3.078  0.00  0.00    +0.002 A 
ATOM     12  C   UNL     1       4.154  -1.183  -3.781  0.00  0.00    +0.022 A 
ATOM     13  C   UNL     1       4.015  -0.384  -4.902  0.00  0.00    +0.018 A 
ATOM     14  C   UNL     1       2.756   0.010  -5.319  0.00  0.00    +0.018 A 
ATOM     15  C   UNL     1       1.637  -0.394  -4.617  0.00  0.00    +0.040 A 
ATOM     16  C   UNL     1       1.776  -1.199  -3.498  0.00  0.00    +0.128 A 
ATOM     17  F   UNL     1       0.681  -1.599  -2.814  0.00  0.00    -0.205 F 
ATOM     18 BR   UNL     1       5.546   0.170  -5.863  0.00  0.00    -0.050 Br
ENDBRANCH  10  11
BRANCH   1  22
ATOM     19  C   UNL     1      -0.017   1.379   0.010  0.00  0.00    +0.000 A 
ATOM     20  C   UNL     1       1.168   2.093   0.002  0.00  0.00    +0.001 A 
ATOM     21  C   UNL     1       2.377   1.428  -0.013  0.00  0.00    +0.010 A 
ATOM     22  C   UNL     1       2.403   0.033  -0.021  0.00  0.00    +0.000 A 
ATOM     23  C   UNL     1       1.205  -0.680  -0.013  0.00  0.00    +0.010 A 
ATOM     24  C   UNL     1       0.002  -0.004   0.002  0.00  0.00    +0.001 A 
ENDBRANCH   1  22
BRANCH   8  25
ATOM     25  N   UNL     1       5.716  -5.193  -2.271  0.00  0.00    -0.328 N 
ATOM     26  H   UNL     1       6.630  -5.414  -2.033  0.00  0.00    +0.145 HD
ATOM     27  H   UNL     1       5.186  -5.816  -2.790  0.00  0.00    +0.145 HD
ENDBRANCH   8  25
BRANCH   9  28
ATOM     28  C   UNL     1       3.188  -4.716  -2.993  0.00  0.00    +0.101 C 
ATOM     29  N   UNL     1       2.624  -5.493  -3.600  0.00  0.00    -0.191 NA
ENDBRANCH   9  28
TORSDOF 4
