REMARK  Name = ZINC08424471
REMARK  7 active torsions:
REMARK  status: ('A' for Active; 'I' for Inactive)
REMARK    1  A    between atoms: C_6  and  C_7
REMARK    2  A    between atoms: C_9  and  C_19
REMARK    3  A    between atoms: N_13  and  C_14
REMARK    4  A    between atoms: C_14  and  C_15
REMARK    5  A    between atoms: C_15  and  C_16
REMARK    6  A    between atoms: C_16  and  O_17
REMARK    7  A    between atoms: C_19  and  C_21
REMARK                            x       y       z     vdW  Elec       q    Type
REMARK                         _______ _______ _______ _____ _____    ______ ____
ROOT
ATOM      1  C   UNL     1      -1.258  -0.757   0.015  0.00  0.00    +0.145 C 
ATOM      2  C   UNL     1      -1.504  -1.401   1.359  0.00  0.00    +0.076 C 
ATOM      3  C   UNL     1      -1.574  -2.736   1.146  0.00  0.00    +0.249 C 
ATOM      4  C   UNL     1      -1.383  -3.008  -0.294  0.00  0.00    +0.288 C 
ATOM      5  O   UNL     1      -1.393  -4.111  -0.803  0.00  0.00    -0.266 OA
ATOM      6  N   UNL     1      -1.199  -1.852  -0.960  0.00  0.00    -0.283 N 
ATOM      7  O   UNL     1      -1.784  -3.672   2.100  0.00  0.00    -0.282 OA
ENDROOT
BRANCH   1  13
ATOM      8  C   UNL     1       0.054   1.374  -0.035  0.00  0.00    +0.007 A 
ATOM      9  C   UNL     1       1.252   2.063  -0.021  0.00  0.00    +0.015 A 
ATOM     10  C   UNL     1       2.446   1.371   0.061  0.00  0.00    +0.018 A 
ATOM     11  C   UNL     1       2.441  -0.011   0.128  0.00  0.00    +0.015 A 
ATOM     12  C   UNL     1       1.242  -0.699   0.113  0.00  0.00    +0.007 A 
ATOM     13  C   UNL     1       0.049  -0.006   0.031  0.00  0.00    -0.022 A 
ATOM     14 BR   UNL     1       4.086   2.312   0.081  0.00  0.00    -0.050 Br
ENDBRANCH   1  13
BRANCH   2  15
ATOM     15  C   UNL     1      -1.641  -0.712   2.646  0.00  0.00    +0.195 C 
ATOM     16  O   UNL     1      -0.806  -0.877   3.516  0.00  0.00    -0.287 OA
BRANCH  15  17
ATOM     17  C   UNL     1      -2.793   0.181   2.888  0.00  0.00    +0.022 A 
ATOM     18  C   UNL     1      -3.816   0.279   1.941  0.00  0.00    +0.013 A 
ATOM     19  C   UNL     1      -4.888   1.114   2.172  0.00  0.00    +0.016 A 
ATOM     20  C   UNL     1      -4.952   1.856   3.340  0.00  0.00    +0.018 A 
ATOM     21  C   UNL     1      -3.941   1.765   4.282  0.00  0.00    +0.016 A 
ATOM     22  C   UNL     1      -2.866   0.928   4.066  0.00  0.00    +0.013 A 
ATOM     23 BR   UNL     1      -6.426   3.000   3.649  0.00  0.00    -0.050 Br
ENDBRANCH  15  17
ENDBRANCH   2  15
BRANCH   6  24
ATOM     24  C   UNL     1      -0.978  -1.712  -2.402  0.00  0.00    +0.111 C 
BRANCH  24  25
ATOM     25  C   UNL     1       0.522  -1.771  -2.696  0.00  0.00    +0.047 C 
BRANCH  25  26
ATOM     26  C   UNL     1       0.753  -1.624  -4.202  0.00  0.00    +0.157 C 
BRANCH  26  27
ATOM     27  O   UNL     1       2.154  -1.679  -4.476  0.00  0.00    -0.395 OA
ATOM     28  H   UNL     1       2.375  -1.593  -5.414  0.00  0.00    +0.209 HD
ENDBRANCH  26  27
ENDBRANCH  25  26
ENDBRANCH  24  25
ENDBRANCH   6  24
TORSDOF 7
