REMARK  Name = ZINC03270698
REMARK  12 active torsions:
REMARK  status: ('A' for Active; 'I' for Inactive)
REMARK    1  A    between atoms: C_1  and  C_2
REMARK    2  A    between atoms: C_5  and  C_8
REMARK    3  A    between atoms: C_8  and  C_10
REMARK    4  A    between atoms: C_12  and  C_31
REMARK    5  A    between atoms: C_16  and  C_21
REMARK    6  A    between atoms: C_24  and  C_27
REMARK    7  A    between atoms: C_27  and  C_28
REMARK    8  A    between atoms: C_27  and  C_29
REMARK    9  A    between atoms: C_27  and  C_30
REMARK   10  A    between atoms: C_34  and  C_37
REMARK   11  A    between atoms: C_37  and  O_39
REMARK   12  A    between atoms: O_39  and  C_40
REMARK                            x       y       z     vdW  Elec       q    Type
REMARK                         _______ _______ _______ _____ _____    ______ ____
ROOT
ATOM      1  C   UNL     1      -0.295   0.502  -0.124  0.00  0.00    +0.151 C 
ATOM      2  C   UNL     1      -0.877   1.904  -0.346  0.00  0.00    +0.139 C 
ATOM      3  N   UNL     1       0.198   2.889  -0.479  0.00  0.00    -0.272 N 
ATOM      4  N   UNL     1       1.011   2.960   0.607  0.00  0.00    -0.221 N 
ATOM      5  C   UNL     1       1.824   4.003   0.978  0.00  0.00    +0.182 A 
ATOM      6  N   UNL     1       2.444   3.636   2.078  0.00  0.00    -0.127 NA
ATOM      7  N   UNL     1       2.075   2.450   2.417  0.00  0.00    -0.121 NA
ATOM      8  C   UNL     1       1.201   1.998   1.558  0.00  0.00    +0.210 A 
ATOM      9  S   UNL     1       0.376   0.437   1.564  0.00  0.00    -0.071 S 
ATOM     10  H   UNL     1       0.732   2.730  -1.320  0.00  0.00    +0.167 HD
ENDROOT
BRANCH   5  11
ATOM     11  C   UNL     1       1.973   5.294   0.274  0.00  0.00    +0.021 A 
ATOM     12  C   UNL     1       1.510   5.437  -1.035  0.00  0.00    +0.012 A 
ATOM     13  C   UNL     1       1.649   6.646  -1.685  0.00  0.00    +0.005 A 
ATOM     14  C   UNL     1       2.254   7.713  -1.045  0.00  0.00    -0.042 A 
ATOM     15  C   UNL     1       2.719   7.577   0.251  0.00  0.00    +0.005 A 
ATOM     16  C   UNL     1       2.583   6.375   0.914  0.00  0.00    +0.012 A 
BRANCH  14  17
ATOM     17  C   UNL     1       2.407   9.029  -1.763  0.00  0.00    -0.013 C 
ATOM     18  C   UNL     1       3.891   9.387  -1.861  0.00  0.00    +0.015 C 
ATOM     19  C   UNL     1       1.815   8.915  -3.169  0.00  0.00    +0.015 C 
ATOM     20  C   UNL     1       1.669  10.122  -0.987  0.00  0.00    +0.015 C 
ENDBRANCH  14  17
ENDBRANCH   5  11
BRANCH   2  21
ATOM     21  C   UNL     1      -1.711   1.905  -1.601  0.00  0.00    -0.024 A 
ATOM     22  C   UNL     1      -1.097   2.005  -2.837  0.00  0.00    +0.006 A 
ATOM     23  C   UNL     1      -1.854   2.001  -3.989  0.00  0.00    +0.015 A 
ATOM     24  C   UNL     1      -3.244   1.907  -3.907  0.00  0.00    +0.059 A 
ATOM     25  C   UNL     1      -3.859   1.813  -2.657  0.00  0.00    +0.015 A 
ATOM     26  C   UNL     1      -3.089   1.812  -1.512  0.00  0.00    +0.006 A 
BRANCH  24  27
ATOM     27  C   UNL     1      -4.062   1.908  -5.137  0.00  0.00    +0.339 C 
ATOM     28  O   UNL     1      -5.272   1.826  -5.062  0.00  0.00    -0.245 OA
BRANCH  27  29
ATOM     29  O   UNL     1      -3.467   2.000  -6.342  0.00  0.00    -0.464 OA
ATOM     30  C   UNL     1      -4.333   1.995  -7.508  0.00  0.00    +0.280 C 
ENDBRANCH  27  29
ENDBRANCH  24  27
ENDBRANCH   2  21
BRANCH   1  31
ATOM     31  C   UNL     1      -1.381  -0.531  -0.282  0.00  0.00    +0.179 C 
ATOM     32  O   UNL     1      -1.490  -1.142  -1.324  0.00  0.00    -0.291 OA
BRANCH  31  37
ATOM     33  C   UNL     1      -5.005  -1.578   4.056  0.00  0.00    +0.044 C 
ATOM     34  C   UNL     1      -4.055  -1.304   2.919  0.00  0.00    -0.050 A 
ATOM     35  C   UNL     1      -4.068  -2.118   1.799  0.00  0.00    +0.004 A 
ATOM     36  C   UNL     1      -3.202  -1.873   0.754  0.00  0.00    +0.011 A 
ATOM     37  C   UNL     1      -2.309  -0.799   0.828  0.00  0.00    +0.019 A 
ATOM     38  C   UNL     1      -2.298   0.015   1.965  0.00  0.00    +0.011 A 
ATOM     39  C   UNL     1      -3.174  -0.239   2.999  0.00  0.00    +0.004 A 
ENDBRANCH  31  37
ENDBRANCH   1  31
TORSDOF 7
