REMARK  Name = ZINC28731336
REMARK  15 active torsions:
REMARK  status: ('A' for Active; 'I' for Inactive)
REMARK    1  A    between atoms: C_1  and  C_2
REMARK    2  A    between atoms: C_2  and  C_3
REMARK    3  A    between atoms: C_3  and  C_4
REMARK    4  A    between atoms: C_7  and  C_10
REMARK    5  A    between atoms: C_10  and  C_12
REMARK    6  A    between atoms: C_10  and  N_15
REMARK    7  A    between atoms: C_12  and  C_13
REMARK    8  A    between atoms: C_12  and  C_14
REMARK    9  A    between atoms: N_15  and  C_16
REMARK   10  A    between atoms: C_16  and  C_17
REMARK   11  A    between atoms: N_19  and  C_20
REMARK   12  A    between atoms: C_22  and  S_28
REMARK   13  A    between atoms: C_24  and  C_27
REMARK   14  A    between atoms: C_25  and  C_26
REMARK   15  A    between atoms: S_28  and  N_31
REMARK                            x       y       z     vdW  Elec       q    Type
REMARK                         _______ _______ _______ _____ _____    ______ ____
ROOT
ATOM      1  C   UNL     1      -3.855  -0.514   3.474  0.00  0.00    +0.200 C 
ATOM      2  O   UNL     1      -3.159  -0.755   2.511  0.00  0.00    -0.278 OA
ATOM      3  N   UNL     1      -3.663   0.619   4.178  0.00  0.00    -0.287 N 
ATOM      4  H   UNL     1      -4.238   0.798   5.099  0.00  0.00    +0.155 HD
ENDROOT
BRANCH   3   5
ATOM      5  C   UNL     1      -2.734   1.568   3.737  0.00  0.00    +0.038 A 
ATOM      6  C   UNL     1      -1.578   1.159   3.086  0.00  0.00    +0.052 A 
ATOM      7  C   UNL     1      -0.663   2.098   2.652  0.00  0.00    +0.107 A 
ATOM      8  C   UNL     1      -0.895   3.444   2.870  0.00  0.00    +0.032 A 
ATOM      9  C   UNL     1      -2.048   3.854   3.513  0.00  0.00    -0.044 A 
ATOM     10  C   UNL     1      -2.967   2.920   3.950  0.00  0.00    -0.026 A 
ATOM     11  C   UNL     1      -4.221   3.368   4.655  0.00  0.00    +0.046 C 
ATOM     12  C   UNL     1      -2.299   5.322   3.742  0.00  0.00    +0.044 C 
BRANCH   7  13
ATOM     13  S   UNL     1       0.805   1.580   1.827  0.00  0.00    +0.056 S 
ATOM     14  O   UNL     1       1.051   0.241   2.236  0.00  0.00    -0.153 OA
ATOM     15  O   UNL     1       1.759   2.618   2.005  0.00  0.00    -0.153 OA
BRANCH  13  16
ATOM     16  N   UNL     1       0.463   1.524   0.207  0.00  0.00    -0.204 NA
ATOM     17  H   UNL     1       1.358   1.204  -0.346  0.00  0.00    +0.144 HD
ATOM     18  H   UNL     1       0.157   2.523  -0.137  0.00  0.00    +0.144 HD
ENDBRANCH  13  16
ENDBRANCH   7  13
ENDBRANCH   3   5
BRANCH   1  19
ATOM     19  C   UNL     1      -4.934  -1.483   3.885  0.00  0.00    +0.016 C 
BRANCH  19  20
ATOM     20  N   UNL     1      -4.939  -2.628   2.965  0.00  0.00    +0.389 N 
ATOM     21  H   UNL     1      -3.985  -3.166   3.066  0.00  0.00    -0.084 HD
ATOM     22  H   UNL     1      -5.042  -2.254   1.936  0.00  0.00    -0.084 HD
BRANCH  20  23
ATOM     23  C   UNL     1      -6.050  -3.541   3.268  0.00  0.00    -0.038 C 
BRANCH  23  27
ATOM     24  C   UNL     1      -7.238  -5.569  -0.299  0.00  0.00    -0.047 A 
ATOM     25  C   UNL     1      -8.194  -5.130   0.597  0.00  0.00    +0.004 A 
ATOM     26  C   UNL     1      -7.810  -4.474   1.752  0.00  0.00    +0.002 A 
ATOM     27  C   UNL     1      -6.469  -4.257   2.010  0.00  0.00    -0.061 A 
ATOM     28  C   UNL     1      -5.513  -4.692   1.111  0.00  0.00    +0.002 A 
ATOM     29  C   UNL     1      -5.897  -5.352  -0.041  0.00  0.00    +0.004 A 
BRANCH  24  30
ATOM     30  C   UNL     1      -7.657  -6.284  -1.558  0.00  0.00    +0.035 C 
BRANCH  30  32
ATOM     31  C   UNL     1      -8.295  -5.988  -3.956  0.00  0.00    +0.004 C 
ATOM     32  C   UNL     1      -7.869  -5.263  -2.678  0.00  0.00    +0.001 C 
ENDBRANCH  30  32
ENDBRANCH  24  30
ENDBRANCH  23  27
BRANCH  23  33
ATOM     33  C   UNL     1      -5.598  -4.566   4.311  0.00  0.00    -0.027 C 
ATOM     34  C   UNL     1      -6.755  -5.516   4.627  0.00  0.00    +0.006 C 
ATOM     35  C   UNL     1      -4.417  -5.367   3.761  0.00  0.00    +0.006 C 
ENDBRANCH  23  33
ENDBRANCH  20  23
ENDBRANCH  19  20
ENDBRANCH   1  19
TORSDOF 10
