REMARK  Name = ZINC43254023
REMARK  4 active torsions:
REMARK  status: ('A' for Active; 'I' for Inactive)
REMARK    1  A    between atoms: C_1  and  N_2
REMARK    2  A    between atoms: C_3  and  C_21
REMARK    3  A    between atoms: N_12  and  C_15
REMARK    4  A    between atoms: C_24  and  O_27
REMARK                            x       y       z     vdW  Elec       q    Type
REMARK                         _______ _______ _______ _____ _____    ______ ____
ROOT
ATOM      1  C   UNL     1       0.104   1.377   0.063  0.00  0.00    +0.138 C 
ATOM      2  N   UNL     1       0.034  -0.090   0.070  0.00  0.00    -0.182 NA
ATOM      3  C   UNL     1      -1.387  -0.559   0.036  0.00  0.00    +0.129 C 
ATOM      4  C   UNL     1      -1.568  -1.249   1.381  0.00  0.00    +0.139 C 
ATOM      5  C   UNL     1      -0.091  -1.772   1.561  0.00  0.00    +0.241 C 
ATOM      6  O   UNL     1       0.655  -0.651   1.311  0.00  0.00    -0.283 OA
ATOM      7  C   UNL     1      -0.273  -2.781   2.590  0.00  0.00    +0.254 C 
ATOM      8  O   UNL     1       0.507  -3.085   3.467  0.00  0.00    -0.272 OA
ATOM      9  N   UNL     1      -1.513  -3.316   2.357  0.00  0.00    -0.236 N 
ATOM     10  C   UNL     1      -2.267  -2.568   1.481  0.00  0.00    +0.230 C 
ATOM     11  O   UNL     1      -3.280  -2.902   0.906  0.00  0.00    -0.275 OA
ENDROOT
BRANCH   9  12
ATOM     12  C   UNL     1      -1.993  -4.551   2.982  0.00  0.00    +0.084 C 
ATOM     13  C   UNL     1      -1.999  -4.384   4.503  0.00  0.00    +0.023 C 
ATOM     14  C   UNL     1      -2.501  -5.673   5.156  0.00  0.00    +0.002 C 
ATOM     15  C   UNL     1      -1.577  -6.831   4.774  0.00  0.00    +0.000 C 
ATOM     16  C   UNL     1      -1.571  -6.999   3.253  0.00  0.00    +0.002 C 
ATOM     17  C   UNL     1      -1.069  -5.709   2.600  0.00  0.00    +0.023 C 
ENDBRANCH   9  12
BRANCH   3  18
ATOM     18  C   UNL     1      -1.597  -1.533  -1.095  0.00  0.00    -0.027 A 
ATOM     19  C   UNL     1      -0.558  -2.345  -1.508  0.00  0.00    +0.009 A 
ATOM     20  C   UNL     1      -0.748  -3.238  -2.545  0.00  0.00    +0.046 A 
ATOM     21  C   UNL     1      -1.983  -3.319  -3.172  0.00  0.00    +0.117 A 
ATOM     22  C   UNL     1      -3.025  -2.502  -2.755  0.00  0.00    +0.046 A 
ATOM     23  C   UNL     1      -2.831  -1.615  -1.714  0.00  0.00    +0.009 A 
BRANCH  21  24
ATOM     24  O   UNL     1      -2.173  -4.196  -4.193  0.00  0.00    -0.507 OA
ATOM     25  H   UNL     1      -2.480  -5.068  -3.910  0.00  0.00    +0.292 HD
ENDBRANCH  21  24
ENDBRANCH   3  18
TORSDOF 3
