REMARK  Name = ZINC21257108
REMARK  5 active torsions:
REMARK  status: ('A' for Active; 'I' for Inactive)
REMARK    1  A    between atoms: C_1  and  C_2
REMARK    2  A    between atoms: C_2  and  O_3
REMARK    3  A    between atoms: O_3  and  C_4
REMARK    4  A    between atoms: C_9  and  C_10
REMARK    5  A    between atoms: C_15  and  C_20
REMARK                            x       y       z     vdW  Elec       q    Type
REMARK                         _______ _______ _______ _____ _____    ______ ____
ROOT
ATOM      1  C   UNL     1       1.236  -0.873  -0.007  0.00  0.00    +0.139 C 
ATOM      2  C   UNL     1       0.041   0.049   0.025  0.00  0.00    +0.037 C 
ATOM      3  C   UNL     1       0.082   1.393   0.027  0.00  0.00    +0.017 C 
ATOM      4  C   UNL     1      -1.204   2.201   0.052  0.00  0.00    +0.059 C 
ATOM      5  C   UNL     1      -2.276   1.451   0.840  0.00  0.00    +0.032 C 
ATOM      6  C   UNL     1      -2.509   0.104   0.146  0.00  0.00    +0.088 C 
ATOM      7  C   UNL     1      -1.202  -0.626   0.068  0.00  0.00    +0.163 C 
ATOM      8  O   UNL     1      -1.210  -1.841   0.042  0.00  0.00    -0.292 OA
ATOM      9  N   UNL     1       1.220   2.131  -0.006  0.00  0.00    -0.316 N 
ATOM     10  C   UNL     1       2.340   1.904   0.784  0.00  0.00    +0.052 A 
ATOM     11  C   UNL     1       2.803   2.836   1.696  0.00  0.00    +0.025 A 
ATOM     12  C   UNL     1       3.990   2.597   2.367  0.00  0.00    +0.002 A 
ATOM     13  C   UNL     1       4.705   1.438   2.128  0.00  0.00    +0.002 A 
ATOM     14  C   UNL     1       4.232   0.494   1.233  0.00  0.00    +0.025 A 
ATOM     15  C   UNL     1       3.035   0.722   0.574  0.00  0.00    +0.049 A 
ATOM     16  N   UNL     1       2.494  -0.218  -0.301  0.00  0.00    -0.331 N 
ATOM     17  H   UNL     1       1.302   2.983  -0.698  0.00  0.00    +0.152 HD
ATOM     18  H   UNL     1       3.036  -0.461  -1.227  0.00  0.00    +0.147 HD
ENDROOT
BRANCH   5  19
ATOM     19  C   UNL     1      -3.556   2.247   0.851  0.00  0.00    -0.043 A 
ATOM     20  C   UNL     1      -4.162   2.597  -0.341  0.00  0.00    +0.007 A 
ATOM     21  C   UNL     1      -5.337   3.323  -0.333  0.00  0.00    +0.038 A 
ATOM     22  C   UNL     1      -5.903   3.710   0.871  0.00  0.00    +0.123 A 
ATOM     23  C   UNL     1      -5.292   3.363   2.064  0.00  0.00    +0.038 A 
ATOM     24  C   UNL     1      -4.120   2.632   2.053  0.00  0.00    +0.007 A 
ATOM     25  F   UNL     1      -7.050   4.424   0.880  0.00  0.00    -0.205 F 
ENDBRANCH   5  19
BRANCH   1  31
ATOM     26  C   UNL     1       2.132  -2.689   1.472  0.00  0.00    +0.126 A 
ATOM     27  C   UNL     1       2.238  -3.310   2.708  0.00  0.00    +0.046 A 
ATOM     28  C   UNL     1       1.568  -2.792   3.799  0.00  0.00    +0.004 A 
ATOM     29  C   UNL     1       0.792  -1.656   3.660  0.00  0.00    +0.001 A 
ATOM     30  C   UNL     1       0.689  -1.033   2.430  0.00  0.00    +0.009 A 
ATOM     31  C   UNL     1       1.353  -1.550   1.335  0.00  0.00    +0.019 A 
BRANCH  26  32
ATOM     32  O   UNL     1       2.791  -3.197   0.397  0.00  0.00    -0.492 OA
BRANCH  32  34
ATOM     33  C   UNL     1       4.236  -4.792  -0.703  0.00  0.00    +0.048 C 
ATOM     34  C   UNL     1       3.575  -4.372   0.612  0.00  0.00    +0.225 C 
ENDBRANCH  32  34
ENDBRANCH  26  32
ENDBRANCH   1  31
TORSDOF 4
