REMARK  Name = ZINC40917625
REMARK  9 active torsions:
REMARK  status: ('A' for Active; 'I' for Inactive)
REMARK    1  A    between atoms: C_1  and  C_2
REMARK    2  A    between atoms: C_6  and  C_8
REMARK    3  A    between atoms: C_8  and  O_9
REMARK    4  A    between atoms: O_9  and  C_10
REMARK    5  A    between atoms: C_13  and  C_18
REMARK    6  A    between atoms: C_15  and  O_16
REMARK    7  A    between atoms: O_16  and  C_17
REMARK    8  A    between atoms: C_23  and  C_27
REMARK    9  A    between atoms: C_23  and  C_28
REMARK                            x       y       z     vdW  Elec       q    Type
REMARK                         _______ _______ _______ _____ _____    ______ ____
ROOT
ATOM      1  C   UNL     1       1.599  -3.745   4.056  0.00  0.00    +0.162 A 
ATOM      2  C   UNL     1       0.511  -4.191   4.788  0.00  0.00    +0.050 A 
ATOM      3  C   UNL     1       0.709  -4.881   5.970  0.00  0.00    +0.010 A 
ATOM      4  C   UNL     1       1.991  -5.127   6.424  0.00  0.00    -0.015 A 
ATOM      5  C   UNL     1       3.081  -4.684   5.698  0.00  0.00    +0.055 A 
ATOM      6  C   UNL     1       2.890  -3.998   4.510  0.00  0.00    +0.162 A 
ENDROOT
BRANCH   4   7
ATOM      7  C   UNL     1       2.201  -5.879   7.713  0.00  0.00    +0.177 C 
ATOM      8  C   UNL     1       1.552  -5.119   8.850  0.00  0.00    +0.041 C 
ATOM      9  C   UNL     1       0.403  -5.532   9.426  0.00  0.00    +0.020 C 
ATOM     10  C   UNL     1      -0.230  -4.741  10.547  0.00  0.00    +0.058 C 
ATOM     11  C   UNL     1       0.860  -4.043  11.363  0.00  0.00    -0.023 C 
ATOM     12  C   UNL     1       1.654  -3.129  10.424  0.00  0.00    +0.086 C 
ATOM     13  C   UNL     1       2.201  -3.951   9.290  0.00  0.00    +0.164 C 
ATOM     14  O   UNL     1       3.226  -3.598   8.741  0.00  0.00    -0.292 OA
ATOM     15  C   UNL     1       0.217  -3.208  12.473  0.00  0.00    +0.011 C 
ATOM     16  C   UNL     1       1.793  -5.088  11.977  0.00  0.00    +0.011 C 
ATOM     17  N   UNL     1      -0.236  -6.682   9.029  0.00  0.00    -0.286 N 
ATOM     18  C   UNL     1       0.459  -7.567   8.223  0.00  0.00    +0.240 A 
ATOM     19  N   UNL     1       1.609  -7.203   7.602  0.00  0.00    -0.201 N 
ATOM     20  N   UNL     1       2.023  -8.332   6.897  0.00  0.00    -0.042 NA
ATOM     21  N   UNL     1       1.140  -9.251   7.124  0.00  0.00    -0.021 NA
ATOM     22  N   UNL     1       0.220  -8.806   7.901  0.00  0.00    -0.092 NA
ATOM     23  H   UNL     1      -1.147  -6.868   9.306  0.00  0.00    +0.155 HD
ENDBRANCH   4   7
BRANCH   6  24
ATOM     24  O   UNL     1       3.961  -3.567   3.792  0.00  0.00    -0.491 OA
ATOM     25  C   UNL     1       5.257  -3.862   4.318  0.00  0.00    +0.277 C 
ENDBRANCH   6  24
BRANCH   1  26
ATOM     26  O   UNL     1       1.406  -3.067   2.893  0.00  0.00    -0.484 OA
BRANCH  26  27
ATOM     27  C   UNL     1       0.054  -2.845   2.489  0.00  0.00    +0.264 C 
BRANCH  27  33
ATOM     28  C   UNL     1      -0.018   1.503   0.010  0.00  0.00    +0.044 C 
ATOM     29  C   UNL     1       0.002  -0.004   0.002  0.00  0.00    -0.050 A 
ATOM     30  C   UNL     1       0.006  -0.689  -1.199  0.00  0.00    +0.003 A 
ATOM     31  C   UNL     1       0.025  -2.071  -1.207  0.00  0.00    +0.001 A 
ATOM     32  C   UNL     1       0.040  -2.768  -0.013  0.00  0.00    +0.007 A 
ATOM     33  C   UNL     1       0.037  -2.084   1.188  0.00  0.00    -0.010 A 
ATOM     34  C   UNL     1       0.023  -0.702   1.195  0.00  0.00    +0.010 A 
ENDBRANCH  27  33
ENDBRANCH  26  27
ENDBRANCH   1  26
TORSDOF 5
