REMARK  Name = ZINC10316576
REMARK  6 active torsions:
REMARK  status: ('A' for Active; 'I' for Inactive)
REMARK    1  A    between atoms: C_9  and  C_10
REMARK    2  A    between atoms: C_9  and  C_12
REMARK    3  A    between atoms: C_12  and  C_14
REMARK    4  A    between atoms: C_14  and  S_15
REMARK    5  A    between atoms: S_15  and  C_16
REMARK    6  A    between atoms: N_21  and  C_22
REMARK                            x       y       z     vdW  Elec       q    Type
REMARK                         _______ _______ _______ _____ _____    ______ ____
ROOT
ATOM      1  C   UNL     1       2.573  -6.369  -0.547  0.00  0.00    +0.156 C 
ENDROOT
BRANCH   1   2
ATOM      2  C   UNL     1       2.125  -4.930  -0.539  0.00  0.00    +0.186 C 
ATOM      3  O   UNL     1       0.968  -4.655  -0.287  0.00  0.00    -0.290 OA
BRANCH   2  12
ATOM      4  C   UNL     1      -0.065   1.358  -0.452  0.00  0.00    +0.002 A 
ATOM      5  C   UNL     1       1.073   2.082  -0.768  0.00  0.00    +0.001 A 
ATOM      6  C   UNL     1       2.261   1.411  -1.001  0.00  0.00    +0.017 A 
ATOM      7  C   UNL     1       2.292   0.039  -0.915  0.00  0.00    +0.035 A 
ATOM      8  C   UNL     1       1.155  -0.719  -0.597  0.00  0.00    +0.046 A 
ATOM      9  C   UNL     1      -0.035  -0.014  -0.366  0.00  0.00    +0.024 A 
ATOM     10  N   UNL     1       1.384  -2.080  -0.559  0.00  0.00    -0.307 N 
ATOM     11  C   UNL     1       2.625  -2.563  -0.817  0.00  0.00    +0.091 C 
ATOM     12  C   UNL     1       3.044  -3.907  -0.824  0.00  0.00    +0.123 C 
ATOM     13  S   UNL     1       3.549  -1.194  -1.127  0.00  0.00    -0.071 S 
ATOM     14  H   UNL     1       0.659  -2.689  -0.347  0.00  0.00    +0.153 HD
BRANCH  12  15
ATOM     15  C   UNL     1       4.407  -4.231  -1.122  0.00  0.00    +0.105 C 
ATOM     16  N   UNL     1       5.488  -4.487  -1.358  0.00  0.00    -0.191 NA
ENDBRANCH  12  15
ENDBRANCH   2  12
ENDBRANCH   1   2
BRANCH   1  17
ATOM     17  S   UNL     1       1.167  -7.442  -0.145  0.00  0.00    -0.089 S 
BRANCH  17  18
ATOM     18  C   UNL     1       1.845  -9.068  -0.193  0.00  0.00    +0.160 A 
ATOM     19  N   UNL     1       3.081  -9.452  -0.451  0.00  0.00    -0.133 NA
ATOM     20  N   UNL     1       3.399 -10.790  -0.436  0.00  0.00    -0.125 NA
ATOM     21  C   UNL     1       2.468 -11.683  -0.163  0.00  0.00    +0.187 A 
ATOM     22  S   UNL     1       1.044 -10.638   0.101  0.00  0.00    -0.024 S 
ATOM     23  N   UNL     1       2.569 -13.068  -0.095  0.00  0.00    -0.290 N 
ATOM     24  H   UNL     1       1.772 -13.607   0.032  0.00  0.00    +0.154 HD
BRANCH  23  25
ATOM     25  C   UNL     1       3.819 -13.685  -0.211  0.00  0.00    +0.068 A 
ATOM     26  C   UNL     1       4.976 -12.918  -0.210  0.00  0.00    +0.026 A 
ATOM     27  C   UNL     1       6.209 -13.530  -0.324  0.00  0.00    +0.002 A 
ATOM     28  C   UNL     1       6.293 -14.905  -0.439  0.00  0.00    +0.003 A 
ATOM     29  C   UNL     1       5.144 -15.674  -0.440  0.00  0.00    +0.040 A 
ATOM     30  C   UNL     1       3.906 -15.069  -0.320  0.00  0.00    +0.144 A 
ATOM     31  F   UNL     1       2.783 -15.820  -0.315  0.00  0.00    -0.204 F 
ENDBRANCH  23  25
ENDBRANCH  17  18
ENDBRANCH   1  17
TORSDOF 6
