REMARK  Name = ZINC07094646
REMARK  8 active torsions:
REMARK  status: ('A' for Active; 'I' for Inactive)
REMARK    1  A    between atoms: C_1  and  C_2
REMARK    2  A    between atoms: C_4  and  N_26
REMARK    3  A    between atoms: C_6  and  S_8
REMARK    4  A    between atoms: S_8  and  C_9
REMARK    5  A    between atoms: C_9  and  C_10
REMARK    6  A    between atoms: N_12  and  C_13
REMARK    7  A    between atoms: C_13  and  C_15
REMARK    8  A    between atoms: C_13  and  C_16
REMARK                            x       y       z     vdW  Elec       q    Type
REMARK                         _______ _______ _______ _____ _____    ______ ____
ROOT
ATOM      1  C   UNL     1       0.219  -5.489   3.416  0.00  0.00    +0.224 C 
ATOM      2  O   UNL     1       0.224  -4.939   4.498  0.00  0.00    -0.275 OA
ATOM      3  N   UNL     1       0.172  -6.834   3.344  0.00  0.00    -0.308 N 
ATOM      4  H   UNL     1       0.168  -7.273   2.479  0.00  0.00    +0.149 HD
ENDROOT
BRANCH   3   5
ATOM      5  C   UNL     1       0.127  -7.632   4.572  0.00  0.00    +0.101 C 
ATOM      6  C   UNL     1       1.552  -7.903   5.056  0.00  0.00    +0.033 C 
BRANCH   5   7
ATOM      7  C   UNL     1      -0.567  -8.941   4.294  0.00  0.00    -0.020 A 
ATOM      8  C   UNL     1      -0.549  -9.473   3.042  0.00  0.00    +0.006 A 
ATOM      9  C   UNL     1      -1.185 -10.682   2.766  0.00  0.00    +0.001 A 
ATOM     10  C   UNL     1      -1.843 -11.365   3.742  0.00  0.00    +0.008 A 
ATOM     11  C   UNL     1      -1.884 -10.847   5.047  0.00  0.00    -0.018 A 
ATOM     12  C   UNL     1      -1.232  -9.620   5.329  0.00  0.00    -0.013 A 
ATOM     13  C   UNL     1      -1.268  -9.105   6.636  0.00  0.00    +0.009 A 
ATOM     14  C   UNL     1      -1.922  -9.792   7.612  0.00  0.00    +0.001 A 
ATOM     15  C   UNL     1      -2.558 -11.001   7.337  0.00  0.00    +0.001 A 
ATOM     16  C   UNL     1      -2.555 -11.524   6.080  0.00  0.00    +0.008 A 
ENDBRANCH   5   7
ENDBRANCH   3   5
BRANCH   1  17
ATOM     17  C   UNL     1       0.266  -4.667   2.154  0.00  0.00    +0.173 C 
BRANCH  17  18
ATOM     18  S   UNL     1       0.323  -2.905   2.580  0.00  0.00    -0.077 S 
BRANCH  18  24
ATOM     19  C   UNL     1       0.515   1.388  -0.199  0.00  0.00    +0.066 C 
ATOM     20  C   UNL     1       0.461  -0.117  -0.172  0.00  0.00    +0.044 A 
ATOM     21  C   UNL     1       0.451  -0.836  -1.352  0.00  0.00    +0.066 A 
ATOM     22  C   UNL     1       0.400  -2.230  -1.282  0.00  0.00    +0.121 A 
ATOM     23  N   UNL     1       0.363  -2.816  -0.089  0.00  0.00    -0.207 NA
ATOM     24  C   UNL     1       0.374  -2.090   1.019  0.00  0.00    +0.191 A 
ATOM     25  N   UNL     1       0.427  -0.766   0.983  0.00  0.00    -0.227 NA
BRANCH  22  26
ATOM     26  N   UNL     1       0.388  -2.992  -2.439  0.00  0.00    -0.343 N 
ATOM     27  H   UNL     1       0.415  -2.557  -3.306  0.00  0.00    +0.144 HD
ATOM     28  H   UNL     1       0.352  -3.959  -2.383  0.00  0.00    +0.144 HD
ENDBRANCH  22  26
ENDBRANCH  18  24
ENDBRANCH  17  18
ENDBRANCH   1  17
TORSDOF 6
