REMARK  Name = ZINC35667378
REMARK  9 active torsions:
REMARK  status: ('A' for Active; 'I' for Inactive)
REMARK    1  A    between atoms: C_1  and  O_2
REMARK    2  A    between atoms: O_2  and  C_3
REMARK    3  A    between atoms: C_6  and  C_9
REMARK    4  A    between atoms: N_11  and  C_26
REMARK    5  A    between atoms: N_14  and  C_15
REMARK    6  A    between atoms: C_15  and  C_17
REMARK    7  A    between atoms: C_17  and  N_18
REMARK    8  A    between atoms: N_18  and  C_19
REMARK    9  A    between atoms: C_19  and  C_20
REMARK                            x       y       z     vdW  Elec       q    Type
REMARK                         _______ _______ _______ _____ _____    ______ ____
ROOT
ATOM      1  C   UNL     1       2.495  -2.493  -4.363  0.00  0.00    +0.066 A 
ATOM      2  C   UNL     1       2.608  -3.818  -4.560  0.00  0.00    +0.120 A 
ATOM      3  N   UNL     1       3.284  -4.019  -5.747  0.00  0.00    -0.287 N 
ATOM      4  C   UNL     1       3.584  -2.802  -6.274  0.00  0.00    +0.205 A 
ATOM      5  N   UNL     1       3.099  -1.849  -5.436  0.00  0.00    -0.326 N 
ATOM      6  N   UNL     1       4.235  -2.582  -7.417  0.00  0.00    -0.148 NA
ATOM      7  H   UNL     1       3.165  -0.890  -5.563  0.00  0.00    +0.169 HD
ENDROOT
BRANCH   3   8
ATOM      8  C   UNL     1       3.607  -5.261  -6.310  0.00  0.00    +0.049 A 
ATOM      9  C   UNL     1       4.299  -5.321  -7.512  0.00  0.00    +0.029 A 
ATOM     10  C   UNL     1       4.616  -6.546  -8.065  0.00  0.00    +0.040 A 
ATOM     11  C   UNL     1       4.244  -7.714  -7.422  0.00  0.00    +0.124 A 
ATOM     12  C   UNL     1       3.554  -7.657  -6.223  0.00  0.00    +0.040 A 
ATOM     13  C   UNL     1       3.239  -6.434  -5.664  0.00  0.00    +0.029 A 
ATOM     14  F   UNL     1       4.556  -8.912  -7.964  0.00  0.00    -0.205 F 
ENDBRANCH   3   8
BRANCH   1  18
ATOM     15  C   UNL     1       0.606  -0.607  -1.056  0.00  0.00    +0.120 A 
ATOM     16  C   UNL     1       1.173   0.164  -2.062  0.00  0.00    +0.046 A 
ATOM     17  C   UNL     1       1.786  -0.444  -3.136  0.00  0.00    +0.013 A 
ATOM     18  C   UNL     1       1.837  -1.837  -3.212  0.00  0.00    +0.000 A 
ATOM     19  C   UNL     1       1.267  -2.608  -2.199  0.00  0.00    +0.013 A 
ATOM     20  C   UNL     1       0.659  -1.993  -1.125  0.00  0.00    +0.046 A 
BRANCH  15  22
ATOM     21  C   UNL     1      -0.017   1.425   0.010  0.00  0.00    +0.277 C 
ATOM     22  O   UNL     1       0.002  -0.004   0.002  0.00  0.00    -0.495 OA
ENDBRANCH  15  22
ENDBRANCH   1  18
BRANCH   6  23
ATOM     23  C   UNL     1       4.465  -1.339  -7.821  0.00  0.00    +0.222 C 
ATOM     24  O   UNL     1       4.081  -0.400  -7.150  0.00  0.00    -0.276 OA
BRANCH  23  25
ATOM     25  C   UNL     1       5.201  -1.090  -9.113  0.00  0.00    +0.017 C 
BRANCH  25  26
ATOM     26  N   UNL     1       5.326   0.357  -9.334  0.00  0.00    +0.387 N 
ATOM     27  H   UNL     1       4.407   0.770  -9.386  0.00  0.00    -0.085 HD
ATOM     28  H   UNL     1       5.838   0.771  -8.570  0.00  0.00    -0.085 HD
BRANCH  26  29
ATOM     29  C   UNL     1       6.043   0.599 -10.593  0.00  0.00    -0.046 C 
BRANCH  29  30
ATOM     30  C   UNL     1       6.172   2.083 -10.821  0.00  0.00    -0.064 A 
ATOM     31  C   UNL     1       5.188   2.764 -11.513  0.00  0.00    +0.002 A 
ATOM     32  C   UNL     1       5.305   4.125 -11.722  0.00  0.00    +0.000 A 
ATOM     33  C   UNL     1       6.407   4.806 -11.238  0.00  0.00    +0.000 A 
ATOM     34  C   UNL     1       7.390   4.125 -10.545  0.00  0.00    +0.000 A 
ATOM     35  C   UNL     1       7.270   2.765 -10.332  0.00  0.00    +0.002 A 
ENDBRANCH  29  30
ENDBRANCH  26  29
ENDBRANCH  25  26
ENDBRANCH  23  25
ENDBRANCH   6  23
TORSDOF 8
