REMARK  Name = ZINC11689472
REMARK  8 active torsions:
REMARK  status: ('A' for Active; 'I' for Inactive)
REMARK    1  A    between atoms: C_1  and  C_2
REMARK    2  A    between atoms: C_7  and  C_12
REMARK    3  A    between atoms: C_12  and  C_13
REMARK    4  A    between atoms: C_19  and  C_21
REMARK    5  A    between atoms: C_21  and  C_22
REMARK    6  A    between atoms: C_22  and  C_24
REMARK    7  A    between atoms: C_22  and  N_56
REMARK    8  A    between atoms: C_24  and  C_25
REMARK                            x       y       z     vdW  Elec       q    Type
REMARK                         _______ _______ _______ _____ _____    ______ ____
ROOT
ATOM      1  C   UNL     1      -8.922   8.581  -2.967  0.00  0.00    +0.028 C 
ATOM      2  C   UNL     1      -8.788   7.091  -3.272  0.00  0.00    +0.071 C 
ATOM      3  C   UNL     1      -7.728   6.431  -2.404  0.00  0.00    +0.041 C 
ATOM      4  C   UNL     1      -6.373   7.111  -2.481  0.00  0.00    +0.110 C 
ATOM      5  N   UNL     1      -5.633   6.738  -3.681  0.00  0.00    -0.290 N 
ATOM      6  C   UNL     1      -6.110   7.125  -5.015  0.00  0.00    +0.168 C 
ATOM      7  C   UNL     1      -7.436   6.446  -5.270  0.00  0.00    +0.234 C 
ATOM      8  O   UNL     1      -7.474   5.497  -6.038  0.00  0.00    -0.274 OA
ATOM      9  N   UNL     1      -8.563   6.852  -4.685  0.00  0.00    -0.311 N 
ATOM     10  C   UNL     1      -4.492   6.027  -3.567  0.00  0.00    +0.215 C 
ATOM     11  O   UNL     1      -3.871   5.714  -4.561  0.00  0.00    -0.276 OA
ATOM     12  H   UNL     1      -9.333   7.005  -5.293  0.00  0.00    +0.149 HD
ENDROOT
BRANCH   6  13
ATOM     13  C   UNL     1      -6.235   8.639  -5.137  0.00  0.00    +0.087 C 
BRANCH  13  14
ATOM     14  C   UNL     1      -4.867   9.265  -5.038  0.00  0.00    +0.044 A 
ATOM     15  C   UNL     1      -4.426  10.103  -6.044  0.00  0.00    +0.023 A 
ATOM     16  C   UNL     1      -3.167  10.674  -5.943  0.00  0.00    +0.003 A 
ATOM     17  C   UNL     1      -2.395  10.379  -4.829  0.00  0.00    +0.020 A 
ATOM     18  C   UNL     1      -2.904   9.532  -3.863  0.00  0.00    +0.111 A 
ATOM     19  N   UNL     1      -4.109   9.011  -3.990  0.00  0.00    -0.260 NA
ENDBRANCH  13  14
ENDBRANCH   6  13
BRANCH  10  20
ATOM     20  C   UNL     1      -3.988   5.623  -2.206  0.00  0.00    +0.080 C 
BRANCH  20  21
ATOM     21  C   UNL     1      -2.687   4.832  -2.357  0.00  0.00    -0.062 C 
BRANCH  21  24
ATOM     22  H   UNL     1      -2.106   3.061  -3.231  0.00  0.00    -0.090 HD
ATOM     23  H   UNL     1      -3.623   3.008  -2.551  0.00  0.00    -0.090 HD
ATOM     24  N   UNL     1      -2.969   3.581  -3.083  0.00  0.00    +0.381 N 
ATOM     25  H   UNL     1      -3.386   3.805  -3.994  0.00  0.00    -0.090 HD
ENDBRANCH  21  24
BRANCH  21  26
ATOM     26  C   UNL     1      -2.111   4.528  -0.973  0.00  0.00    +0.022 C 
BRANCH  26  27
ATOM     27  C   UNL     1      -0.769   3.858  -1.123  0.00  0.00    -0.011 A 
ATOM     28  C   UNL     1      -0.681   2.478  -1.105  0.00  0.00    +0.047 A 
ATOM     29  C   UNL     1       0.551   1.862  -1.237  0.00  0.00    +0.159 A 
ATOM     30  C   UNL     1       1.695   2.628  -1.400  0.00  0.00    +0.161 A 
ATOM     31  C   UNL     1       1.605   4.009  -1.424  0.00  0.00    +0.080 A 
ATOM     32  C   UNL     1       0.372   4.624  -1.285  0.00  0.00    +0.129 A 
ATOM     33  F   UNL     1       0.284   5.972  -1.308  0.00  0.00    -0.205 F 
ATOM     34  F   UNL     1       2.897   2.027  -1.536  0.00  0.00    -0.202 F 
ATOM     35  F   UNL     1       0.638   0.514  -1.214  0.00  0.00    -0.202 F 
ENDBRANCH  26  27
ENDBRANCH  21  26
ENDBRANCH  20  21
ENDBRANCH  10  20
TORSDOF 7
