REMARK  Name = ZINC42015657
REMARK  4 active torsions:
REMARK  status: ('A' for Active; 'I' for Inactive)
REMARK    1  A    between atoms: C_1  and  C_2
REMARK    2  A    between atoms: C_7  and  N_8
REMARK    3  A    between atoms: C_9  and  C_13
REMARK    4  A    between atoms: C_18  and  N_19
REMARK                            x       y       z     vdW  Elec       q    Type
REMARK                         _______ _______ _______ _____ _____    ______ ____
ROOT
ATOM      1  N   UNL     1      -0.541  -0.166   2.871  0.00  0.00    -0.192 N 
ATOM      2  C   UNL     1       0.389  -0.730   3.695  0.00  0.00    +0.189 A 
ATOM      3  N   UNL     1       1.086   0.259   4.218  0.00  0.00    -0.108 NA
ATOM      4  N   UNL     1       0.661   1.389   3.783  0.00  0.00    -0.022 NA
ATOM      5  N   UNL     1      -0.317   1.219   2.960  0.00  0.00    -0.039 NA
ENDROOT
BRANCH   1  12
ATOM      6  C   UNL     1       0.004  -0.586   0.110  0.00  0.00    +0.046 C 
ATOM      7  C   UNL     1      -1.280  -1.051   0.747  0.00  0.00    -0.022 A 
ATOM      8  C   UNL     1      -2.230  -1.706  -0.012  0.00  0.00    +0.043 A 
ATOM      9  C   UNL     1      -3.410  -2.133   0.573  0.00  0.00    +0.124 A 
ATOM     10  C   UNL     1      -3.640  -1.905   1.920  0.00  0.00    +0.040 A 
ATOM     11  C   UNL     1      -2.693  -1.250   2.682  0.00  0.00    +0.031 A 
ATOM     12  C   UNL     1      -1.506  -0.826   2.098  0.00  0.00    +0.072 A 
ATOM     13  F   UNL     1      -4.339  -2.774  -0.170  0.00  0.00    -0.205 F 
ENDBRANCH   1  12
BRANCH   2  14
ATOM     14  C   UNL     1       0.579  -2.172   3.952  0.00  0.00    +0.044 A 
ATOM     15  C   UNL     1       0.662  -3.070   2.887  0.00  0.00    +0.051 A 
ATOM     16  C   UNL     1       0.840  -4.417   3.133  0.00  0.00    +0.124 A 
ATOM     17  C   UNL     1       0.935  -4.882   4.436  0.00  0.00    +0.040 A 
ATOM     18  C   UNL     1       0.853  -4.004   5.498  0.00  0.00    +0.026 A 
ATOM     19  C   UNL     1       0.681  -2.646   5.267  0.00  0.00    +0.036 A 
ATOM     20  F   UNL     1       0.920  -5.285   2.101  0.00  0.00    -0.205 F 
BRANCH  19  21
ATOM     21  N   UNL     1       0.605  -1.758   6.339  0.00  0.00    -0.357 N 
ATOM     22  H   UNL     1       0.480  -0.810   6.176  0.00  0.00    +0.142 HD
ATOM     23  H   UNL     1       0.676  -2.088   7.248  0.00  0.00    +0.142 HD
ENDBRANCH  19  21
ENDBRANCH   2  14
TORSDOF 3
