REMARK  Name = ZINC63746415
REMARK  11 active torsions:
REMARK  status: ('A' for Active; 'I' for Inactive)
REMARK    1  A    between atoms: C_1  and  C_2
REMARK    2  A    between atoms: C_5  and  C_31
REMARK    3  A    between atoms: C_6  and  C_17
REMARK    4  A    between atoms: C_10  and  N_12
REMARK    5  A    between atoms: N_15  and  C_16
REMARK    6  A    between atoms: N_19  and  C_20
REMARK    7  A    between atoms: C_20  and  C_21
REMARK    8  A    between atoms: C_24  and  O_27
REMARK    9  A    between atoms: O_27  and  C_28
REMARK   10  A    between atoms: C_28  and  C_29
REMARK   11  A    between atoms: C_28  and  C_30
REMARK                            x       y       z     vdW  Elec       q    Type
REMARK                         _______ _______ _______ _____ _____    ______ ____
ROOT
ATOM      1  C   UNL     1       2.473   0.735  -2.717  0.00  0.00    +0.044 C 
ATOM      2  C   UNL     1       2.147  -0.633  -2.176  0.00  0.00    -0.048 A 
ATOM      3  C   UNL     1       1.771  -1.603  -3.040  0.00  0.00    +0.013 A 
ATOM      4  C   UNL     1       1.457  -2.901  -2.567  0.00  0.00    +0.006 A 
ATOM      5  C   UNL     1       1.053  -4.059  -3.207  0.00  0.00    -0.000 C 
ATOM      6  C   UNL     1       0.886  -5.093  -2.115  0.00  0.00    +0.198 C 
ATOM      7  N   UNL     1       1.226  -4.414  -0.861  0.00  0.00    -0.368 N 
ATOM      8  C   UNL     1       1.550  -3.170  -1.119  0.00  0.00    +0.065 A 
ATOM      9  C   UNL     1       1.966  -2.063  -0.244  0.00  0.00    +0.059 A 
ATOM     10  C   UNL     1       2.250  -0.854  -0.799  0.00  0.00    +0.028 A 
ATOM     11  H   UNL     1       1.212  -4.820   0.020  0.00  0.00    +0.161 HD
ENDROOT
BRANCH   9  12
ATOM     12  N   UNL     1       2.073  -2.252   1.137  0.00  0.00    -0.268 N 
ATOM     13  C   UNL     1       2.856  -1.437   1.871  0.00  0.00    +0.304 C 
ATOM     14  O   UNL     1       3.554  -0.607   1.320  0.00  0.00    -0.253 OA
ATOM     15  N   UNL     1       2.866  -1.541   3.214  0.00  0.00    -0.302 N 
ATOM     16  C   UNL     1       3.718  -0.655   4.011  0.00  0.00    +0.129 C 
ATOM     17  H   UNL     1       1.583  -2.970   1.568  0.00  0.00    +0.156 HD
ATOM     18  H   UNL     1       2.310  -2.203   3.654  0.00  0.00    +0.150 HD
ENDBRANCH   9  12
BRANCH   5  19
ATOM     19  C   UNL     1       0.832  -4.246  -4.643  0.00  0.00    -0.019 A 
ATOM     20  C   UNL     1       0.313  -3.199  -5.419  0.00  0.00    +0.008 A 
ATOM     21  C   UNL     1       0.109  -3.384  -6.769  0.00  0.00    +0.001 A 
ATOM     22  C   UNL     1       0.414  -4.599  -7.360  0.00  0.00    +0.000 A 
ATOM     23  C   UNL     1       0.927  -5.638  -6.602  0.00  0.00    +0.001 A 
ATOM     24  C   UNL     1       1.144  -5.470  -5.251  0.00  0.00    +0.008 A 
ENDBRANCH   5  19
BRANCH   6  25
ATOM     25  C   UNL     1      -0.540  -5.579  -2.075  0.00  0.00    +0.240 C 
ATOM     26  O   UNL     1      -1.337  -5.059  -1.323  0.00  0.00    -0.273 OA
ATOM     27  N   UNL     1      -0.929  -6.593  -2.873  0.00  0.00    -0.309 N 
ATOM     28  H   UNL     1      -0.277  -7.054  -3.424  0.00  0.00    +0.149 HD
BRANCH  27  29
ATOM     29  C   UNL     1      -2.336  -6.998  -2.909  0.00  0.00    +0.139 C 
BRANCH  29  30
ATOM     30  C   UNL     1      -2.505  -8.144  -3.873  0.00  0.00    -0.030 A 
ATOM     31  C   UNL     1      -2.777  -7.891  -5.205  0.00  0.00    +0.009 A 
ATOM     32  C   UNL     1      -2.932  -8.940  -6.091  0.00  0.00    +0.046 A 
ATOM     33  C   UNL     1      -2.814 -10.248  -5.643  0.00  0.00    +0.121 A 
ATOM     34  C   UNL     1      -2.541 -10.498  -4.306  0.00  0.00    +0.046 A 
ATOM     35  C   UNL     1      -2.381  -9.446  -3.426  0.00  0.00    +0.009 A 
BRANCH  33  36
ATOM     36  O   UNL     1      -2.967 -11.281  -6.512  0.00  0.00    -0.489 OA
BRANCH  36  37
ATOM     37  C   UNL     1      -3.278 -10.949  -7.867  0.00  0.00    +0.167 C 
ATOM     38  C   UNL     1      -1.987 -10.624  -8.622  0.00  0.00    +0.051 C 
ATOM     39  C   UNL     1      -3.975 -12.135  -8.536  0.00  0.00    +0.051 C 
ENDBRANCH  36  37
ENDBRANCH  33  36
ENDBRANCH  29  30
ENDBRANCH  27  29
ENDBRANCH   6  25
TORSDOF 7
