REMARK  Name = ZINC19297271
REMARK  7 active torsions:
REMARK  status: ('A' for Active; 'I' for Inactive)
REMARK    1  A    between atoms: C_1  and  C_2
REMARK    2  A    between atoms: C_11  and  N_33
REMARK    3  A    between atoms: C_13  and  S_15
REMARK    4  A    between atoms: S_15  and  C_16
REMARK    5  A    between atoms: C_16  and  C_17
REMARK    6  A    between atoms: N_19  and  C_20
REMARK    7  A    between atoms: N_19  and  C_28
REMARK                            x       y       z     vdW  Elec       q    Type
REMARK                         _______ _______ _______ _____ _____    ______ ____
ROOT
ATOM      1  C   UNL     1       0.478   2.340  -0.178  0.00  0.00    +0.008 C 
ATOM      2  C   UNL     1       0.394   0.814  -0.101  0.00  0.00    -0.009 C 
ATOM      3  C   UNL     1      -1.075   0.383  -0.035  0.00  0.00    +0.008 C 
ATOM      4  C   UNL     1      -1.178  -1.132  -0.206  0.00  0.00    +0.037 C 
ATOM      5  C   UNL     1      -0.252  -1.809   0.801  0.00  0.00    -0.025 A 
ATOM      6  C   UNL     1       0.752  -1.116   1.384  0.00  0.00    -0.004 A 
ATOM      7  S   UNL     1       1.556  -2.276   2.461  0.00  0.00    -0.073 S 
ATOM      8  C   UNL     1       0.549  -3.685   2.131  0.00  0.00    +0.115 A 
ATOM      9  C   UNL     1      -0.390  -3.205   1.184  0.00  0.00    +0.051 A 
ATOM     10  C   UNL     1      -1.364  -4.132   0.712  0.00  0.00    +0.129 A 
ATOM     11  N   UNL     1      -1.288  -5.362   1.213  0.00  0.00    -0.207 NA
ATOM     12  C   UNL     1      -0.381  -5.744   2.099  0.00  0.00    +0.191 A 
ATOM     13  N   UNL     1       0.557  -4.924   2.581  0.00  0.00    -0.214 NA
ATOM     14  C   UNL     1       1.112   0.322   1.163  0.00  0.00    +0.046 C 
ENDROOT
BRANCH  10  15
ATOM     15  N   UNL     1      -2.329  -3.775  -0.212  0.00  0.00    -0.343 N 
ATOM     16  H   UNL     1      -2.225  -2.963  -0.733  0.00  0.00    +0.144 HD
ATOM     17  H   UNL     1      -3.110  -4.336  -0.340  0.00  0.00    +0.144 HD
ENDBRANCH  10  15
BRANCH  12  18
ATOM     18  S   UNL     1      -0.412  -7.411   2.669  0.00  0.00    -0.077 S 
BRANCH  18  19
ATOM     19  C   UNL     1      -1.809  -8.153   1.781  0.00  0.00    +0.173 C 
BRANCH  19  20
ATOM     20  C   UNL     1      -1.949  -9.598   2.182  0.00  0.00    +0.226 C 
ATOM     21  O   UNL     1      -1.231 -10.061   3.042  0.00  0.00    -0.275 OA
ATOM     22  N   UNL     1      -2.873 -10.377   1.584  0.00  0.00    -0.293 N 
BRANCH  22  23
ATOM     23  C   UNL     1      -3.084 -11.750   2.048  0.00  0.00    +0.099 C 
ATOM     24  C   UNL     1      -3.482 -11.741   3.534  0.00  0.00    +0.046 C 
ATOM     25  C   UNL     1      -3.394 -13.173   4.112  0.00  0.00    +0.168 C 
ATOM     26  S   UNL     1      -2.099 -13.954   3.066  0.00  0.00    -0.029 S 
ATOM     27  O   UNL     1      -2.676 -15.032   2.343  0.00  0.00    -0.174 OA
ATOM     28  O   UNL     1      -0.942 -14.183   3.858  0.00  0.00    -0.174 OA
ATOM     29  C   UNL     1      -1.766 -12.563   1.905  0.00  0.00    +0.188 C 
ENDBRANCH  22  23
BRANCH  22  30
ATOM     30  C   UNL     1      -3.664  -9.851   0.469  0.00  0.00    +0.076 C 
ATOM     31  C   UNL     1      -5.169  -9.989   0.778  0.00  0.00    +0.022 C 
ATOM     32  C   UNL     1      -5.806 -10.346  -0.588  0.00  0.00    +0.002 C 
ATOM     33  C   UNL     1      -4.751 -11.287  -1.222  0.00  0.00    +0.002 C 
ATOM     34  C   UNL     1      -3.398 -10.675  -0.802  0.00  0.00    +0.022 C 
ENDBRANCH  22  30
ENDBRANCH  19  20
ENDBRANCH  18  19
ENDBRANCH  12  18
TORSDOF 6
