REMARK  Name = ZINC14070977
REMARK  8 active torsions:
REMARK  status: ('A' for Active; 'I' for Inactive)
REMARK    1  A    between atoms: C_4  and  S_7
REMARK    2  A    between atoms: S_7  and  N_10
REMARK    3  A    between atoms: N_10  and  C_11
REMARK    4  A    between atoms: C_15  and  C_17
REMARK    5  A    between atoms: N_19  and  C_20
REMARK    6  A    between atoms: C_20  and  C_21
REMARK    7  A    between atoms: C_21  and  C_23
REMARK    8  A    between atoms: C_21  and  N_28
REMARK                            x       y       z     vdW  Elec       q    Type
REMARK                         _______ _______ _______ _____ _____    ______ ____
ROOT
ATOM      1  C   UNL     1       3.782  -4.661   4.897  0.00  0.00    +0.244 C 
ATOM      2  O   UNL     1       4.955  -4.523   5.187  0.00  0.00    -0.270 OA
ATOM      3  N   UNL     1       3.018  -5.539   5.577  0.00  0.00    -0.312 N 
ATOM      4  H   UNL     1       2.083  -5.648   5.345  0.00  0.00    +0.149 HD
ENDROOT
BRANCH   1   9
ATOM      5  C   UNL     1       3.424  -2.211   2.066  0.00  0.00    +0.049 A 
ATOM      6  C   UNL     1       2.082  -2.374   1.740  0.00  0.00    +0.024 A 
ATOM      7  C   UNL     1       1.301  -3.275   2.439  0.00  0.00    +0.003 A 
ATOM      8  C   UNL     1       1.848  -4.020   3.464  0.00  0.00    +0.013 A 
ATOM      9  C   UNL     1       3.194  -3.864   3.799  0.00  0.00    +0.038 A 
ATOM     10  C   UNL     1       3.984  -2.958   3.091  0.00  0.00    +0.037 A 
BRANCH   5  11
ATOM     11  N   UNL     1       4.209  -1.299   1.357  0.00  0.00    -0.216 N 
ATOM     12  H   UNL     1       4.789  -0.685   1.833  0.00  0.00    +0.174 HD
BRANCH  11  13
ATOM     13  S   UNL     1       4.150  -1.267  -0.298  0.00  0.00    +0.072 S 
ATOM     14  O   UNL     1       5.093  -0.290  -0.719  0.00  0.00    -0.150 OA
ATOM     15  O   UNL     1       2.776  -1.202  -0.654  0.00  0.00    -0.150 OA
BRANCH  13  19
ATOM     16  C   UNL     1       5.681  -5.263  -1.773  0.00  0.00    +0.000 A 
ATOM     17  C   UNL     1       4.350  -5.117  -1.429  0.00  0.00    +0.002 A 
ATOM     18  C   UNL     1       3.883  -3.897  -0.978  0.00  0.00    +0.029 A 
ATOM     19  C   UNL     1       4.746  -2.823  -0.871  0.00  0.00    +0.108 A 
ATOM     20  C   UNL     1       6.077  -2.969  -1.215  0.00  0.00    +0.029 A 
ATOM     21  C   UNL     1       6.545  -4.189  -1.667  0.00  0.00    +0.002 A 
ENDBRANCH  13  19
ENDBRANCH  11  13
ENDBRANCH   5  11
ENDBRANCH   1   9
BRANCH   3  22
ATOM     22  C   UNL     1       3.601  -6.328   6.665  0.00  0.00    +0.097 C 
BRANCH  22  23
ATOM     23  C   UNL     1       2.502  -7.141   7.351  0.00  0.00    +0.016 C 
BRANCH  23  24
ATOM     24  N   UNL     1       1.431  -6.239   7.797  0.00  0.00    +0.387 N 
ATOM     25  C   UNL     1       2.002  -5.189   8.649  0.00  0.00    -0.078 C 
ATOM     26  C   UNL     1       0.905  -4.201   9.050  0.00  0.00    -0.019 C 
ATOM     27  C   UNL     1      -0.189  -4.946   9.820  0.00  0.00    -0.004 C 
ATOM     28  C   UNL     1      -0.726  -6.086   8.950  0.00  0.00    -0.019 C 
ATOM     29  C   UNL     1       0.432  -7.005   8.552  0.00  0.00    -0.078 C 
ATOM     30  H   UNL     1       0.993  -5.816   6.993  0.00  0.00    -0.081 HD
ENDBRANCH  23  24
BRANCH  23  31
ATOM     31  C   UNL     1       3.079  -7.863   8.541  0.00  0.00    +0.093 A 
ATOM     32  C   UNL     1       3.471  -9.150   8.566  0.00  0.00    +0.043 A 
ATOM     33  C   UNL     1       3.945  -9.408   9.873  0.00  0.00    +0.041 A 
ATOM     34  C   UNL     1       3.814  -8.264  10.568  0.00  0.00    +0.195 A 
ATOM     35  O   UNL     1       3.294  -7.330   9.754  0.00  0.00    -0.469 OA
ENDBRANCH  23  31
ENDBRANCH  22  23
ENDBRANCH   3  22
TORSDOF 8
