REMARK  Name = ZINC19529642
REMARK  10 active torsions:
REMARK  status: ('A' for Active; 'I' for Inactive)
REMARK    1  A    between atoms: C_1  and  C_2
REMARK    2  A    between atoms: C_2  and  O_3
REMARK    3  A    between atoms: O_3  and  C_4
REMARK    4  A    between atoms: C_4  and  C_6
REMARK    5  A    between atoms: C_6  and  C_32
REMARK    6  A    between atoms: C_11  and  C_14
REMARK    7  A    between atoms: C_17  and  O_20
REMARK    8  A    between atoms: N_23  and  C_26
REMARK    9  A    between atoms: C_32  and  C_33
REMARK   10  A    between atoms: C_36  and  O_39
REMARK                            x       y       z     vdW  Elec       q    Type
REMARK                         _______ _______ _______ _____ _____    ______ ____
ROOT
ATOM      1  C   UNL     1       3.090   6.271  -0.020  0.00  0.00    +0.133 C 
ATOM      2  C   UNL     1       3.852   5.476   1.038  0.00  0.00    +0.121 C 
ATOM      3  C   UNL     1       2.743   4.382   1.315  0.00  0.00    +0.111 C 
ATOM      4  C   UNL     1       2.421   3.944  -0.057  0.00  0.00    +0.098 C 
ATOM      5  N   UNL     1       2.304   5.255  -0.784  0.00  0.00    -0.293 NA
ATOM      6  C   UNL     1       3.212   3.822   2.562  0.00  0.00    +0.232 C 
ATOM      7  O   UNL     1       3.152   2.667   2.925  0.00  0.00    -0.274 OA
ATOM      8  N   UNL     1       3.741   4.890   3.245  0.00  0.00    -0.210 N 
ATOM      9  C   UNL     1       3.922   5.987   2.451  0.00  0.00    +0.232 C 
ATOM     10  O   UNL     1       4.100   7.131   2.810  0.00  0.00    -0.274 OA
ATOM     11  H   UNL     1       1.251   5.570  -0.837  0.00  0.00    +0.124 HD
ENDROOT
BRANCH   4  12
ATOM     12  C   UNL     1       1.115   3.192  -0.089  0.00  0.00    -0.029 A 
ATOM     13  C   UNL     1       1.115   1.810  -0.122  0.00  0.00    +0.009 A 
ATOM     14  C   UNL     1      -0.080   1.118  -0.152  0.00  0.00    +0.046 A 
ATOM     15  C   UNL     1      -1.282   1.812  -0.153  0.00  0.00    +0.117 A 
ATOM     16  C   UNL     1      -1.279   3.199  -0.116  0.00  0.00    +0.046 A 
ATOM     17  C   UNL     1      -0.081   3.886  -0.086  0.00  0.00    +0.009 A 
BRANCH  15  18
ATOM     18  O   UNL     1      -2.459   1.134  -0.188  0.00  0.00    -0.507 OA
ATOM     19  H   UNL     1      -3.411   1.685  -0.189  0.00  0.00    +0.292 HD
ENDBRANCH  15  18
ENDBRANCH   4  12
BRANCH   8  20
ATOM     20  C   UNL     1       4.061   4.857   4.610  0.00  0.00    +0.044 A 
ATOM     21  C   UNL     1       4.598   5.980   5.226  0.00  0.00    +0.024 A 
ATOM     22  C   UNL     1       4.907   5.946   6.571  0.00  0.00    +0.002 A 
ATOM     23  C   UNL     1       4.692   4.793   7.303  0.00  0.00    +0.000 A 
ATOM     24  C   UNL     1       4.162   3.672   6.692  0.00  0.00    +0.002 A 
ATOM     25  C   UNL     1       3.846   3.701   5.348  0.00  0.00    +0.024 A 
ENDBRANCH   8  20
BRANCH   1  26
ATOM     26  C   UNL     1       2.164   7.262   0.637  0.00  0.00    +0.329 C 
ATOM     27  O   UNL     1       2.544   8.386   0.863  0.00  0.00    -0.249 OA
BRANCH  26  28
ATOM     28  O   UNL     1       0.917   6.895   0.972  0.00  0.00    -0.464 OA
BRANCH  28  30
ATOM     29  C   UNL     1      -1.294   7.303   1.909  0.00  0.00    +0.048 C 
ATOM     30  C   UNL     1       0.081   7.901   1.602  0.00  0.00    +0.229 C 
ENDBRANCH  28  30
ENDBRANCH  26  28
ENDBRANCH   1  26
BRANCH   1  31
ATOM     31  C   UNL     1       4.068   6.995  -0.948  0.00  0.00    +0.069 C 
BRANCH  31  32
ATOM     32  C   UNL     1       3.297   7.772  -1.983  0.00  0.00    -0.045 A 
ATOM     33  C   UNL     1       2.965   7.178  -3.186  0.00  0.00    +0.007 A 
ATOM     34  C   UNL     1       2.253   7.887  -4.135  0.00  0.00    +0.045 A 
ATOM     35  C   UNL     1       1.881   9.200  -3.883  0.00  0.00    +0.117 A 
ATOM     36  C   UNL     1       2.221   9.796  -2.677  0.00  0.00    +0.045 A 
ATOM     37  C   UNL     1       2.929   9.081  -1.730  0.00  0.00    +0.007 A 
BRANCH  35  38
ATOM     38  O   UNL     1       1.186   9.901  -4.817  0.00  0.00    -0.507 OA
ATOM     39  H   UNL     1       0.892  10.942  -4.617  0.00  0.00    +0.292 HD
ENDBRANCH  35  38
ENDBRANCH  31  32
ENDBRANCH   1  31
TORSDOF 9
