REMARK  Name = ZINC06631393
REMARK  16 active torsions:
REMARK  status: ('A' for Active; 'I' for Inactive)
REMARK    1  A    between atoms: C_1  and  C_2
REMARK    2  A    between atoms: C_2  and  O_3
REMARK    3  A    between atoms: O_3  and  C_4
REMARK    4  A    between atoms: C_9  and  N_10
REMARK    5  A    between atoms: N_10  and  C_11
REMARK    6  A    between atoms: C_11  and  C_13
REMARK    7  A    between atoms: C_11  and  C_20
REMARK    8  A    between atoms: C_16  and  C_19
REMARK    9  A    between atoms: N_22  and  C_23
REMARK   10  A    between atoms: C_23  and  C_24
REMARK   11  A    between atoms: C_24  and  C_25
REMARK   12  A    between atoms: C_25  and  C_26
REMARK   13  A    between atoms: C_25  and  C_27
REMARK   14  A    between atoms: C_28  and  C_30
REMARK   15  A    between atoms: C_31  and  N_38
REMARK   16  A    between atoms: C_32  and  C_35
REMARK                            x       y       z     vdW  Elec       q    Type
REMARK                         _______ _______ _______ _____ _____    ______ ____
ROOT
ATOM      1  N   UNL     1      -5.941   2.660   0.038  0.00  0.00    -0.247 N 
ATOM      2  C   UNL     1      -5.058   1.707  -0.322  0.00  0.00    +0.262 C 
ATOM      3  O   UNL     1      -5.443   0.573  -0.539  0.00  0.00    -0.269 OA
ENDROOT
BRANCH   1   9
ATOM      4  C   UNL     1      -5.125   4.341   1.577  0.00  0.00    +0.142 A 
ATOM      5  C   UNL     1      -4.684   5.632   1.818  0.00  0.00    +0.047 A 
ATOM      6  C   UNL     1      -4.624   6.547   0.783  0.00  0.00    +0.004 A 
ATOM      7  C   UNL     1      -4.998   6.176  -0.495  0.00  0.00    +0.002 A 
ATOM      8  C   UNL     1      -5.435   4.889  -0.745  0.00  0.00    +0.027 A 
ATOM      9  C   UNL     1      -5.498   3.965   0.288  0.00  0.00    +0.079 A 
BRANCH   4  10
ATOM     10  O   UNL     1      -5.191   3.442   2.595  0.00  0.00    -0.490 OA
BRANCH  10  12
ATOM     11  C   UNL     1      -4.933   2.755   4.898  0.00  0.00    +0.048 C 
ATOM     12  C   UNL     1      -4.793   3.898   3.890  0.00  0.00    +0.226 C 
ENDBRANCH  10  12
ENDBRANCH   4  10
ENDBRANCH   1   9
BRANCH   2  13
ATOM     13  C   UNL     1      -3.637   2.035  -0.450  0.00  0.00    +0.116 A 
ATOM     14  C   UNL     1      -2.568   1.213  -0.810  0.00  0.00    +0.076 A 
ATOM     15  C   UNL     1      -1.350   1.894  -0.819  0.00  0.00    +0.155 A 
ATOM     16  N   UNL     1      -1.326   3.172  -0.514  0.00  0.00    -0.203 NA
ATOM     17  S   UNL     1      -2.811   3.592  -0.196  0.00  0.00    +0.019 S 
BRANCH  15  18
ATOM     18  C   UNL     1      -0.105   1.188  -1.172  0.00  0.00    +0.262 C 
ATOM     19  O   UNL     1      -0.135   0.005  -1.453  0.00  0.00    -0.269 OA
ATOM     20  N   UNL     1       1.066   1.855  -1.188  0.00  0.00    -0.324 N 
ATOM     21  H   UNL     1       1.885   1.392  -1.424  0.00  0.00    +0.145 HD
ATOM     22  H   UNL     1       1.090   2.799  -0.964  0.00  0.00    +0.145 HD
ENDBRANCH  15  18
BRANCH  14  23
ATOM     23  N   UNL     1      -2.701  -0.133  -1.122  0.00  0.00    -0.355 N 
ATOM     24  H   UNL     1      -1.919  -0.655  -1.362  0.00  0.00    +0.142 HD
ATOM     25  H   UNL     1      -3.576  -0.552  -1.099  0.00  0.00    +0.142 HD
ENDBRANCH  14  23
ENDBRANCH   2  13
BRANCH   1  26
ATOM     26  C   UNL     1      -7.362   2.331   0.167  0.00  0.00    +0.198 C 
BRANCH  26  27
ATOM     27  C   UNL     1      -7.857   2.762   1.523  0.00  0.00    -0.018 A 
ATOM     28  C   UNL     1      -8.258   1.814   2.446  0.00  0.00    +0.006 A 
ATOM     29  C   UNL     1      -8.707   2.209   3.692  0.00  0.00    +0.004 A 
ATOM     30  C   UNL     1      -8.765   3.553   4.012  0.00  0.00    -0.050 A 
ATOM     31  C   UNL     1      -8.368   4.501   3.088  0.00  0.00    +0.004 A 
ATOM     32  C   UNL     1      -7.914   4.106   1.843  0.00  0.00    +0.006 A 
ATOM     33  C   UNL     1      -9.260   3.984   5.369  0.00  0.00    +0.044 C 
ENDBRANCH  26  27
BRANCH  26  34
ATOM     34  C   UNL     1      -8.143   3.049  -0.904  0.00  0.00    +0.238 C 
ATOM     35  O   UNL     1      -7.568   3.765  -1.696  0.00  0.00    -0.273 OA
ATOM     36  N   UNL     1      -9.480   2.896  -0.981  0.00  0.00    -0.313 N 
ATOM     37  H   UNL     1      -9.939   2.323  -0.347  0.00  0.00    +0.149 HD
BRANCH  36  38
ATOM     38  C   UNL     1     -10.239   3.594  -2.021  0.00  0.00    +0.104 C 
BRANCH  38  39
ATOM     39  C   UNL     1     -11.723   3.251  -1.887  0.00  0.00    +0.022 C 
BRANCH  39  40
ATOM     40  C   UNL     1     -12.516   3.980  -2.974  0.00  0.00    -0.016 C 
ATOM     41  C   UNL     1     -12.101   3.451  -4.348  0.00  0.00    +0.007 C 
ATOM     42  C   UNL     1     -14.012   3.736  -2.764  0.00  0.00    +0.007 C 
ENDBRANCH  39  40
ENDBRANCH  38  39
ENDBRANCH  36  38
ENDBRANCH  26  34
ENDBRANCH   1  26
TORSDOF 12
