REMARK  Name = ZINC31810035
REMARK  9 active torsions:
REMARK  status: ('A' for Active; 'I' for Inactive)
REMARK    1  A    between atoms: C_1  and  C_2
REMARK    2  A    between atoms: C_5  and  C_11
REMARK    3  A    between atoms: C_6  and  C_10
REMARK    4  A    between atoms: C_7  and  O_8
REMARK    5  A    between atoms: O_8  and  C_9
REMARK    6  A    between atoms: C_11  and  N_12
REMARK    7  A    between atoms: N_15  and  C_18
REMARK    8  A    between atoms: C_18  and  C_20
REMARK    9  A    between atoms: C_18  and  C_31
REMARK                            x       y       z     vdW  Elec       q    Type
REMARK                         _______ _______ _______ _____ _____    ______ ____
ROOT
ATOM      1  N   UNL     1      -1.297  -4.750   0.049  0.00  0.00    -0.300 NA
ATOM      2  C   UNL     1      -2.196  -4.361  -1.046  0.00  0.00    +0.066 C 
ATOM      3  C   UNL     1      -3.609  -4.869  -0.749  0.00  0.00    -0.062 C 
ATOM      4  N   UNL     1      -3.584  -6.331  -0.610  0.00  0.00    +0.393 N 
ATOM      5  C   UNL     1      -2.701  -6.704   0.504  0.00  0.00    -0.062 C 
ATOM      6  C   UNL     1      -1.281  -6.210   0.217  0.00  0.00    +0.066 C 
ATOM      7  H   UNL     1      -3.240  -6.744  -1.464  0.00  0.00    -0.080 HD
ENDROOT
BRANCH   1   8
ATOM      8  C   UNL     1       0.059  -4.231  -0.172  0.00  0.00    +0.137 C 
BRANCH   8  13
ATOM      9  C   UNL     1      -0.018   1.503   0.010  0.00  0.00    +0.049 C 
ATOM     10  C   UNL     1       0.002  -0.004   0.002  0.00  0.00    +0.007 A 
ATOM     11  C   UNL     1       0.006  -0.697  -1.191  0.00  0.00    +0.089 A 
ATOM     12  N   UNL     1       0.024  -2.016  -1.207  0.00  0.00    -0.363 N 
ATOM     13  C   UNL     1       0.039  -2.726  -0.095  0.00  0.00    +0.037 A 
ATOM     14  C   UNL     1       0.036  -2.108   1.139  0.00  0.00    +0.012 A 
ATOM     15  C   UNL     1       0.023  -0.716   1.198  0.00  0.00    +0.129 A 
ATOM     16  C   UNL     1       0.053  -2.926   2.404  0.00  0.00    +0.049 C 
ATOM     17  H   UNL     1       0.027  -2.477  -2.060  0.00  0.00    +0.165 HD
BRANCH  15  18
ATOM     18  O   UNL     1       0.025  -0.071   2.393  0.00  0.00    -0.494 OA
ATOM     19  C   UNL     1      -1.247   0.220   2.975  0.00  0.00    +0.277 C 
ENDBRANCH  15  18
ENDBRANCH   8  13
ENDBRANCH   1   8
BRANCH   4  20
ATOM     20  C   UNL     1      -4.943  -6.821  -0.342  0.00  0.00    +0.080 C 
BRANCH  20  21
ATOM     21  C   UNL     1      -4.917  -8.320  -0.199  0.00  0.00    -0.025 A 
ATOM     22  C   UNL     1      -3.959  -9.149  -0.643  0.00  0.00    +0.086 A 
ATOM     23  N   UNL     1      -4.278 -10.442  -0.330  0.00  0.00    -0.360 N 
ATOM     24  H   UNL     1      -3.737 -11.217  -0.548  0.00  0.00    +0.165 HD
ATOM     25  C   UNL     1      -5.481 -10.478   0.340  0.00  0.00    +0.047 A 
ATOM     26  C   UNL     1      -5.931  -9.151   0.456  0.00  0.00    +0.003 A 
ATOM     27  C   UNL     1      -7.138  -8.878   1.103  0.00  0.00    +0.025 A 
ATOM     28  C   UNL     1      -7.879  -9.913   1.626  0.00  0.00    +0.019 A 
ATOM     29  C   UNL     1      -7.432 -11.223   1.514  0.00  0.00    +0.017 A 
ATOM     30  C   UNL     1      -6.247 -11.509   0.872  0.00  0.00    +0.027 A 
ATOM     31 BR   UNL     1      -9.515  -9.549   2.503  0.00  0.00    -0.050 Br
ENDBRANCH  20  21
BRANCH  20  32
ATOM     32  C   UNL     1      -5.848  -6.440  -1.485  0.00  0.00    +0.347 C 
ATOM     33  O   UNL     1      -5.395  -6.335  -2.613  0.00  0.00    -0.248 OA
ATOM     34  O   UNL     1      -7.033  -6.236  -1.283  0.00  0.00    -0.248 OA
ENDBRANCH  20  32
ENDBRANCH   4  20
TORSDOF 6
