REMARK  Name = ZINC39920657
REMARK  5 active torsions:
REMARK  status: ('A' for Active; 'I' for Inactive)
REMARK    1  A    between atoms: C_3  and  C_6
REMARK    2  A    between atoms: N_17  and  N_18
REMARK    3  A    between atoms: C_19  and  C_21
REMARK    4  A    between atoms: C_21  and  O_22
REMARK    5  A    between atoms: O_22  and  C_23
REMARK                            x       y       z     vdW  Elec       q    Type
REMARK                         _______ _______ _______ _____ _____    ______ ____
ROOT
ATOM      1  C   UNL     1       3.599   0.625  -0.029  0.00  0.00    +0.247 C 
ATOM      2  N   UNL     1       4.119   1.813   0.657  0.00  0.00    -0.318 N 
ATOM      3  C   UNL     1       4.096   1.847   2.047  0.00  0.00    +0.041 A 
ATOM      4  C   UNL     1       3.995   3.039   2.745  0.00  0.00    +0.025 A 
ATOM      5  C   UNL     1       3.986   3.024   4.126  0.00  0.00    +0.017 A 
ATOM      6  C   UNL     1       4.079   1.826   4.819  0.00  0.00    +0.019 A 
ATOM      7  C   UNL     1       4.176   0.630   4.138  0.00  0.00    +0.030 A 
ATOM      8  C   UNL     1       4.181   0.630   2.745  0.00  0.00    +0.060 A 
ATOM      9  C   UNL     1       4.259  -0.622   1.973  0.00  0.00    +0.267 C 
ATOM     10  O   UNL     1       4.498  -1.675   2.533  0.00  0.00    -0.268 OA
ATOM     11  N   UNL     1       4.062  -0.589   0.643  0.00  0.00    -0.188 N 
ATOM     12 BR   UNL     1       4.073   1.833   6.710  0.00  0.00    -0.050 Br
ATOM     13  H   UNL     1       4.473   2.561   0.150  0.00  0.00    +0.148 HD
ENDROOT
BRANCH   1  16
ATOM     14  C   UNL     1      -0.016   1.341   0.009  0.00  0.00    +0.041 A 
ATOM     15  C   UNL     1       1.331   1.769  -0.001  0.00  0.00    +0.048 A 
ATOM     16  C   UNL     1       2.092   0.660  -0.014  0.00  0.00    +0.145 A 
ATOM     17  O   UNL     1       1.282  -0.411  -0.012  0.00  0.00    -0.464 OA
ATOM     18  C   UNL     1       0.002  -0.004   0.002  0.00  0.00    +0.195 A 
ENDBRANCH   1  16
BRANCH  11  19
ATOM     19  N   UNL     1       4.305  -1.744  -0.112  0.00  0.00    -0.227 N 
ATOM     20  C   UNL     1       5.571  -2.123  -0.376  0.00  0.00    +0.267 C 
ATOM     21  O   UNL     1       6.500  -1.464   0.041  0.00  0.00    -0.271 OA
ATOM     22  H   UNL     1       3.562  -2.271  -0.446  0.00  0.00    +0.173 HD
BRANCH  20  23
ATOM     23  C   UNL     1       5.832  -3.365  -1.188  0.00  0.00    +0.326 C 
BRANCH  23  24
ATOM     24  O   UNL     1       7.242  -3.554  -1.329  0.00  0.00    -0.481 OA
BRANCH  24  25
ATOM     25  C   UNL     1       7.651  -4.638  -2.041  0.00  0.00    +0.140 A 
ATOM     26  C   UNL     1       6.715  -5.498  -2.595  0.00  0.00    +0.048 A 
ATOM     27  C   UNL     1       7.133  -6.599  -3.318  0.00  0.00    +0.023 A 
ATOM     28  C   UNL     1       8.484  -6.845  -3.489  0.00  0.00    +0.043 A 
ATOM     29  C   UNL     1       9.419  -5.988  -2.936  0.00  0.00    +0.043 A 
ATOM     30  C   UNL     1       9.006  -4.882  -2.217  0.00  0.00    +0.084 A 
ATOM     31 CL   UNL     1      10.180  -3.804  -1.531  0.00  0.00    -0.080 Cl
ATOM     32 CL   UNL     1       9.005  -8.229  -4.396  0.00  0.00    -0.083 Cl
ENDBRANCH  24  25
ENDBRANCH  23  24
ENDBRANCH  20  23
ENDBRANCH  11  19
TORSDOF 5
