REMARK  Name = ZINC30826042
REMARK  9 active torsions:
REMARK  status: ('A' for Active; 'I' for Inactive)
REMARK    1  A    between atoms: C_1  and  C_2
REMARK    2  A    between atoms: C_2  and  O_3
REMARK    3  A    between atoms: O_3  and  C_4
REMARK    4  A    between atoms: C_4  and  C_6
REMARK    5  A    between atoms: N_15  and  C_16
REMARK    6  A    between atoms: C_16  and  N_18
REMARK    7  A    between atoms: C_19  and  C_21
REMARK    8  A    between atoms: C_30  and  O_31
REMARK    9  A    between atoms: O_31  and  C_32
REMARK                            x       y       z     vdW  Elec       q    Type
REMARK                         _______ _______ _______ _____ _____    ______ ____
ROOT
ATOM      1  C   UNL     1      -4.938   4.061   0.072  0.00  0.00    +0.163 C 
ATOM      2  S   UNL     1      -6.398   3.169   0.082  0.00  0.00    -0.016 S 
ENDROOT
BRANCH   1  12
ATOM      3  C   UNL     1     -10.622   8.188   0.153  0.00  0.00    +0.060 A 
ATOM      4  C   UNL     1     -10.869   6.807   0.148  0.00  0.00    +0.017 A 
ATOM      5  C   UNL     1      -9.855   5.907   0.133  0.00  0.00    +0.027 A 
ATOM      6  C   UNL     1      -8.502   6.330   0.121  0.00  0.00    +0.055 A 
ATOM      7  C   UNL     1      -8.279   7.729   0.126  0.00  0.00    +0.039 A 
ATOM      8  C   UNL     1      -9.298   8.640   0.141  0.00  0.00    +0.032 A 
ATOM      9  S   UNL     1      -6.505   7.828   0.114  0.00  0.00    -0.052 S 
ATOM     10  C   UNL     1      -6.185   6.070   0.095  0.00  0.00    +0.163 A 
ATOM     11  N   UNL     1      -7.399   5.566   0.105  0.00  0.00    -0.335 N 
ATOM     12  N   UNL     1      -4.971   5.409   0.079  0.00  0.00    -0.169 NA
ATOM     13  H   UNL     1      -7.490   4.469   0.100  0.00  0.00    +0.168 HD
BRANCH   3  14
ATOM     14  C   UNL     1     -11.741   9.147   0.170  0.00  0.00    +0.339 C 
ATOM     15  O   UNL     1     -11.517  10.341   0.174  0.00  0.00    -0.245 OA
BRANCH  14  16
ATOM     16  O   UNL     1     -13.012   8.700   0.181  0.00  0.00    -0.461 OA
BRANCH  16  18
ATOM     17  C   UNL     1     -15.427   9.009   0.209  0.00  0.00    +0.048 C 
ATOM     18  C   UNL     1     -14.063   9.701   0.198  0.00  0.00    +0.229 C 
ENDBRANCH  16  18
ENDBRANCH  14  16
ENDBRANCH   3  14
ENDBRANCH   1  12
BRANCH   1  19
ATOM     19  N   UNL     1      -3.754   3.417   0.057  0.00  0.00    -0.262 N 
ATOM     20  C   UNL     1      -3.720   2.069   0.050  0.00  0.00    +0.253 C 
ATOM     21  O   UNL     1      -4.758   1.436   0.057  0.00  0.00    -0.270 OA
ATOM     22  H   UNL     1      -2.815   3.990   0.050  0.00  0.00    +0.157 HD
BRANCH  20  23
ATOM     23  C   UNL     1      -2.425   1.364   0.033  0.00  0.00    +0.079 A 
ATOM     24  C   UNL     1      -1.245   2.091   0.031  0.00  0.00    +0.025 A 
ATOM     25  C   UNL     1      -0.017   1.415   0.010  0.00  0.00    -0.017 A 
ATOM     26  C   UNL     1       1.200   2.121   0.002  0.00  0.00    +0.008 A 
ATOM     27  C   UNL     1       2.376   1.436  -0.013  0.00  0.00    +0.001 A 
ATOM     28  C   UNL     1       2.394   0.043  -0.021  0.00  0.00    +0.001 A 
ATOM     29  C   UNL     1       1.238  -0.674  -0.013  0.00  0.00    +0.008 A 
ATOM     30  C   UNL     1       0.002  -0.004   0.002  0.00  0.00    -0.014 A 
ATOM     31  C   UNL     1      -1.208  -0.718   0.010  0.00  0.00    +0.055 A 
ATOM     32  C   UNL     1      -2.395  -0.047   0.026  0.00  0.00    +0.133 A 
BRANCH  32  33
ATOM     33  O   UNL     1      -3.560  -0.743   0.033  0.00  0.00    -0.494 OA
ATOM     34  C   UNL     1      -3.463  -2.169   0.025  0.00  0.00    +0.277 C 
ENDBRANCH  32  33
ENDBRANCH  20  23
ENDBRANCH   1  19
TORSDOF 7
