REMARK  Name = ZINC39143300
REMARK  6 active torsions:
REMARK  status: ('A' for Active; 'I' for Inactive)
REMARK    1  A    between atoms: C_4  and  C_7
REMARK    2  A    between atoms: C_9  and  C_24
REMARK    3  A    between atoms: N_12  and  C_16
REMARK    4  A    between atoms: C_13  and  N_15
REMARK    5  A    between atoms: C_24  and  S_25
REMARK    6  A    between atoms: S_25  and  C_26
REMARK                            x       y       z     vdW  Elec       q    Type
REMARK                         _______ _______ _______ _____ _____    ______ ____
ROOT
ATOM      1  C   UNL     1       3.760  -0.390   0.159  0.00  0.00    +0.042 C 
ATOM      2  C   UNL     1       3.648  -1.480  -0.941  0.00  0.00    +0.090 C 
ATOM      3  N   UNL     1       4.511  -2.557  -0.391  0.00  0.00    -0.237 NA
ATOM      4  N   UNL     1       4.302  -2.588   0.964  0.00  0.00    -0.278 N 
ATOM      5  C   UNL     1       3.873  -1.260   1.434  0.00  0.00    +0.040 C 
ATOM      6  H   UNL     1       5.483  -2.385  -0.603  0.00  0.00    +0.145 HD
ENDROOT
BRANCH   4   7
ATOM      7  C   UNL     1       4.471  -3.714   1.779  0.00  0.00    +0.078 A 
ATOM      8  C   UNL     1       5.303  -3.651   2.888  0.00  0.00    +0.030 A 
ATOM      9  C   UNL     1       5.468  -4.763   3.691  0.00  0.00    +0.040 A 
ATOM     10  C   UNL     1       4.806  -5.941   3.390  0.00  0.00    +0.126 A 
ATOM     11  C   UNL     1       3.975  -6.008   2.284  0.00  0.00    +0.078 A 
ATOM     12  C   UNL     1       3.801  -4.896   1.481  0.00  0.00    +0.148 A 
ATOM     13  F   UNL     1       2.986  -4.959   0.405  0.00  0.00    -0.203 F 
ATOM     14  F   UNL     1       4.970  -7.027   4.177  0.00  0.00    -0.205 F 
ENDBRANCH   4   7
BRANCH   1  18
ATOM     15  C   UNL     1       0.254   2.048   0.266  0.00  0.00    +0.000 A 
ATOM     16  C   UNL     1       1.496   2.630   0.089  0.00  0.00    +0.000 A 
ATOM     17  C   UNL     1       2.630   1.841   0.054  0.00  0.00    +0.004 A 
ATOM     18  C   UNL     1       2.523   0.470   0.198  0.00  0.00    -0.043 A 
ATOM     19  C   UNL     1       1.282  -0.112   0.376  0.00  0.00    +0.004 A 
ATOM     20  C   UNL     1       0.147   0.677   0.408  0.00  0.00    +0.000 A 
ENDBRANCH   1  18
BRANCH   5  21
ATOM     21  N   UNL     1       2.568  -1.355   2.102  0.00  0.00    +0.392 N 
ATOM     22  H   UNL     1       1.950  -1.934   1.554  0.00  0.00    -0.087 HD
ATOM     23  H   UNL     1       2.688  -1.762   3.018  0.00  0.00    -0.087 HD
ATOM     24  H   UNL     1       2.170  -0.432   2.195  0.00  0.00    -0.087 HD
ENDBRANCH   5  21
BRANCH   2  25
ATOM     25  C   UNL     1       2.203  -1.960  -1.092  0.00  0.00    +0.098 C 
BRANCH  25  26
ATOM     26  S   UNL     1       2.114  -3.212  -2.402  0.00  0.00    -0.086 S 
BRANCH  26  27
ATOM     27  C   UNL     1       0.410  -3.657  -2.451  0.00  0.00    +0.167 A 
ATOM     28  N   UNL     1      -0.523  -3.152  -1.682  0.00  0.00    -0.222 NA
ATOM     29  C   UNL     1      -1.720  -3.717  -1.986  0.00  0.00    +0.090 A 
ATOM     30  C   UNL     1      -3.014  -3.550  -1.487  0.00  0.00    +0.030 A 
ATOM     31  C   UNL     1      -4.051  -4.288  -2.015  0.00  0.00    +0.002 A 
ATOM     32  C   UNL     1      -3.820  -5.196  -3.037  0.00  0.00    +0.002 A 
ATOM     33  C   UNL     1      -2.547  -5.372  -3.541  0.00  0.00    +0.028 A 
ATOM     34  C   UNL     1      -1.492  -4.638  -3.023  0.00  0.00    +0.067 A 
ATOM     35  N   UNL     1      -0.137  -4.576  -3.302  0.00  0.00    -0.333 N 
ATOM     36  H   UNL     1       0.337  -5.091  -3.974  0.00  0.00    +0.168 HD
ENDBRANCH  26  27
ENDBRANCH  25  26
ENDBRANCH   2  25
TORSDOF 6
