REMARK  Name = ZINC63572058
REMARK  8 active torsions:
REMARK  status: ('A' for Active; 'I' for Inactive)
REMARK    1  A    between atoms: C_1  and  C_2
REMARK    2  A    between atoms: C_2  and  C_3
REMARK    3  A    between atoms: C_2  and  C_4
REMARK    4  A    between atoms: C_4  and  C_5
REMARK    5  A    between atoms: C_5  and  N_6
REMARK    6  A    between atoms: C_22  and  C_24
REMARK    7  A    between atoms: C_27  and  O_30
REMARK    8  A    between atoms: O_30  and  C_31
REMARK                            x       y       z     vdW  Elec       q    Type
REMARK                         _______ _______ _______ _____ _____    ______ ____
ROOT
ATOM      1  N   UNL     1      -2.925  -3.288   2.037  0.00  0.00    -0.299 N 
ATOM      2  C   UNL     1      -3.090  -4.328   1.196  0.00  0.00    +0.303 C 
ATOM      3  O   UNL     1      -2.135  -5.011   0.879  0.00  0.00    -0.253 OA
ATOM      4  N   UNL     1      -4.314  -4.612   0.708  0.00  0.00    -0.276 N 
ATOM      5  C   UNL     1      -5.436  -3.713   0.995  0.00  0.00    +0.114 C 
ATOM      6  C   UNL     1      -6.046  -3.216  -0.328  0.00  0.00    +0.052 C 
ATOM      7  C   UNL     1      -6.183  -4.423  -1.223  0.00  0.00    -0.035 C 
ATOM      8  C   UNL     1      -7.219  -4.899  -1.902  0.00  0.00    -0.001 A 
ATOM      9  C   UNL     1      -8.575  -4.370  -2.119  0.00  0.00    +0.010 A 
ATOM     10  C   UNL     1      -9.408  -5.143  -2.866  0.00  0.00    +0.001 A 
ATOM     11  C   UNL     1      -9.031  -6.373  -3.412  0.00  0.00    +0.002 A 
ATOM     12  C   UNL     1      -7.803  -6.932  -3.270  0.00  0.00    +0.026 A 
ATOM     13  C   UNL     1      -6.837  -6.210  -2.511  0.00  0.00    +0.043 A 
ATOM     14  N   UNL     1      -5.597  -6.493  -2.239  0.00  0.00    -0.375 N 
ATOM     15  C   UNL     1      -5.025  -5.379  -1.483  0.00  0.00    +0.131 C 
ATOM     16  C   UNL     1      -4.508  -5.818  -0.114  0.00  0.00    +0.134 C 
ATOM     17  H   UNL     1      -3.672  -2.700   2.234  0.00  0.00    +0.150 HD
ATOM     18  H   UNL     1      -5.132  -7.304  -2.495  0.00  0.00    +0.160 HD
ENDROOT
BRANCH  16  19
ATOM     19  C   UNL     1      -3.196  -6.542  -0.275  0.00  0.00    -0.024 A 
ATOM     20  C   UNL     1      -2.197  -5.995  -1.060  0.00  0.00    +0.009 A 
ATOM     21  C   UNL     1      -0.994  -6.658  -1.209  0.00  0.00    +0.046 A 
ATOM     22  C   UNL     1      -0.788  -7.872  -0.571  0.00  0.00    +0.120 A 
ATOM     23  C   UNL     1      -1.792  -8.418   0.217  0.00  0.00    +0.046 A 
ATOM     24  C   UNL     1      -2.991  -7.749   0.367  0.00  0.00    +0.009 A 
BRANCH  22  25
ATOM     25  O   UNL     1       0.394  -8.525  -0.717  0.00  0.00    -0.495 OA
ATOM     26  C   UNL     1       0.536  -9.771  -0.030  0.00  0.00    +0.277 C 
ENDBRANCH  22  25
ENDBRANCH  16  19
BRANCH   1  27
ATOM     27  C   UNL     1      -1.619  -3.045   2.654  0.00  0.00    +0.106 C 
BRANCH  27  28
ATOM     28  C   UNL     1      -1.703  -1.813   3.558  0.00  0.00    +0.022 C 
BRANCH  28  30
ATOM     29  C   UNL     1      -0.389  -0.258   5.005  0.00  0.00    +0.007 C 
ATOM     30  C   UNL     1      -0.339  -1.559   4.202  0.00  0.00    -0.016 C 
ATOM     31  C   UNL     1       0.009  -2.721   5.134  0.00  0.00    +0.007 C 
ENDBRANCH  28  30
ENDBRANCH  27  28
ENDBRANCH   1  27
TORSDOF 5
