REMARK  Name = ZINC39617542
REMARK  14 active torsions:
REMARK  status: ('A' for Active; 'I' for Inactive)
REMARK    1  A    between atoms: C_1  and  C_2
REMARK    2  A    between atoms: C_2  and  C_3
REMARK    3  A    between atoms: C_3  and  C_5
REMARK    4  A    between atoms: C_3  and  N_35
REMARK    5  A    between atoms: C_9  and  S_18
REMARK    6  A    between atoms: N_10  and  C_11
REMARK    7  A    between atoms: C_11  and  C_12
REMARK    8  A    between atoms: S_18  and  C_19
REMARK    9  A    between atoms: C_19  and  C_20
REMARK   10  A    between atoms: C_25  and  C_34
REMARK   11  A    between atoms: C_26  and  C_31
REMARK   12  A    between atoms: C_31  and  C_33
REMARK   13  A    between atoms: N_35  and  C_36
REMARK   14  A    between atoms: N_35  and  C_37
REMARK                            x       y       z     vdW  Elec       q    Type
REMARK                         _______ _______ _______ _____ _____    ______ ____
ROOT
ATOM      1  C   UNL     1      -1.635  -2.013  -0.642  0.00  0.00    +0.164 C 
ATOM      2  N   UNL     1      -2.702  -3.019  -0.505  0.00  0.00    -0.248 N 
ATOM      3  N   UNL     1      -2.194  -4.013   0.340  0.00  0.00    -0.163 NA
ATOM      4  C   UNL     1      -0.991  -3.742   0.718  0.00  0.00    +0.176 C 
ATOM      5  N   UNL     1      -0.536  -2.544   0.181  0.00  0.00    -0.286 N 
ATOM      6  H   UNL     1      -3.580  -2.997  -0.916  0.00  0.00    +0.170 HD
ENDROOT
BRANCH   1   7
ATOM      7  C   UNL     1      -2.102  -0.658  -0.107  0.00  0.00    -0.029 C 
BRANCH   7   8
ATOM      8  N   UNL     1      -2.939  -0.864   1.083  0.00  0.00    +0.380 N 
ATOM      9  C   UNL     1      -4.021  -1.805   0.763  0.00  0.00    -0.096 C 
ATOM     10  C   UNL     1      -2.118  -1.413   2.170  0.00  0.00    -0.096 C 
ATOM     11  H   UNL     1      -3.335   0.018   1.372  0.00  0.00    -0.082 HD
ENDBRANCH   7   8
BRANCH   7  13
ATOM     12  C   UNL     1      -3.435   1.390  -0.626  0.00  0.00    +0.002 C 
ATOM     13  C   UNL     1      -2.915   0.064  -1.183  0.00  0.00    -0.015 C 
ENDBRANCH   7  13
ENDBRANCH   1   7
BRANCH   5  14
ATOM     14  C   UNL     1       0.776  -1.927   0.393  0.00  0.00    +0.144 C 
BRANCH  14  15
ATOM     15  C   UNL     1       0.767  -1.157   1.688  0.00  0.00    -0.030 A 
ATOM     16  C   UNL     1       0.533   0.206   1.679  0.00  0.00    +0.005 A 
ATOM     17  C   UNL     1       0.524   0.913   2.867  0.00  0.00    +0.000 A 
ATOM     18  C   UNL     1       0.748   0.258   4.063  0.00  0.00    +0.000 A 
ATOM     19  C   UNL     1       0.981  -1.105   4.072  0.00  0.00    +0.000 A 
ATOM     20  C   UNL     1       0.986  -1.813   2.885  0.00  0.00    +0.005 A 
ENDBRANCH  14  15
ENDBRANCH   5  14
BRANCH   4  21
ATOM     21  S   UNL     1      -0.037  -4.770   1.786  0.00  0.00    -0.081 S 
BRANCH  21  22
ATOM     22  C   UNL     1      -1.136  -6.166   2.149  0.00  0.00    +0.150 C 
BRANCH  22  23
ATOM     23  C   UNL     1      -0.433  -7.134   3.066  0.00  0.00    +0.134 C 
ATOM     24  N   UNL     1       0.787  -6.850   3.450  0.00  0.00    -0.160 NA
ATOM     25  C   UNL     1       1.494  -7.644   4.262  0.00  0.00    +0.271 C 
ATOM     26  O   UNL     1       2.628  -7.348   4.601  0.00  0.00    -0.268 OA
ATOM     27  C   UNL     1       0.848  -8.907   4.742  0.00  0.00    +0.071 C 
ATOM     28  C   UNL     1       1.358  -9.845   5.553  0.00  0.00    -0.038 C 
ATOM     29  C   UNL     1       0.488 -11.036   5.886  0.00  0.00    +0.145 C 
ATOM     30  S   UNL     1      -1.046 -10.651   4.946  0.00  0.00    -0.090 S 
ATOM     31  C   UNL     1      -0.527  -9.109   4.236  0.00  0.00    +0.112 C 
ATOM     32  N   UNL     1      -1.083  -8.224   3.444  0.00  0.00    -0.227 NA
ATOM     33  C   UNL     1       2.751  -9.718   6.112  0.00  0.00    +0.041 C 
BRANCH  29  34
ATOM     34  C   UNL     1       1.114 -12.316   5.396  0.00  0.00    +0.148 C 
ATOM     35  O   UNL     1       1.788 -12.983   6.144  0.00  0.00    -0.296 OA
ATOM     36  C   UNL     1       0.899 -12.765   3.974  0.00  0.00    +0.087 C 
ENDBRANCH  29  34
ENDBRANCH  22  23
ENDBRANCH  21  22
ENDBRANCH   4  21
TORSDOF 9
