REMARK  Name = ZINC19572443
REMARK  8 active torsions:
REMARK  status: ('A' for Active; 'I' for Inactive)
REMARK    1  A    between atoms: C_1  and  S_2
REMARK    2  A    between atoms: S_2  and  N_5
REMARK    3  A    between atoms: C_13  and  C_15
REMARK    4  A    between atoms: C_15  and  C_17
REMARK    5  A    between atoms: C_15  and  O_32
REMARK    6  A    between atoms: C_17  and  N_18
REMARK    7  A    between atoms: C_21  and  C_24
REMARK    8  A    between atoms: C_21  and  O_31
REMARK                            x       y       z     vdW  Elec       q    Type
REMARK                         _______ _______ _______ _____ _____    ______ ____
ROOT
ATOM      1  C   UNL     1      -0.900   1.960   1.421  0.00  0.00    +0.128 C 
ENDROOT
BRANCH   1  10
ATOM      2  N   UNL     1      -0.818   7.630   1.282  0.00  0.00    -0.207 N 
ATOM      3  C   UNL     1       0.067   8.367   2.195  0.00  0.00    +0.131 C 
ATOM      4  C   UNL     1       1.437   7.676   2.180  0.00  0.00    +0.025 C 
ATOM      5  C   UNL     1       1.279   6.255   2.722  0.00  0.00    +0.038 C 
ATOM      6  C   UNL     1       0.166   5.537   2.006  0.00  0.00    -0.024 A 
ATOM      7  C   UNL     1      -0.827   6.231   1.331  0.00  0.00    +0.054 A 
ATOM      8  C   UNL     1      -1.846   5.538   0.688  0.00  0.00    +0.025 A 
ATOM      9  C   UNL     1      -1.869   4.158   0.718  0.00  0.00    +0.008 A 
ATOM     10  C   UNL     1      -0.876   3.466   1.389  0.00  0.00    -0.021 A 
ATOM     11  C   UNL     1       0.134   4.154   2.034  0.00  0.00    +0.011 A 
BRANCH   2  13
ATOM     12  C   UNL     1      -3.411   8.516   1.020  0.00  0.00    +0.218 C 
ATOM     13  S   UNL     1      -1.788   8.440   0.213  0.00  0.00    +0.043 S 
ATOM     14  O   UNL     1      -1.224   9.742   0.126  0.00  0.00    -0.155 OA
ATOM     15  O   UNL     1      -1.849   7.599  -0.931  0.00  0.00    -0.155 OA
ENDBRANCH   2  13
ENDBRANCH   1  10
BRANCH   1  16
ATOM     16  O   UNL     1      -2.254   1.506   1.474  0.00  0.00    -0.389 OA
ATOM     17  H   UNL     1      -2.472   0.428   1.503  0.00  0.00    +0.210 HD
ENDBRANCH   1  16
BRANCH   1  18
ATOM     18  C   UNL     1      -0.228   1.412   0.161  0.00  0.00    -0.042 C 
BRANCH  18  19
ATOM     19  N   UNL     1      -0.251  -0.056   0.192  0.00  0.00    +0.382 N 
ATOM     20  C   UNL     1       0.578  -0.573   1.289  0.00  0.00    -0.076 C 
ATOM     21  C   UNL     1       0.415  -2.091   1.382  0.00  0.00    +0.021 C 
ATOM     22  C   UNL     1       0.838  -2.727   0.055  0.00  0.00    +0.090 C 
ATOM     23  C   UNL     1      -0.007  -2.137  -1.078  0.00  0.00    +0.021 C 
ATOM     24  C   UNL     1       0.168  -0.617  -1.099  0.00  0.00    -0.076 C 
ATOM     25  H   UNL     1      -1.287  -0.376   0.376  0.00  0.00    -0.082 HD
BRANCH  22  26
ATOM     26  C   UNL     1       0.624  -4.217   0.119  0.00  0.00    +0.019 A 
ATOM     27  C   UNL     1       1.692  -5.078  -0.051  0.00  0.00    +0.009 A 
ATOM     28  C   UNL     1       1.496  -6.445   0.008  0.00  0.00    +0.001 A 
ATOM     29  C   UNL     1       0.231  -6.953   0.239  0.00  0.00    +0.003 A 
ATOM     30  C   UNL     1      -0.839  -6.095   0.410  0.00  0.00    +0.039 A 
ATOM     31  C   UNL     1      -0.642  -4.725   0.355  0.00  0.00    +0.129 A 
ATOM     32  F   UNL     1      -1.686  -3.885   0.528  0.00  0.00    -0.205 F 
ENDBRANCH  22  26
BRANCH  22  33
ATOM     33  O   UNL     1       2.220  -2.452  -0.188  0.00  0.00    -0.384 OA
ATOM     34  H   UNL     1       2.704  -2.831  -1.100  0.00  0.00    +0.211 HD
ENDBRANCH  22  33
ENDBRANCH  18  19
ENDBRANCH   1  18
TORSDOF 7
