REMARK  Name = ZINC13098408
REMARK  10 active torsions:
REMARK  status: ('A' for Active; 'I' for Inactive)
REMARK    1  A    between atoms: C_1  and  N_2
REMARK    2  A    between atoms: C_11  and  C_12
REMARK    3  A    between atoms: C_11  and  C_14
REMARK    4  A    between atoms: C_14  and  C_16
REMARK    5  A    between atoms: C_16  and  O_17
REMARK    6  A    between atoms: O_17  and  C_18
REMARK    7  A    between atoms: C_18  and  C_20
REMARK    8  A    between atoms: C_20  and  C_21
REMARK    9  A    between atoms: C_21  and  C_23
REMARK   10  A    between atoms: C_21  and  N_30
REMARK                            x       y       z     vdW  Elec       q    Type
REMARK                         _______ _______ _______ _____ _____    ______ ____
ROOT
ATOM      1  C   UNL     1      -2.082   3.401   2.463  0.00  0.00    +0.310 C 
ATOM      2  O   UNL     1      -2.513   3.377   1.334  0.00  0.00    -0.251 OA
ENDROOT
BRANCH   1   3
ATOM      3  O   UNL     1      -2.842   3.879   3.461  0.00  0.00    -0.456 OA
BRANCH   3   4
ATOM      4  C   UNL     1      -4.170   4.351   3.111  0.00  0.00    +0.312 C 
BRANCH   4   5
ATOM      5  C   UNL     1      -4.870   4.847   4.350  0.00  0.00    +0.213 C 
ATOM      6  O   UNL     1      -4.304   4.807   5.425  0.00  0.00    -0.288 OA
BRANCH   5  17
ATOM      7  C   UNL     1      -5.998   2.584   5.306  0.00  0.00    +0.136 C 
ATOM      8  N   UNL     1      -7.250   3.345   5.264  0.00  0.00    -0.296 N 
ATOM      9  C   UNL     1      -8.420   2.773   5.724  0.00  0.00    +0.048 A 
ATOM     10  C   UNL     1      -8.610   1.491   6.263  0.00  0.00    +0.024 A 
ATOM     11  C   UNL     1      -9.855   1.079   6.676  0.00  0.00    +0.002 A 
ATOM     12  C   UNL     1     -10.957   1.912   6.575  0.00  0.00    +0.001 A 
ATOM     13  C   UNL     1     -10.798   3.181   6.048  0.00  0.00    +0.017 A 
ATOM     14  C   UNL     1      -9.554   3.594   5.634  0.00  0.00    +0.035 A 
ATOM     15  S   UNL     1      -8.915   5.092   4.927  0.00  0.00    -0.071 S 
ATOM     16  C   UNL     1      -7.257   4.611   4.771  0.00  0.00    +0.094 C 
ATOM     17  C   UNL     1      -6.176   5.356   4.262  0.00  0.00    +0.126 C 
BRANCH  17  18
ATOM     18  C   UNL     1      -6.408   6.632   3.656  0.00  0.00    +0.105 C 
ATOM     19  N   UNL     1      -6.593   7.644   3.174  0.00  0.00    -0.191 NA
ENDBRANCH  17  18
ENDBRANCH   5  17
ENDBRANCH   4   5
ENDBRANCH   3   4
ENDBRANCH   1   3
BRANCH   1  20
ATOM     20  C   UNL     1      -0.693   2.893   2.751  0.00  0.00    +0.147 C 
BRANCH  20  21
ATOM     21  C   UNL     1      -0.048   2.409   1.451  0.00  0.00    +0.115 C 
BRANCH  21  22
ATOM     22  C   UNL     1       1.292   1.789   1.755  0.00  0.00    -0.027 A 
ATOM     23  C   UNL     1       2.234   1.653   0.753  0.00  0.00    +0.007 A 
ATOM     24  C   UNL     1       3.461   1.079   1.030  0.00  0.00    +0.020 A 
ATOM     25  C   UNL     1       3.746   0.642   2.311  0.00  0.00    +0.041 A 
ATOM     26  C   UNL     1       2.803   0.779   3.314  0.00  0.00    +0.020 A 
ATOM     27  C   UNL     1       1.576   1.353   3.036  0.00  0.00    +0.007 A 
ATOM     28 CL   UNL     1       5.287  -0.077   2.661  0.00  0.00    -0.084 Cl
ENDBRANCH  21  22
BRANCH  21  29
ATOM     29  N   UNL     1       0.134   3.544   0.543  0.00  0.00    -0.292 N 
ATOM     30  C   UNL     1       0.962   4.552   0.882  0.00  0.00    +0.298 C 
ATOM     31  O   UNL     1       1.627   4.478   1.897  0.00  0.00    -0.253 OA
ATOM     32  N   UNL     1       1.053   5.643   0.095  0.00  0.00    -0.313 N 
ATOM     33  H   UNL     1      -0.341   3.570  -0.302  0.00  0.00    +0.151 HD
ATOM     34  H   UNL     1       0.523   5.702  -0.715  0.00  0.00    +0.146 HD
ATOM     35  H   UNL     1       1.649   6.368   0.339  0.00  0.00    +0.146 HD
ENDBRANCH  21  29
ENDBRANCH  20  21
ENDBRANCH   1  20
TORSDOF 9
