REMARK  Name = ZINC57029435
REMARK  6 active torsions:
REMARK  status: ('A' for Active; 'I' for Inactive)
REMARK    1  A    between atoms: C_1  and  C_2
REMARK    2  A    between atoms: C_5  and  S_8
REMARK    3  A    between atoms: S_8  and  C_9
REMARK    4  A    between atoms: C_9  and  C_10
REMARK    5  A    between atoms: N_12  and  N_13
REMARK    6  A    between atoms: N_16  and  C_17
REMARK                            x       y       z     vdW  Elec       q    Type
REMARK                         _______ _______ _______ _____ _____    ______ ____
ROOT
ATOM      1  C   UNL     1       0.097  -6.482   1.870  0.00  0.00    +0.239 C 
ATOM      2  O   UNL     1       0.101  -7.180   0.879  0.00  0.00    -0.273 OA
ATOM      3  N   UNL     1       0.110  -7.048   3.093  0.00  0.00    -0.233 N 
ATOM      4  H   UNL     1       0.107  -6.489   3.886  0.00  0.00    +0.173 HD
ENDROOT
BRANCH   3   5
ATOM      5  N   UNL     1       0.129  -8.443   3.219  0.00  0.00    -0.218 N 
ATOM      6  C   UNL     1       0.142  -9.009   4.442  0.00  0.00    +0.320 C 
ATOM      7  O   UNL     1       0.159 -10.220   4.551  0.00  0.00    -0.251 OA
ATOM      8  N   UNL     1       0.138  -8.233   5.544  0.00  0.00    -0.266 N 
ATOM      9  H   UNL     1       0.132  -9.002   2.426  0.00  0.00    +0.174 HD
ATOM     10  H   UNL     1       0.125  -7.267   5.457  0.00  0.00    +0.157 HD
BRANCH   8  11
ATOM     11  C   UNL     1       0.152  -8.825   6.822  0.00  0.00    +0.072 A 
ATOM     12  C   UNL     1       0.144  -8.165   8.008  0.00  0.00    +0.128 A 
ATOM     13  N   UNL     1       0.163  -9.098   8.996  0.00  0.00    -0.283 N 
ATOM     14  H   UNL     1       0.162  -8.920   9.950  0.00  0.00    +0.188 HD
ATOM     15  N   UNL     1       0.183 -10.362   8.393  0.00  0.00    -0.180 NA
ATOM     16  C   UNL     1       0.171 -10.200   7.095  0.00  0.00    +0.157 A 
ENDBRANCH   8  11
ENDBRANCH   3   5
BRANCH   1  17
ATOM     17  C   UNL     1       0.077  -4.981   1.735  0.00  0.00    +0.171 C 
BRANCH  17  18
ATOM     18  S   UNL     1       0.062  -4.533  -0.023  0.00  0.00    -0.116 S 
BRANCH  18  23
ATOM     19  C   UNL     1      -0.018   1.503   0.010  0.00  0.00    +0.044 C 
ATOM     20  C   UNL     1       0.002  -0.004   0.002  0.00  0.00    -0.050 A 
ATOM     21  C   UNL     1       0.006  -0.687  -1.200  0.00  0.00    +0.004 A 
ATOM     22  C   UNL     1       0.024  -2.068  -1.212  0.00  0.00    +0.015 A 
ATOM     23  C   UNL     1       0.039  -2.771  -0.013  0.00  0.00    +0.008 A 
ATOM     24  C   UNL     1       0.036  -2.081   1.193  0.00  0.00    +0.015 A 
ATOM     25  C   UNL     1       0.023  -0.700   1.197  0.00  0.00    +0.004 A 
ENDBRANCH  18  23
ENDBRANCH  17  18
ENDBRANCH   1  17
TORSDOF 5
