REMARK  Name = ZINC45776201
REMARK  9 active torsions:
REMARK  status: ('A' for Active; 'I' for Inactive)
REMARK    1  A    between atoms: C_1  and  C_2
REMARK    2  A    between atoms: C_2  and  C_3
REMARK    3  A    between atoms: C_3  and  C_4
REMARK    4  A    between atoms: C_4  and  C_5
REMARK    5  A    between atoms: C_8  and  C_11
REMARK    6  A    between atoms: C_17  and  C_19
REMARK    7  A    between atoms: C_19  and  N_20
REMARK    8  A    between atoms: C_23  and  C_27
REMARK    9  A    between atoms: C_23  and  C_28
REMARK                            x       y       z     vdW  Elec       q    Type
REMARK                         _______ _______ _______ _____ _____    ______ ____
ROOT
ATOM      1  C   UNL     1       3.434  -3.885  -6.003  0.00  0.00    +0.080 A 
ATOM      2  C   UNL     1       4.783  -4.106  -5.987  0.00  0.00    +0.076 A 
ATOM      3  S   UNL     1       5.049  -4.650  -7.670  0.00  0.00    -0.060 S 
ATOM      4  C   UNL     1       3.351  -4.527  -8.215  0.00  0.00    +0.165 A 
ATOM      5  N   UNL     1       2.752  -4.107  -7.117  0.00  0.00    -0.225 NA
ATOM      6  N   UNL     1       2.806  -4.806  -9.462  0.00  0.00    -0.263 N 
ATOM      7  C   UNL     1       3.599  -5.237 -10.463  0.00  0.00    +0.237 C 
ATOM      8  O   UNL     1       4.788  -5.381 -10.276  0.00  0.00    -0.274 OA
ATOM      9  H   UNL     1       1.855  -4.691  -9.612  0.00  0.00    +0.157 HD
ENDROOT
BRANCH   1  13
ATOM     10  C   UNL     1       1.444  -2.513  -2.505  0.00  0.00    -0.047 A 
ATOM     11  C   UNL     1       0.723  -2.741  -3.663  0.00  0.00    +0.004 A 
ATOM     12  C   UNL     1       1.364  -3.186  -4.802  0.00  0.00    +0.010 A 
ATOM     13  C   UNL     1       2.740  -3.406  -4.783  0.00  0.00    +0.001 A 
ATOM     14  C   UNL     1       3.462  -3.174  -3.613  0.00  0.00    +0.010 A 
ATOM     15  C   UNL     1       2.811  -2.725  -2.482  0.00  0.00    +0.004 A 
BRANCH  10  16
ATOM     16  C   UNL     1       0.739  -2.027  -1.265  0.00  0.00    +0.035 C 
BRANCH  16  17
ATOM     17  C   UNL     1       0.718  -0.497  -1.257  0.00  0.00    +0.004 C 
BRANCH  17  19
ATOM     18  C   UNL     1      -0.019   1.526   0.010  0.00  0.00    +0.004 C 
ATOM     19  C   UNL     1       0.002  -0.004   0.002  0.00  0.00    -0.003 C 
ENDBRANCH  17  19
ENDBRANCH  16  17
ENDBRANCH  10  16
ENDBRANCH   1  13
BRANCH   7  20
ATOM     20  C   UNL     1       3.007  -5.539 -11.816  0.00  0.00    +0.214 C 
BRANCH  20  21
ATOM     21  N   UNL     1       4.067  -5.987 -12.723  0.00  0.00    -0.215 N 
ATOM     22  C   UNL     1       4.795  -5.163 -13.502  0.00  0.00    +0.251 C 
ATOM     23  O   UNL     1       4.701  -3.957 -13.580  0.00  0.00    -0.272 OA
ATOM     24  C   UNL     1       5.758  -6.057 -14.258  0.00  0.00    +0.135 C 
ATOM     25  N   UNL     1       5.429  -7.409 -13.772  0.00  0.00    -0.281 N 
ATOM     26  C   UNL     1       4.435  -7.264 -12.877  0.00  0.00    +0.310 C 
ATOM     27  O   UNL     1       3.925  -8.191 -12.278  0.00  0.00    -0.252 OA
ATOM     28  C   UNL     1       5.517  -5.954 -15.765  0.00  0.00    +0.047 C 
ATOM     29  H   UNL     1       5.849  -8.240 -14.042  0.00  0.00    +0.152 HD
BRANCH  24  30
ATOM     30  C   UNL     1       7.184  -5.706 -13.921  0.00  0.00    -0.015 A 
ATOM     31  C   UNL     1       7.512  -4.408 -13.574  0.00  0.00    +0.009 A 
ATOM     32  C   UNL     1       8.820  -4.085 -13.265  0.00  0.00    +0.039 A 
ATOM     33  C   UNL     1       9.801  -5.060 -13.304  0.00  0.00    +0.123 A 
ATOM     34  C   UNL     1       9.472  -6.359 -13.652  0.00  0.00    +0.039 A 
ATOM     35  C   UNL     1       8.162  -6.682 -13.955  0.00  0.00    +0.009 A 
ATOM     36  F   UNL     1      11.080  -4.745 -13.002  0.00  0.00    -0.205 F 
ENDBRANCH  24  30
ENDBRANCH  20  21
ENDBRANCH   7  20
TORSDOF 7
