REMARK  Name = ZINC20883077
REMARK  12 active torsions:
REMARK  status: ('A' for Active; 'I' for Inactive)
REMARK    1  A    between atoms: C_1  and  C_2
REMARK    2  A    between atoms: C_2  and  C_3
REMARK    3  A    between atoms: C_3  and  O_4
REMARK    4  A    between atoms: O_4  and  C_5
REMARK    5  A    between atoms: C_6  and  C_13
REMARK    6  A    between atoms: C_10  and  O_11
REMARK    7  A    between atoms: O_11  and  C_12
REMARK    8  A    between atoms: C_18  and  C_23
REMARK    9  A    between atoms: C_26  and  C_29
REMARK   10  A    between atoms: C_29  and  C_30
REMARK   11  A    between atoms: C_29  and  C_31
REMARK   12  A    between atoms: C_29  and  C_32
REMARK                            x       y       z     vdW  Elec       q    Type
REMARK                         _______ _______ _______ _____ _____    ______ ____
ROOT
ATOM      1  C   UNL     1      -2.514   0.976   0.019  0.00  0.00    +0.140 C 
ATOM      2  C   UNL     1      -2.983   0.830   1.447  0.00  0.00    +0.037 C 
ATOM      3  C   UNL     1      -2.996  -0.309   2.159  0.00  0.00    +0.017 C 
ATOM      4  C   UNL     1      -3.457  -0.304   3.608  0.00  0.00    +0.059 C 
ATOM      5  C   UNL     1      -4.553   0.743   3.800  0.00  0.00    +0.032 C 
ATOM      6  C   UNL     1      -3.964   2.109   3.428  0.00  0.00    +0.088 C 
ATOM      7  C   UNL     1      -3.439   2.038   2.025  0.00  0.00    +0.163 C 
ATOM      8  O   UNL     1      -3.404   3.055   1.361  0.00  0.00    -0.292 OA
ATOM      9  N   UNL     1      -2.604  -1.522   1.694  0.00  0.00    -0.316 N 
ATOM     10  C   UNL     1      -1.430  -1.758   0.988  0.00  0.00    +0.052 A 
ATOM     11  C   UNL     1      -0.412  -2.552   1.488  0.00  0.00    +0.025 A 
ATOM     12  C   UNL     1       0.712  -2.783   0.713  0.00  0.00    +0.002 A 
ATOM     13  C   UNL     1       0.816  -2.226  -0.549  0.00  0.00    +0.002 A 
ATOM     14  C   UNL     1      -0.193  -1.418  -1.043  0.00  0.00    +0.025 A 
ATOM     15  C   UNL     1      -1.310  -1.168  -0.262  0.00  0.00    +0.049 A 
ATOM     16  N   UNL     1      -2.300  -0.278  -0.673  0.00  0.00    -0.331 N 
ATOM     17  H   UNL     1      -3.233  -2.407   1.868  0.00  0.00    +0.152 HD
ATOM     18  H   UNL     1      -2.925  -0.541  -1.538  0.00  0.00    +0.147 HD
ENDROOT
BRANCH   1  20
ATOM     19  C   UNL     1      -0.793   2.383  -1.138  0.00  0.00    +0.167 A 
ATOM     20  C   UNL     1      -1.220   1.749   0.017  0.00  0.00    +0.023 A 
ATOM     21  C   UNL     1      -0.462   1.830   1.170  0.00  0.00    +0.009 A 
ATOM     22  C   UNL     1       0.729   2.533   1.171  0.00  0.00    +0.004 A 
ATOM     23  C   UNL     1       1.163   3.163   0.020  0.00  0.00    +0.049 A 
ATOM     24  C   UNL     1       0.405   3.091  -1.138  0.00  0.00    +0.162 A 
BRANCH  24  25
ATOM     25  O   UNL     1       0.831   3.711  -2.271  0.00  0.00    -0.491 OA
ATOM     26  C   UNL     1       2.070   4.419  -2.197  0.00  0.00    +0.277 C 
ENDBRANCH  24  25
BRANCH  19  27
ATOM     27  O   UNL     1      -1.541   2.310  -2.272  0.00  0.00    -0.488 OA
BRANCH  27  28
ATOM     28  C   UNL     1      -1.274   1.220  -3.156  0.00  0.00    +0.229 C 
BRANCH  28  30
ATOM     29  C   UNL     1      -1.921   0.137  -5.313  0.00  0.00    +0.007 C 
ATOM     30  C   UNL     1      -2.206   1.304  -4.366  0.00  0.00    +0.038 C 
ENDBRANCH  28  30
ENDBRANCH  27  28
ENDBRANCH  19  27
ENDBRANCH   1  20
BRANCH   5  31
ATOM     31  C   UNL     1      -5.001   0.755   5.239  0.00  0.00    -0.043 A 
ATOM     32  C   UNL     1      -4.093   1.034   6.243  0.00  0.00    +0.004 A 
ATOM     33  C   UNL     1      -4.504   1.049   7.563  0.00  0.00    +0.004 A 
ATOM     34  C   UNL     1      -5.822   0.777   7.879  0.00  0.00    -0.042 A 
ATOM     35  C   UNL     1      -6.729   0.493   6.875  0.00  0.00    +0.004 A 
ATOM     36  C   UNL     1      -6.318   0.482   5.555  0.00  0.00    +0.004 A 
BRANCH  34  37
ATOM     37  C   UNL     1      -6.270   0.790   9.318  0.00  0.00    -0.013 C 
ATOM     38  C   UNL     1      -6.818  -0.588   9.694  0.00  0.00    +0.015 C 
ATOM     39  C   UNL     1      -5.081   1.129  10.219  0.00  0.00    +0.015 C 
ATOM     40  C   UNL     1      -7.366   1.842   9.501  0.00  0.00    +0.015 C 
ENDBRANCH  34  37
ENDBRANCH   5  31
TORSDOF 7
