REMARK  Name = ZINC63234617
REMARK  10 active torsions:
REMARK  status: ('A' for Active; 'I' for Inactive)
REMARK    1  A    between atoms: C_1  and  C_2
REMARK    2  A    between atoms: C_2  and  O_3
REMARK    3  A    between atoms: O_3  and  C_4
REMARK    4  A    between atoms: C_7  and  O_10
REMARK    5  A    between atoms: O_10  and  C_11
REMARK    6  A    between atoms: C_11  and  C_12
REMARK    7  A    between atoms: C_15  and  C_18
REMARK    8  A    between atoms: N_20  and  N_21
REMARK    9  A    between atoms: C_22  and  C_24
REMARK   10  A    between atoms: C_24  and  C_25
REMARK                            x       y       z     vdW  Elec       q    Type
REMARK                         _______ _______ _______ _____ _____    ______ ____
ROOT
ATOM      1  C   UNL     1      -3.247 -12.197  -0.039  0.00  0.00    +0.260 C 
ATOM      2  O   UNL     1      -3.240 -12.799  -1.095  0.00  0.00    -0.269 OA
ATOM      3  N   UNL     1      -3.237 -12.878   1.124  0.00  0.00    -0.230 N 
ATOM      4  H   UNL     1      -3.242 -12.397   1.967  0.00  0.00    +0.173 HD
ENDROOT
BRANCH   1   8
ATOM      5  C   UNL     1      -3.304  -7.950  -0.015  0.00  0.00    -0.010 A 
ATOM      6  C   UNL     1      -3.296  -8.632  -1.219  0.00  0.00    +0.008 A 
ATOM      7  C   UNL     1      -3.277 -10.011  -1.234  0.00  0.00    +0.013 A 
ATOM      8  C   UNL     1      -3.266 -10.719  -0.031  0.00  0.00    +0.038 A 
ATOM      9  C   UNL     1      -3.275 -10.025   1.180  0.00  0.00    +0.013 A 
ATOM     10  C   UNL     1      -3.288  -8.645   1.181  0.00  0.00    +0.008 A 
BRANCH   5  11
ATOM     11  C   UNL     1      -3.324  -6.443  -0.007  0.00  0.00    +0.264 C 
BRANCH  11  12
ATOM     12  O   UNL     1      -1.984  -5.949  -0.011  0.00  0.00    -0.487 OA
BRANCH  12  16
ATOM     13  C   UNL     1      -1.498  -1.849   0.006  0.00  0.00    +0.121 A 
ATOM     14  C   UNL     1      -0.387  -2.679  -0.003  0.00  0.00    +0.049 A 
ATOM     15  C   UNL     1      -0.549  -4.051  -0.009  0.00  0.00    +0.049 A 
ATOM     16  C   UNL     1      -1.824  -4.598  -0.005  0.00  0.00    +0.121 A 
ATOM     17  C   UNL     1      -2.935  -3.768   0.005  0.00  0.00    +0.049 A 
ATOM     18  C   UNL     1      -2.773  -2.397   0.016  0.00  0.00    +0.049 A 
BRANCH  13  19
ATOM     19  O   UNL     1      -1.339  -0.499   0.012  0.00  0.00    -0.492 OA
BRANCH  19  21
ATOM     20  C   UNL     1      -0.019   1.526   0.010  0.00  0.00    +0.048 C 
ATOM     21  C   UNL     1       0.002  -0.004   0.002  0.00  0.00    +0.225 C 
ENDBRANCH  19  21
ENDBRANCH  13  19
ENDBRANCH  12  16
ENDBRANCH  11  12
ENDBRANCH   5  11
ENDBRANCH   1   8
BRANCH   3  22
ATOM     22  N   UNL     1      -3.218 -14.278   1.116  0.00  0.00    -0.234 N 
ATOM     23  C   UNL     1      -3.208 -14.959   2.280  0.00  0.00    +0.233 C 
ATOM     24  O   UNL     1      -3.215 -14.358   3.333  0.00  0.00    -0.274 OA
ATOM     25  H   UNL     1      -3.213 -14.759   0.274  0.00  0.00    +0.173 HD
BRANCH  23  26
ATOM     26  C   UNL     1      -3.188 -16.466   2.271  0.00  0.00    +0.130 C 
BRANCH  26  27
ATOM     27  C   UNL     1      -3.180 -16.976   3.689  0.00  0.00    -0.033 C 
ATOM     28  C   UNL     1      -4.251 -17.359   4.421  0.00  0.00    -0.001 A 
ATOM     29  C   UNL     1      -5.688 -17.413   4.129  0.00  0.00    +0.010 A 
ATOM     30  C   UNL     1      -6.537 -17.852   5.086  0.00  0.00    +0.001 A 
ATOM     31  C   UNL     1      -6.079 -18.256   6.348  0.00  0.00    +0.002 A 
ATOM     32  C   UNL     1      -4.774 -18.235   6.691  0.00  0.00    +0.026 A 
ATOM     33  C   UNL     1      -3.793 -17.792   5.761  0.00  0.00    +0.043 A 
ATOM     34  N   UNL     1      -2.490 -17.680   5.854  0.00  0.00    -0.380 N 
ATOM     35  C   UNL     1      -1.973 -17.169   4.579  0.00  0.00    +0.145 C 
ATOM     36  H   UNL     1      -1.957 -17.902   6.633  0.00  0.00    +0.160 HD
ENDBRANCH  26  27
ENDBRANCH  23  26
ENDBRANCH   3  22
TORSDOF 9
