REMARK  Name = ZINC20036539
REMARK  4 active torsions:
REMARK  status: ('A' for Active; 'I' for Inactive)
REMARK    1  A    between atoms: C_4  and  C_7
REMARK    2  A    between atoms: C_7  and  N_8
REMARK    3  A    between atoms: C_19  and  C_22
REMARK    4  A    between atoms: C_25  and  O_28
REMARK                            x       y       z     vdW  Elec       q    Type
REMARK                         _______ _______ _______ _____ _____    ______ ____
ROOT
ATOM      1  N   UNL     1      -0.708   6.816  -6.890  0.00  0.00    +0.386 N 
ATOM      2  C   UNL     1       0.518   6.083  -6.541  0.00  0.00    -0.073 C 
ATOM      3  C   UNL     1       0.996   6.493  -5.146  0.00  0.00    +0.018 C 
ATOM      4  C   UNL     1      -0.176   6.355  -4.181  0.00  0.00    -0.027 A 
ATOM      5  C   UNL     1      -1.440   6.283  -4.659  0.00  0.00    -0.021 A 
ATOM      6  S   UNL     1      -2.465   6.131  -3.221  0.00  0.00    -0.080 S 
ATOM      7  C   UNL     1      -1.246   6.166  -2.019  0.00  0.00    +0.080 A 
ATOM      8  C   UNL     1      -0.045   6.290  -2.736  0.00  0.00    +0.068 A 
ATOM      9  C   UNL     1       1.215   6.336  -1.958  0.00  0.00    +0.248 C 
ATOM     10  O   UNL     1       2.284   6.553  -2.497  0.00  0.00    -0.270 OA
ATOM     11  N   UNL     1       1.128   6.126  -0.628  0.00  0.00    -0.289 N 
ATOM     12  C   UNL     1      -0.074   5.628   0.032  0.00  0.00    +0.190 C 
ATOM     13  N   UNL     1      -1.294   6.098  -0.651  0.00  0.00    -0.316 N 
ATOM     14  C   UNL     1      -1.851   6.326  -6.097  0.00  0.00    -0.035 C 
ATOM     15  H   UNL     1       2.028   6.351  -0.037  0.00  0.00    +0.151 HD
ATOM     16  H   UNL     1      -2.182   6.373  -0.063  0.00  0.00    +0.149 HD
ATOM     17  H   UNL     1      -0.549   7.877  -6.650  0.00  0.00    -0.081 HD
ENDROOT
BRANCH  12  18
ATOM     18  C   UNL     1      -0.054   4.121   0.024  0.00  0.00    -0.009 A 
ATOM     19  C   UNL     1       1.153   3.447   0.009  0.00  0.00    +0.010 A 
ATOM     20  C   UNL     1       1.175   2.066   0.002  0.00  0.00    +0.046 A 
ATOM     21  C   UNL     1      -0.016   1.355   0.009  0.00  0.00    +0.117 A 
ATOM     22  C   UNL     1      -1.226   2.033   0.019  0.00  0.00    +0.046 A 
ATOM     23  C   UNL     1      -1.242   3.414   0.031  0.00  0.00    +0.010 A 
BRANCH  21  24
ATOM     24  O   UNL     1       0.002  -0.004   0.002  0.00  0.00    -0.507 OA
ATOM     25  H   UNL     1      -0.943  -0.567   0.008  0.00  0.00    +0.292 HD
ENDBRANCH  21  24
ENDBRANCH  12  18
BRANCH   1  26
ATOM     26  C   UNL     1      -0.986   6.721  -8.329  0.00  0.00    -0.043 C 
BRANCH  26  30
ATOM     27  C   UNL     1      -4.132   9.423  -9.353  0.00  0.00    +0.000 A 
ATOM     28  C   UNL     1      -2.816   9.845  -9.399  0.00  0.00    +0.000 A 
ATOM     29  C   UNL     1      -1.798   8.970  -9.068  0.00  0.00    +0.002 A 
ATOM     30  C   UNL     1      -2.096   7.674  -8.690  0.00  0.00    -0.064 A 
ATOM     31  C   UNL     1      -3.411   7.251  -8.649  0.00  0.00    +0.002 A 
ATOM     32  C   UNL     1      -4.429   8.127  -8.975  0.00  0.00    +0.000 A 
ENDBRANCH  26  30
ENDBRANCH   1  26
TORSDOF 4
