REMARK  Name = ZINC20575533
REMARK  10 active torsions:
REMARK  status: ('A' for Active; 'I' for Inactive)
REMARK    1  A    between atoms: C_1  and  C_2
REMARK    2  A    between atoms: C_7  and  N_12
REMARK    3  A    between atoms: C_9  and  C_11
REMARK    4  A    between atoms: N_12  and  C_13
REMARK    5  A    between atoms: N_12  and  C_33
REMARK    6  A    between atoms: C_13  and  C_14
REMARK    7  A    between atoms: C_14  and  C_15
REMARK    8  A    between atoms: C_15  and  N_16
REMARK    9  A    between atoms: C_17  and  C_19
REMARK   10  A    between atoms: C_33  and  C_34
REMARK                            x       y       z     vdW  Elec       q    Type
REMARK                         _______ _______ _______ _____ _____    ______ ____
ROOT
ATOM      1  C   UNL     1      -0.291   1.768  -0.095  0.00  0.00    +0.103 C 
ENDROOT
BRANCH   1   2
ATOM      2  N   UNL     1      -1.033   2.556  -1.083  0.00  0.00    -0.310 N 
ATOM      3  C   UNL     1      -0.724   2.458  -2.391  0.00  0.00    +0.260 C 
ATOM      4  O   UNL     1       0.170   1.716  -2.752  0.00  0.00    -0.269 OA
ATOM      5  H   UNL     1      -1.841   3.227  -0.757  0.00  0.00    +0.149 HD
BRANCH   3   6
ATOM      6  C   UNL     1      -1.468   3.249  -3.383  0.00  0.00    +0.103 A 
ATOM      7  C   UNL     1      -1.253   3.238  -4.727  0.00  0.00    +0.041 A 
ATOM      8  C   UNL     1      -2.176   4.132  -5.316  0.00  0.00    +0.003 A 
ATOM      9  C   UNL     1      -2.415   4.521  -6.652  0.00  0.00    +0.011 A 
ATOM     10  C   UNL     1      -3.384   5.417  -6.949  0.00  0.00    +0.011 A 
ATOM     11  C   UNL     1      -4.174   5.979  -5.925  0.00  0.00    +0.002 A 
ATOM     12  C   UNL     1      -5.184   6.911  -6.220  0.00  0.00    +0.011 A 
ATOM     13  C   UNL     1      -5.918   7.421  -5.184  0.00  0.00    +0.020 A 
ATOM     14  C   UNL     1      -5.652   7.013  -3.881  0.00  0.00    +0.111 A 
ATOM     15  N   UNL     1      -4.708   6.143  -3.611  0.00  0.00    -0.253 NA
ATOM     16  C   UNL     1      -3.959   5.609  -4.577  0.00  0.00    +0.095 A 
ATOM     17  C   UNL     1      -2.943   4.671  -4.275  0.00  0.00    +0.073 A 
ATOM     18  N   UNL     1      -2.501   4.118  -3.103  0.00  0.00    -0.349 N 
ATOM     19  H   UNL     1      -2.832   4.262  -2.064  0.00  0.00    +0.166 HD
ENDBRANCH   3   6
ENDBRANCH   1   2
BRANCH   1  20
ATOM     20  C   UNL     1      -0.836   2.062   1.304  0.00  0.00    +0.000 C 
BRANCH  20  21
ATOM     21  C   UNL     1      -0.062   1.240   2.336  0.00  0.00    -0.076 C 
BRANCH  21  22
ATOM     22  N   UNL     1      -0.584   1.522   3.679  0.00  0.00    +0.386 N 
ATOM     23  H   UNL     1      -1.656   1.275   3.684  0.00  0.00    -0.081 HD
BRANCH  22  29
ATOM     24  C   UNL     1       2.393  -0.860   5.602  0.00  0.00    +0.008 C 
ATOM     25  C   UNL     1       1.113  -1.548   5.125  0.00  0.00    -0.013 C 
ATOM     26  C   UNL     1       0.171  -1.753   6.314  0.00  0.00    +0.003 C 
ATOM     27  C   UNL     1      -0.178  -0.395   6.928  0.00  0.00    -0.001 C 
ATOM     28  C   UNL     1      -0.865   0.478   5.877  0.00  0.00    -0.015 C 
ATOM     29  C   UNL     1       0.076   0.683   4.689  0.00  0.00    -0.065 C 
ATOM     30  C   UNL     1       0.425  -0.674   4.074  0.00  0.00    -0.025 C 
ATOM     31  C   UNL     1      -0.856  -1.362   3.598  0.00  0.00    +0.006 C 
ENDBRANCH  22  29
BRANCH  22  32
ATOM     32  C   UNL     1      -0.448   2.947   4.009  0.00  0.00    -0.003 C 
BRANCH  32  33
ATOM     33  C   UNL     1      -1.344   3.282   5.173  0.00  0.00    +0.089 A 
ATOM     34  C   UNL     1      -0.958   3.388   6.457  0.00  0.00    +0.042 A 
ATOM     35  C   UNL     1      -2.112   3.713   7.206  0.00  0.00    +0.041 A 
ATOM     36  C   UNL     1      -3.134   3.787   6.335  0.00  0.00    +0.195 A 
ATOM     37  O   UNL     1      -2.662   3.531   5.104  0.00  0.00    -0.470 OA
ENDBRANCH  32  33
ENDBRANCH  22  32
ENDBRANCH  21  22
ENDBRANCH  20  21
ENDBRANCH   1  20
TORSDOF 8
