REMARK  Name = ZINC39699795
REMARK  7 active torsions:
REMARK  status: ('A' for Active; 'I' for Inactive)
REMARK    1  A    between atoms: C_1  and  C_2
REMARK    2  A    between atoms: C_4  and  C_8
REMARK    3  A    between atoms: N_10  and  N_11
REMARK    4  A    between atoms: C_12  and  C_13
REMARK    5  A    between atoms: C_18  and  O_19
REMARK    6  A    between atoms: O_19  and  C_20
REMARK    7  A    between atoms: C_20  and  C_22
REMARK                            x       y       z     vdW  Elec       q    Type
REMARK                         _______ _______ _______ _____ _____    ______ ____
ROOT
ATOM      1  C   UNL     1      -4.193  -5.423   3.725  0.00  0.00    +0.039 A 
ATOM      2  C   UNL     1      -5.469  -5.987   3.799  0.00  0.00    +0.028 A 
ATOM      3  C   UNL     1      -5.853  -6.672   4.934  0.00  0.00    +0.020 A 
ATOM      4  C   UNL     1      -4.979  -6.804   6.000  0.00  0.00    +0.034 A 
ATOM      5  C   UNL     1      -3.713  -6.250   5.938  0.00  0.00    +0.062 A 
ATOM      6  C   UNL     1      -3.310  -5.563   4.803  0.00  0.00    +0.155 A 
ATOM      7 BR   UNL     1      -2.529  -6.437   7.400  0.00  0.00    -0.046 Br
ATOM      8 BR   UNL     1      -7.581  -7.434   5.034  0.00  0.00    -0.050 Br
ENDROOT
BRANCH   1  10
ATOM      9  N   UNL     1      -2.588  -4.173   2.448  0.00  0.00    -0.188 NA
ATOM     10  C   UNL     1      -3.776  -4.691   2.516  0.00  0.00    +0.142 C 
BRANCH   9  13
ATOM     11  C   UNL     1      -0.958  -2.939   1.229  0.00  0.00    +0.262 C 
ATOM     12  O   UNL     1      -0.190  -3.058   2.161  0.00  0.00    -0.271 OA
ATOM     13  N   UNL     1      -2.191  -3.477   1.299  0.00  0.00    -0.205 N 
ATOM     14  H   UNL     1      -2.805  -3.381   0.554  0.00  0.00    +0.177 HD
BRANCH  11  18
ATOM     15  C   UNL     1      -0.018   1.503   0.010  0.00  0.00    +0.067 C 
ATOM     16  C   UNL     1       0.002  -0.004   0.002  0.00  0.00    +0.059 C 
ATOM     17  C   UNL     1      -1.086  -0.777   0.003  0.00  0.00    +0.035 C 
ATOM     18  C   UNL     1      -0.531  -2.190  -0.007  0.00  0.00    +0.240 C 
ATOM     19  N   UNL     1       0.926  -1.973  -0.013  0.00  0.00    -0.170 NA
ATOM     20  N   UNL     1       1.125  -0.756  -0.013  0.00  0.00    -0.159 NA
ENDBRANCH  11  18
ENDBRANCH   9  13
ENDBRANCH   1  10
BRANCH   6  21
ATOM     21  O   UNL     1      -2.064  -5.024   4.739  0.00  0.00    -0.421 OA
BRANCH  21  22
ATOM     22  C   UNL     1      -1.899  -3.762   5.180  0.00  0.00    +0.344 C 
ATOM     23  O   UNL     1      -2.847  -3.141   5.617  0.00  0.00    -0.245 OA
BRANCH  22  24
ATOM     24  C   UNL     1      -0.563  -3.132   5.131  0.00  0.00    +0.059 A 
ATOM     25  C   UNL     1       0.528  -3.840   4.623  0.00  0.00    +0.015 A 
ATOM     26  C   UNL     1       1.772  -3.246   4.580  0.00  0.00    +0.001 A 
ATOM     27  C   UNL     1       1.940  -1.951   5.039  0.00  0.00    +0.000 A 
ATOM     28  C   UNL     1       0.863  -1.244   5.543  0.00  0.00    +0.001 A 
ATOM     29  C   UNL     1      -0.388  -1.824   5.586  0.00  0.00    +0.015 A 
ENDBRANCH  22  24
ENDBRANCH  21  22
ENDBRANCH   6  21
TORSDOF 6
