REMARK  Name = ZINC21230162
REMARK  13 active torsions:
REMARK  status: ('A' for Active; 'I' for Inactive)
REMARK    1  A    between atoms: C_1  and  C_2
REMARK    2  A    between atoms: C_2  and  C_3
REMARK    3  A    between atoms: C_2  and  C_4
REMARK    4  A    between atoms: C_4  and  O_5
REMARK    5  A    between atoms: O_5  and  C_6
REMARK    6  A    between atoms: C_9  and  C_12
REMARK    7  A    between atoms: C_17  and  C_27
REMARK    8  A    between atoms: C_29  and  O_37
REMARK    9  A    between atoms: C_30  and  O_35
REMARK   10  A    between atoms: C_32  and  O_33
REMARK   11  A    between atoms: O_33  and  C_34
REMARK   12  A    between atoms: O_35  and  C_36
REMARK   13  A    between atoms: O_37  and  C_38
REMARK                            x       y       z     vdW  Elec       q    Type
REMARK                         _______ _______ _______ _____ _____    ______ ____
ROOT
ATOM      1  C   UNL     1      -6.536  -4.485   2.093  0.00  0.00    +0.032 C 
ATOM      2  C   UNL     1      -6.429  -3.581   3.320  0.00  0.00    +0.059 C 
ATOM      3  C   UNL     1      -6.497  -2.123   2.897  0.00  0.00    +0.017 C 
ATOM      4  C   UNL     1      -5.997  -1.734   1.713  0.00  0.00    +0.037 C 
ATOM      5  C   UNL     1      -5.975  -0.320   1.181  0.00  0.00    +0.140 C 
ATOM      6  N   UNL     1      -6.785   0.613   1.936  0.00  0.00    -0.331 N 
ATOM      7  C   UNL     1      -6.482   0.929   3.256  0.00  0.00    +0.049 A 
ATOM      8  C   UNL     1      -6.038   2.192   3.616  0.00  0.00    +0.025 A 
ATOM      9  C   UNL     1      -5.646   2.429   4.922  0.00  0.00    +0.002 A 
ATOM     10  C   UNL     1      -5.697   1.416   5.862  0.00  0.00    +0.002 A 
ATOM     11  C   UNL     1      -6.160   0.159   5.511  0.00  0.00    +0.025 A 
ATOM     12  C   UNL     1      -6.568  -0.074   4.210  0.00  0.00    +0.052 A 
ATOM     13  N   UNL     1      -7.085  -1.298   3.801  0.00  0.00    -0.316 N 
ATOM     14  C   UNL     1      -5.426  -2.684   0.833  0.00  0.00    +0.163 C 
ATOM     15  O   UNL     1      -4.966  -2.301  -0.225  0.00  0.00    -0.292 OA
ATOM     16  C   UNL     1      -5.367  -4.146   1.160  0.00  0.00    +0.088 C 
ATOM     17  H   UNL     1      -7.659   1.087   1.466  0.00  0.00    +0.147 HD
ATOM     18  H   UNL     1      -8.039  -1.584   4.267  0.00  0.00    +0.152 HD
ENDROOT
BRANCH   1  22
ATOM     19  C   UNL     1      -6.295  -8.581   3.286  0.00  0.00    +0.121 A 
ATOM     20  C   UNL     1      -7.409  -8.122   2.598  0.00  0.00    +0.046 A 
ATOM     21  C   UNL     1      -7.484  -6.798   2.214  0.00  0.00    +0.007 A 
ATOM     22  C   UNL     1      -6.451  -5.929   2.514  0.00  0.00    -0.043 A 
ATOM     23  C   UNL     1      -5.337  -6.386   3.194  0.00  0.00    +0.007 A 
ATOM     24  C   UNL     1      -5.259  -7.708   3.586  0.00  0.00    +0.046 A 
BRANCH  19  25
ATOM     25  O   UNL     1      -6.219  -9.884   3.666  0.00  0.00    -0.492 OA
BRANCH  25  26
ATOM     26  C   UNL     1      -5.042 -10.286   4.370  0.00  0.00    +0.232 C 
BRANCH  26  28
ATOM     27  C   UNL     1      -5.135 -12.595   3.421  0.00  0.00    +0.010 C 
ATOM     28  C   UNL     1      -5.136 -11.775   4.712  0.00  0.00    +0.020 C 
ATOM     29  C   UNL     1      -3.938 -12.177   5.573  0.00  0.00    +0.010 C 
ENDBRANCH  26  28
ENDBRANCH  25  26
ENDBRANCH  19  25
ENDBRANCH   1  22
BRANCH   5  30
ATOM     30  C   UNL     1      -4.550   0.171   1.186  0.00  0.00    +0.023 A 
ATOM     31  C   UNL     1      -3.597  -0.485   1.944  0.00  0.00    +0.058 A 
ATOM     32  C   UNL     1      -2.285  -0.039   1.945  0.00  0.00    +0.162 A 
ATOM     33  C   UNL     1      -1.930   1.077   1.193  0.00  0.00    +0.165 A 
ATOM     34  C   UNL     1      -2.886   1.732   0.435  0.00  0.00    +0.095 A 
ATOM     35  C   UNL     1      -4.197   1.279   0.432  0.00  0.00    +0.129 A 
BRANCH  35  36
ATOM     36  O   UNL     1      -5.136   1.922  -0.312  0.00  0.00    -0.495 OA
ATOM     37  C   UNL     1      -4.702   3.057  -1.065  0.00  0.00    +0.277 C 
ENDBRANCH  35  36
BRANCH  33  38
ATOM     38  O   UNL     1      -0.644   1.519   1.198  0.00  0.00    -0.491 OA
ATOM     39  C   UNL     1      -0.349   2.666   0.398  0.00  0.00    +0.277 C 
ENDBRANCH  33  38
BRANCH  32  40
ATOM     40  O   UNL     1      -1.347  -0.688   2.686  0.00  0.00    -0.491 OA
ATOM     41  C   UNL     1      -1.757  -1.886   3.349  0.00  0.00    +0.277 C 
ENDBRANCH  32  40
ENDBRANCH   5  30
TORSDOF 8
