REMARK  Name = ZINC35231477
REMARK  9 active torsions:
REMARK  status: ('A' for Active; 'I' for Inactive)
REMARK    1  A    between atoms: C_1  and  C_2
REMARK    2  A    between atoms: C_2  and  C_3
REMARK    3  A    between atoms: C_8  and  N_9
REMARK    4  A    between atoms: N_12  and  C_13
REMARK    5  A    between atoms: N_12  and  C_35
REMARK    6  A    between atoms: C_13  and  C_14
REMARK    7  A    between atoms: C_28  and  C_30
REMARK    8  A    between atoms: C_35  and  C_36
REMARK    9  A    between atoms: C_35  and  C_37
REMARK                            x       y       z     vdW  Elec       q    Type
REMARK                         _______ _______ _______ _____ _____    ______ ____
ROOT
ATOM      1  C   UNL     1      -4.087   0.771   5.686  0.00  0.00    +0.238 C 
ATOM      2  O   UNL     1      -3.652   1.774   5.161  0.00  0.00    -0.273 OA
ATOM      3  N   UNL     1      -4.617   0.834   6.924  0.00  0.00    -0.252 N 
ATOM      4  C   UNL     1      -4.757   2.074   7.563  0.00  0.00    +0.061 A 
ATOM      5  C   UNL     1      -3.883   3.113   7.284  0.00  0.00    +0.025 A 
ATOM      6  C   UNL     1      -4.039   4.333   7.913  0.00  0.00    +0.002 A 
ATOM      7  C   UNL     1      -5.065   4.527   8.821  0.00  0.00    +0.002 A 
ATOM      8  C   UNL     1      -5.940   3.495   9.110  0.00  0.00    +0.028 A 
ATOM      9  C   UNL     1      -5.787   2.272   8.489  0.00  0.00    +0.068 A 
ATOM     10  N   UNL     1      -6.632   1.188   8.768  0.00  0.00    -0.316 N 
ATOM     11  C   UNL     1      -7.816   1.151   9.425  0.00  0.00    +0.092 A 
ATOM     12  C   UNL     1      -8.254  -0.128   9.433  0.00  0.00    +0.020 A 
ATOM     13  C   UNL     1      -7.295  -0.910   8.753  0.00  0.00    +0.025 A 
ATOM     14  C   UNL     1      -6.316  -0.089   8.359  0.00  0.00    +0.052 A 
ATOM     15  C   UNL     1      -5.052  -0.399   7.601  0.00  0.00    +0.194 C 
ENDROOT
BRANCH  15  16
ATOM     16  C   UNL     1      -3.985  -0.858   8.561  0.00  0.00    +0.131 A 
ATOM     17  C   UNL     1      -3.607  -2.132   8.766  0.00  0.00    +0.047 A 
ATOM     18  C   UNL     1      -2.585  -2.105   9.742  0.00  0.00    +0.041 A 
ATOM     19  C   UNL     1      -2.400  -0.815  10.076  0.00  0.00    +0.195 A 
ATOM     20  O   UNL     1      -3.246  -0.064   9.353  0.00  0.00    -0.466 OA
ENDBRANCH  15  16
BRANCH   1  21
ATOM     21  C   UNL     1      -4.036  -0.545   4.955  0.00  0.00    +0.205 C 
BRANCH  21  25
ATOM     22  N   UNL     1      -1.729  -0.102   2.129  0.00  0.00    -0.269 N 
ATOM     23  C   UNL     1      -2.205  -0.401   3.353  0.00  0.00    +0.307 C 
ATOM     24  O   UNL     1      -1.441  -0.733   4.239  0.00  0.00    -0.252 OA
ATOM     25  N   UNL     1      -3.529  -0.330   3.597  0.00  0.00    -0.274 N 
ATOM     26  H   UNL     1      -2.330   0.224   1.441  0.00  0.00    +0.156 HD
BRANCH  22  32
ATOM     27  C   UNL     1       0.036  -0.811   0.639  0.00  0.00    -0.026 A 
ATOM     28  C   UNL     1       1.381  -0.963   0.364  0.00  0.00    +0.005 A 
ATOM     29  C   UNL     1       2.326  -0.574   1.296  0.00  0.00    +0.000 A 
ATOM     30  C   UNL     1       1.929  -0.033   2.504  0.00  0.00    +0.002 A 
ATOM     31  C   UNL     1       0.585   0.122   2.785  0.00  0.00    +0.023 A 
ATOM     32  C   UNL     1      -0.367  -0.262   1.850  0.00  0.00    +0.038 A 
BRANCH  27  34
ATOM     33  C   UNL     1      -1.399  -0.029  -1.226  0.00  0.00    +0.009 C 
ATOM     34  C   UNL     1      -0.994  -1.235  -0.376  0.00  0.00    +0.033 C 
ENDBRANCH  27  34
ENDBRANCH  22  32
BRANCH  25  35
ATOM     35  C   UNL     1      -4.460  -0.039   2.505  0.00  0.00    +0.072 C 
ATOM     36  C   UNL     1      -5.378  -1.243   2.282  0.00  0.00    +0.028 C 
ATOM     37  C   UNL     1      -5.304   1.185   2.866  0.00  0.00    +0.028 C 
ENDBRANCH  25  35
ENDBRANCH  21  25
ENDBRANCH   1  21
TORSDOF 6
