REMARK  Name = ZINC58652658
REMARK  7 active torsions:
REMARK  status: ('A' for Active; 'I' for Inactive)
REMARK    1  A    between atoms: C_1  and  C_2
REMARK    2  A    between atoms: C_5  and  N_8
REMARK    3  A    between atoms: N_8  and  C_9
REMARK    4  A    between atoms: C_9  and  C_10
REMARK    5  A    between atoms: N_12  and  N_13
REMARK    6  A    between atoms: C_14  and  C_15
REMARK    7  A    between atoms: C_14  and  C_16
REMARK                            x       y       z     vdW  Elec       q    Type
REMARK                         _______ _______ _______ _____ _____    ______ ____
ROOT
ATOM      1  C   UNL     1       0.092  -6.387   0.960  0.00  0.00    +0.249 C 
ATOM      2  O   UNL     1       0.092  -6.785  -0.186  0.00  0.00    -0.272 OA
ATOM      3  N   UNL     1       0.109  -7.268   1.980  0.00  0.00    -0.206 N 
ATOM      4  H   UNL     1       0.109  -6.950   2.896  0.00  0.00    +0.177 HD
ENDROOT
BRANCH   3   5
ATOM      5  N   UNL     1       0.126  -8.644   1.716  0.00  0.00    -0.189 NA
ATOM      6  C   UNL     1       0.142  -9.481   2.685  0.00  0.00    +0.040 C 
ATOM      7  C   UNL     1       0.142  -8.986   4.108  0.00  0.00    +0.063 C 
BRANCH   6   8
ATOM      8  C   UNL     1       0.160 -10.961   2.401  0.00  0.00    +0.011 C 
ATOM      9  C   UNL     1      -1.078 -11.614   3.020  0.00  0.00    +0.016 C 
ATOM     10  C   UNL     1      -1.059 -13.117   2.732  0.00  0.00    -0.010 C 
ATOM     11  C   UNL     1      -1.063 -13.346   1.219  0.00  0.00    +0.007 C 
ATOM     12  C   UNL     1       0.174 -12.693   0.601  0.00  0.00    -0.010 C 
ATOM     13  C   UNL     1       0.156 -11.191   0.888  0.00  0.00    +0.016 C 
ATOM     14  C   UNL     1       1.435 -13.313   1.207  0.00  0.00    +0.007 C 
ATOM     15  C   UNL     1       1.439 -13.083   2.720  0.00  0.00    -0.010 C 
ATOM     16  C   UNL     1       0.201 -13.736   3.338  0.00  0.00    +0.007 C 
ATOM     17  C   UNL     1       1.421 -11.581   3.007  0.00  0.00    +0.016 C 
ENDBRANCH   6   8
ENDBRANCH   3   5
BRANCH   1  18
ATOM     18  C   UNL     1       0.074  -4.907   1.244  0.00  0.00    +0.199 C 
BRANCH  18  19
ATOM     19  N   UNL     1       0.058  -4.167  -0.021  0.00  0.00    -0.335 N 
ATOM     20  H   UNL     1       0.060  -4.648  -0.864  0.00  0.00    +0.147 HD
BRANCH  19  25
ATOM     21  C   UNL     1      -0.018   1.503   0.010  0.00  0.00    +0.044 C 
ATOM     22  C   UNL     1       0.002  -0.004   0.002  0.00  0.00    -0.050 A 
ATOM     23  C   UNL     1       0.006  -0.687  -1.200  0.00  0.00    +0.005 A 
ATOM     24  C   UNL     1       0.024  -2.068  -1.212  0.00  0.00    +0.023 A 
ATOM     25  C   UNL     1       0.040  -2.771  -0.013  0.00  0.00    +0.028 A 
ATOM     26  C   UNL     1       0.036  -2.081   1.193  0.00  0.00    +0.023 A 
ATOM     27  C   UNL     1       0.023  -0.700   1.197  0.00  0.00    +0.005 A 
ENDBRANCH  19  25
ENDBRANCH  18  19
ENDBRANCH   1  18
TORSDOF 5
