REMARK  Name = ZINC60477303
REMARK  13 active torsions:
REMARK  status: ('A' for Active; 'I' for Inactive)
REMARK    1  A    between atoms: C_1  and  C_2
REMARK    2  A    between atoms: C_2  and  N_3
REMARK    3  A    between atoms: N_3  and  C_4
REMARK    4  A    between atoms: N_3  and  C_20
REMARK    5  A    between atoms: C_4  and  C_5
REMARK    6  A    between atoms: N_7  and  C_8
REMARK    7  A    between atoms: C_13  and  C_14
REMARK    8  A    between atoms: N_16  and  C_17
REMARK    9  A    between atoms: C_17  and  C_18
REMARK   10  A    between atoms: C_17  and  C_19
REMARK   11  A    between atoms: C_20  and  C_21
REMARK   12  A    between atoms: C_20  and  C_22
REMARK   13  A    between atoms: C_25  and  C_28
REMARK                            x       y       z     vdW  Elec       q    Type
REMARK                         _______ _______ _______ _____ _____    ______ ____
ROOT
ATOM      1  C   UNL     1      -0.676   1.379   2.288  0.00  0.00    +0.201 C 
ATOM      2  O   UNL     1      -0.378   2.004   1.293  0.00  0.00    -0.278 OA
ATOM      3  N   UNL     1      -1.233   2.012   3.340  0.00  0.00    -0.286 N 
ATOM      4  H   UNL     1      -1.419   1.524   4.157  0.00  0.00    +0.155 HD
ENDROOT
BRANCH   3   5
ATOM      5  C   UNL     1      -1.541   3.367   3.253  0.00  0.00    +0.045 A 
ATOM      6  C   UNL     1      -0.650   4.249   2.656  0.00  0.00    +0.024 A 
ATOM      7  C   UNL     1      -0.957   5.592   2.572  0.00  0.00    +0.002 A 
ATOM      8  C   UNL     1      -2.154   6.071   3.080  0.00  0.00    +0.001 A 
ATOM      9  C   UNL     1      -3.051   5.211   3.675  0.00  0.00    +0.015 A 
ATOM     10  C   UNL     1      -2.756   3.848   3.764  0.00  0.00    +0.058 A 
BRANCH  10  11
ATOM     11  C   UNL     1      -3.715   2.921   4.394  0.00  0.00    +0.246 C 
ATOM     12  O   UNL     1      -3.423   1.749   4.536  0.00  0.00    -0.270 OA
ATOM     13  N   UNL     1      -4.913   3.373   4.814  0.00  0.00    -0.309 N 
ATOM     14  H   UNL     1      -5.145   4.308   4.702  0.00  0.00    +0.149 HD
BRANCH  13  15
ATOM     15  C   UNL     1      -5.864   2.452   5.441  0.00  0.00    +0.067 C 
ATOM     16  C   UNL     1      -6.809   3.237   6.353  0.00  0.00    +0.027 C 
ATOM     17  C   UNL     1      -6.677   1.742   4.356  0.00  0.00    +0.027 C 
ENDBRANCH  13  15
ENDBRANCH  10  11
ENDBRANCH   3   5
BRANCH   1  18
ATOM     18  C   UNL     1      -0.424  -0.106   2.350  0.00  0.00    +0.020 C 
BRANCH  18  19
ATOM     19  N   UNL     1       0.048  -0.577   1.041  0.00  0.00    +0.390 N 
ATOM     20  H   UNL     1       0.857  -0.041   0.763  0.00  0.00    -0.080 HD
BRANCH  19  22
ATOM     21  C   UNL     1      -2.216  -1.278   0.426  0.00  0.00    -0.017 C 
ATOM     22  C   UNL     1      -1.018  -0.406   0.045  0.00  0.00    -0.081 C 
ENDBRANCH  19  22
BRANCH  19  23
ATOM     23  C   UNL     1       0.410  -1.998   1.133  0.00  0.00    -0.040 C 
ATOM     24  C   UNL     1       1.520  -2.175   2.171  0.00  0.00    -0.008 C 
BRANCH  23  25
ATOM     25  C   UNL     1       0.895  -2.481  -0.209  0.00  0.00    -0.061 A 
ATOM     26  C   UNL     1       1.708  -1.669  -0.981  0.00  0.00    +0.003 A 
ATOM     27  C   UNL     1       2.155  -2.105  -2.211  0.00  0.00    +0.019 A 
ATOM     28  C   UNL     1       1.787  -3.369  -2.676  0.00  0.00    +0.052 A 
ATOM     29  C   UNL     1       0.967  -4.183  -1.892  0.00  0.00    +0.019 A 
ATOM     30  C   UNL     1       0.530  -3.736  -0.662  0.00  0.00    +0.003 A 
BRANCH  28  31
ATOM     31  C   UNL     1       2.247  -3.828  -3.952  0.00  0.00    +0.099 C 
ATOM     32  N   UNL     1       2.613  -4.192  -4.964  0.00  0.00    -0.191 NA
ENDBRANCH  28  31
ENDBRANCH  23  25
ENDBRANCH  19  23
ENDBRANCH  18  19
ENDBRANCH   1  18
TORSDOF 9
