REMARK  Name = ZINC19927038
REMARK  11 active torsions:
REMARK  status: ('A' for Active; 'I' for Inactive)
REMARK    1  A    between atoms: C_1  and  C_2
REMARK    2  A    between atoms: C_2  and  N_3
REMARK    3  A    between atoms: N_3  and  C_4
REMARK    4  A    between atoms: N_3  and  C_6
REMARK    5  A    between atoms: C_4  and  C_5
REMARK    6  A    between atoms: C_9  and  C_13
REMARK    7  A    between atoms: C_10  and  O_12
REMARK    8  A    between atoms: N_14  and  N_15
REMARK    9  A    between atoms: C_16  and  C_18
REMARK   10  A    between atoms: C_19  and  C_29
REMARK   11  A    between atoms: C_29  and  N_30
REMARK                            x       y       z     vdW  Elec       q    Type
REMARK                         _______ _______ _______ _____ _____    ______ ____
ROOT
ATOM      1  C   UNL     1      -7.503   8.239  -0.024  0.00  0.00    +0.154 A 
ATOM      2  C   UNL     1      -8.134   8.653  -1.168  0.00  0.00    +0.079 A 
ATOM      3  N   UNL     1      -9.254   9.264  -0.780  0.00  0.00    -0.135 NA
ATOM      4  N   UNL     1      -9.331   9.242   0.503  0.00  0.00    -0.058 NA
ATOM      5  N   UNL     1      -8.315   8.637   1.009  0.00  0.00    -0.183 N 
ATOM      6  C   UNL     1      -8.077   8.425   2.371  0.00  0.00    +0.241 A 
ATOM      7  C   UNL     1      -8.999   8.752   3.463  0.00  0.00    +0.206 A 
ATOM      8  N   UNL     1      -8.435   8.412   4.590  0.00  0.00    -0.032 NA
ATOM      9  O   UNL     1      -7.162   7.866   4.292  0.00  0.00    -0.239 OA
ATOM     10  N   UNL     1      -7.002   7.898   2.885  0.00  0.00    -0.027 NA
ATOM     11  N   UNL     1     -10.257   9.325   3.323  0.00  0.00    -0.337 N 
ATOM     12  H   UNL     1     -10.871   9.530   4.212  0.00  0.00    +0.144 HD
ATOM     13  H   UNL     1     -10.639   9.574   2.322  0.00  0.00    +0.144 HD
ENDROOT
BRANCH   1  15
ATOM     14  N   UNL     1      -6.221   6.183   0.288  0.00  0.00    -0.202 N 
ATOM     15  C   UNL     1      -6.226   7.514   0.075  0.00  0.00    +0.284 C 
ATOM     16  O   UNL     1      -5.175   8.117  -0.035  0.00  0.00    -0.267 OA
ATOM     17  H   UNL     1      -7.169   5.650   0.457  0.00  0.00    +0.178 HD
BRANCH  14  19
ATOM     18  C   UNL     1      -5.006   4.197   0.499  0.00  0.00    +0.142 C 
ATOM     19  N   UNL     1      -5.010   5.479   0.294  0.00  0.00    -0.187 NA
BRANCH  18  23
ATOM     20  C   UNL     1      -1.334   2.061   0.518  0.00  0.00    +0.033 A 
ATOM     21  C   UNL     1      -2.533   1.387   0.731  0.00  0.00    +0.024 A 
ATOM     22  C   UNL     1      -3.725   2.076   0.726  0.00  0.00    +0.015 A 
ATOM     23  C   UNL     1      -3.733   3.457   0.505  0.00  0.00    +0.036 A 
ATOM     24  C   UNL     1      -2.524   4.134   0.291  0.00  0.00    +0.127 A 
ATOM     25  C   UNL     1      -1.331   3.434   0.304  0.00  0.00    +0.069 A 
BRANCH  24  26
ATOM     26  O   UNL     1      -2.523   5.475   0.076  0.00  0.00    -0.506 OA
ATOM     27  H   UNL     1      -1.574   6.005  -0.092  0.00  0.00    +0.292 HD
ENDBRANCH  24  26
BRANCH  20  28
ATOM     28  N   UNL     1      -0.130   1.357   0.526  0.00  0.00    -0.330 N 
BRANCH  28  30
ATOM     29  C   UNL     1       0.002  -0.366   2.257  0.00  0.00    +0.024 C 
ATOM     30  C   UNL     1      -0.129  -0.090   0.758  0.00  0.00    +0.102 C 
ENDBRANCH  28  30
BRANCH  28  31
ATOM     31  C   UNL     1       1.133   2.062   0.296  0.00  0.00    +0.102 C 
ATOM     32  C   UNL     1       1.442   2.080  -1.202  0.00  0.00    +0.024 C 
ENDBRANCH  28  31
ENDBRANCH  20  28
ENDBRANCH  18  23
ENDBRANCH  14  19
ENDBRANCH   1  15
BRANCH   2  33
ATOM     33  C   UNL     1      -7.657   8.456  -2.584  0.00  0.00    -0.018 C 
BRANCH  33  34
ATOM     34  N   UNL     1      -8.183   7.186  -3.106  0.00  0.00    +0.383 N 
ATOM     35  C   UNL     1      -7.615   6.044  -2.378  0.00  0.00    -0.078 C 
ATOM     36  C   UNL     1      -8.291   4.753  -2.847  0.00  0.00    -0.019 C 
ATOM     37  C   UNL     1      -8.069   4.584  -4.352  0.00  0.00    -0.004 C 
ATOM     38  C   UNL     1      -8.626   5.809  -5.082  0.00  0.00    -0.019 C 
ATOM     39  C   UNL     1      -7.941   7.070  -4.549  0.00  0.00    -0.078 C 
ATOM     40  H   UNL     1      -9.271   7.178  -2.946  0.00  0.00    -0.081 HD
ENDBRANCH  33  34
ENDBRANCH   2  33
TORSDOF 9
