REMARK  Name = ZINC62784962
REMARK  5 active torsions:
REMARK  status: ('A' for Active; 'I' for Inactive)
REMARK    1  A    between atoms: C_3  and  C_20
REMARK    2  A    between atoms: C_4  and  N_8
REMARK    3  A    between atoms: N_8  and  CA_9
REMARK    4  A    between atoms: CA_9  and  C_11
REMARK    5  A    between atoms: CA_9  and  C_17
REMARK                            x       y       z     vdW  Elec       q    Type
REMARK                         _______ _______ _______ _____ _____    ______ ____
ROOT
ATOM      1  C   UNL     1      -0.092   1.226   0.033  0.00  0.00    +0.021 A 
ATOM      2  C   UNL     1       0.987   2.081  -0.000  0.00  0.00    +0.016 A 
ATOM      3  C   UNL     1       2.285   1.564  -0.039  0.00  0.00    +0.057 A 
ATOM      4  C   UNL     1       2.478   0.173  -0.044  0.00  0.00    +0.041 A 
ATOM      5  C   UNL     1       1.378  -0.673  -0.011  0.00  0.00    +0.043 A 
ATOM      6  C   UNL     1       0.101  -0.148   0.028  0.00  0.00    +0.043 A 
ATOM      7 CL   UNL     1      -1.269  -1.212   0.070  0.00  0.00    -0.083 Cl
ENDROOT
BRANCH   3   8
ATOM      8  C   UNL     1       3.444   2.474  -0.076  0.00  0.00    +0.243 C 
ATOM      9  O   UNL     1       4.571   2.025  -0.001  0.00  0.00    -0.270 OA
ATOM     10  N   UNL     1       3.254   3.803  -0.192  0.00  0.00    -0.325 N 
ATOM     11  H   UNL     1       2.354   4.161  -0.251  0.00  0.00    +0.145 HD
ATOM     12  H   UNL     1       4.016   4.402  -0.216  0.00  0.00    +0.145 HD
ENDBRANCH   3   8
BRANCH   4  13
ATOM     13  N   UNL     1       3.763  -0.353  -0.084  0.00  0.00    -0.330 N 
ATOM     14  H   UNL     1       4.530   0.237  -0.024  0.00  0.00    +0.147 HD
BRANCH  13  15
ATOM     15  CA  UNL     1       3.959  -1.798  -0.215  0.00  0.00    +0.187 C 
BRANCH  15  16
ATOM     16  C   UNL     1       5.327  -2.073  -0.843  0.00  0.00    +0.020 C 
ATOM     17  C   UNL     1       5.393  -1.421  -2.226  0.00  0.00    +0.006 C 
ATOM     18  C   UNL     1       6.761  -1.695  -2.853  0.00  0.00    +0.000 C 
ATOM     19  C   UNL     1       6.966  -3.205  -2.991  0.00  0.00    +0.000 C 
ATOM     20  C   UNL     1       6.899  -3.857  -1.608  0.00  0.00    +0.000 C 
ATOM     21  C   UNL     1       5.532  -3.583  -0.981  0.00  0.00    +0.006 C 
ENDBRANCH  15  16
BRANCH  15  22
ATOM     22  C   UNL     1       3.893  -2.440   1.147  0.00  0.00    +0.376 C 
ATOM     23  O   UNL     1       3.490  -3.585   1.262  0.00  0.00    -0.244 OA
ATOM     24  OXT UNL     1       4.244  -1.815   2.133  0.00  0.00    -0.244 OA
ENDBRANCH  15  22
ENDBRANCH  13  15
ENDBRANCH   4  13
TORSDOF 5
