REMARK  Name = ZINC08704603
REMARK  8 active torsions:
REMARK  status: ('A' for Active; 'I' for Inactive)
REMARK    1  A    between atoms: C_1  and  C_2
REMARK    2  A    between atoms: C_2  and  C_3
REMARK    3  A    between atoms: C_3  and  C_4
REMARK    4  A    between atoms: C_7  and  S_10
REMARK    5  A    between atoms: S_10  and  N_13
REMARK    6  A    between atoms: C_18  and  N_19
REMARK    7  A    between atoms: C_18  and  N_57
REMARK    8  A    between atoms: C_26  and  N_30
REMARK                            x       y       z     vdW  Elec       q    Type
REMARK                         _______ _______ _______ _____ _____    ______ ____
ROOT
ATOM      1  N   UNL     1      -0.872   3.042   1.182  0.00  0.00    -0.180 NA
ATOM      2  C   UNL     1      -0.731   1.581   1.268  0.00  0.00    +0.091 C 
ATOM      3  C   UNL     1      -0.013   1.086   0.008  0.00  0.00    -0.059 C 
ATOM      4  C   UNL     1      -0.705   3.040  -1.250  0.00  0.00    -0.059 C 
ATOM      5  C   UNL     1      -1.452   3.615  -0.042  0.00  0.00    +0.091 C 
ATOM      6  N   UNL     1      -0.753   1.564  -1.180  0.00  0.00    +0.392 N 
ATOM      7  H   UNL     1      -1.733   1.266  -1.103  0.00  0.00    -0.079 HD
ENDROOT
BRANCH   1   8
ATOM      8  S   UNL     1      -0.390   4.017   2.431  0.00  0.00    +0.061 S 
ATOM      9  O   UNL     1       0.587   3.288   3.162  0.00  0.00    -0.153 OA
ATOM     10  O   UNL     1      -0.125   5.295   1.870  0.00  0.00    -0.153 OA
BRANCH   8  14
ATOM     11  C   UNL     1      -3.949   4.526   5.181  0.00  0.00    -0.047 A 
ATOM     12  C   UNL     1      -3.064   3.483   5.382  0.00  0.00    +0.005 A 
ATOM     13  C   UNL     1      -1.977   3.328   4.542  0.00  0.00    +0.029 A 
ATOM     14  C   UNL     1      -1.776   4.215   3.502  0.00  0.00    +0.105 A 
ATOM     15  C   UNL     1      -2.658   5.261   3.304  0.00  0.00    +0.029 A 
ATOM     16  C   UNL     1      -3.747   5.413   4.141  0.00  0.00    +0.005 A 
BRANCH  11  17
ATOM     17  C   UNL     1      -5.135   4.694   6.096  0.00  0.00    +0.035 C 
BRANCH  17  19
ATOM     18  C   UNL     1      -5.950   5.761   8.204  0.00  0.00    +0.004 C 
ATOM     19  C   UNL     1      -4.746   5.589   7.275  0.00  0.00    +0.001 C 
ENDBRANCH  17  19
ENDBRANCH  11  17
ENDBRANCH   8  14
ENDBRANCH   1   8
BRANCH   6  20
ATOM     20  C   UNL     1      -0.170   0.981  -2.406  0.00  0.00    +0.042 C 
BRANCH  20  21
ATOM     21  N   UNL     1      -0.439   1.866  -3.542  0.00  0.00    -0.251 N 
ATOM     22  C   UNL     1       0.381   2.851  -3.951  0.00  0.00    +0.252 C 
ATOM     23  O   UNL     1       1.446   3.143  -3.445  0.00  0.00    -0.270 OA
ATOM     24  C   UNL     1      -0.232   3.516  -5.119  0.00  0.00    +0.051 A 
ATOM     25  C   UNL     1       0.141   4.566  -5.940  0.00  0.00    +0.014 A 
ATOM     26  C   UNL     1      -0.686   4.957  -6.984  0.00  0.00    +0.003 A 
ATOM     27  C   UNL     1      -1.880   4.309  -7.214  0.00  0.00    +0.023 A 
ATOM     28  C   UNL     1      -2.276   3.247  -6.398  0.00  0.00    +0.038 A 
ATOM     29  C   UNL     1      -1.453   2.846  -5.347  0.00  0.00    +0.070 A 
ATOM     30  C   UNL     1      -1.537   1.798  -4.316  0.00  0.00    +0.254 C 
ATOM     31  O   UNL     1      -2.448   1.004  -4.186  0.00  0.00    -0.270 OA
BRANCH  28  32
ATOM     32  N   UNL     1      -3.478   2.596  -6.632  0.00  0.00    -0.357 N 
ATOM     33  H   UNL     1      -4.048   2.878  -7.364  0.00  0.00    +0.142 HD
ATOM     34  H   UNL     1      -3.750   1.859  -6.062  0.00  0.00    +0.142 HD
ENDBRANCH  28  32
ENDBRANCH  20  21
ENDBRANCH   6  20
TORSDOF 7
