REMARK  Name = ZINC39710917
REMARK  14 active torsions:
REMARK  status: ('A' for Active; 'I' for Inactive)
REMARK    1  A    between atoms: C_1  and  C_2
REMARK    2  A    between atoms: C_8  and  C_14
REMARK    3  A    between atoms: C_14  and  C_16
REMARK    4  A    between atoms: C_14  and  N_26
REMARK    5  A    between atoms: N_21  and  C_22
REMARK    6  A    between atoms: C_22  and  C_23
REMARK    7  A    between atoms: C_22  and  C_24
REMARK    8  A    between atoms: C_22  and  C_25
REMARK    9  A    between atoms: N_26  and  C_27
REMARK   10  A    between atoms: N_26  and  C_36
REMARK   11  A    between atoms: C_27  and  C_28
REMARK   12  A    between atoms: C_31  and  O_34
REMARK   13  A    between atoms: O_34  and  C_35
REMARK   14  A    between atoms: C_36  and  C_37
REMARK                            x       y       z     vdW  Elec       q    Type
REMARK                         _______ _______ _______ _____ _____    ______ ____
ROOT
ATOM      1  C   UNL     1       0.986  -1.069   5.374  0.00  0.00    -0.009 C 
ENDROOT
BRANCH   1   9
ATOM      2  C   UNL     1      -0.633   4.850   5.240  0.00  0.00    +0.045 C 
ATOM      3  C   UNL     1      -1.146   3.658   4.473  0.00  0.00    -0.029 A 
ATOM      4  C   UNL     1      -1.901   3.847   3.360  0.00  0.00    +0.005 A 
ATOM      5  C   UNL     1      -2.407   2.788   2.604  0.00  0.00    +0.001 A 
ATOM      6  C   UNL     1      -2.166   1.497   2.948  0.00  0.00    +0.009 A 
ATOM      7  C   UNL     1      -1.359   1.221   4.137  0.00  0.00    -0.007 A 
ATOM      8  C   UNL     1      -1.092  -0.060   4.519  0.00  0.00    -0.006 C 
ATOM      9  C   UNL     1      -0.247  -0.252   5.764  0.00  0.00    +0.088 C 
ATOM     10  C   UNL     1       0.229   0.993   6.479  0.00  0.00    +0.223 C 
ATOM     11  O   UNL     1       0.910   0.897   7.483  0.00  0.00    -0.275 OA
ATOM     12  N   UNL     1      -0.097   2.185   6.009  0.00  0.00    -0.284 N 
ATOM     13  C   UNL     1      -0.834   2.358   4.912  0.00  0.00    +0.043 A 
ATOM     14  H   UNL     1       0.219   2.971   6.483  0.00  0.00    +0.155 HD
ENDBRANCH   1   9
BRANCH   1  15
ATOM     15  C   UNL     1       1.806  -0.293   4.341  0.00  0.00    +0.205 C 
ATOM     16  N   UNL     1       2.195   1.018   4.876  0.00  0.00    -0.152 NA
ATOM     17  N   UNL     1       1.708   1.900   4.165  0.00  0.00    -0.070 NA
ATOM     18  N   UNL     1       0.959   1.390   3.105  0.00  0.00    -0.179 N 
ATOM     19  N   UNL     1       0.981   0.018   3.155  0.00  0.00    -0.183 NA
ATOM     20  H   UNL     1       0.497   1.920   2.437  0.00  0.00    +0.191 HD
BRANCH  19  21
ATOM     21  C   UNL     1       1.576  -0.546   1.936  0.00  0.00    +0.035 C 
ATOM     22  C   UNL     1       1.717  -2.062   2.092  0.00  0.00    +0.029 C 
ATOM     23  C   UNL     1       0.676  -0.238   0.738  0.00  0.00    +0.029 C 
ATOM     24  C   UNL     1       2.957   0.073   1.710  0.00  0.00    +0.029 C 
ENDBRANCH  19  21
ENDBRANCH   1  15
BRANCH   1  25
ATOM     25  N   UNL     1       1.807  -1.316   6.566  0.00  0.00    +0.390 N 
ATOM     26  H   UNL     1       2.194  -0.444   6.895  0.00  0.00    -0.080 HD
BRANCH  25  27
ATOM     27  C   UNL     1       0.974  -1.910   7.620  0.00  0.00    -0.042 C 
BRANCH  27  28
ATOM     28  C   UNL     1       1.785  -2.050   8.882  0.00  0.00    -0.064 A 
ATOM     29  C   UNL     1       2.507  -3.206   9.114  0.00  0.00    +0.005 A 
ATOM     30  C   UNL     1       3.252  -3.337  10.271  0.00  0.00    +0.046 A 
ATOM     31  C   UNL     1       3.274  -2.307  11.200  0.00  0.00    +0.120 A 
ATOM     32  C   UNL     1       2.549  -1.148  10.965  0.00  0.00    +0.046 A 
ATOM     33  C   UNL     1       1.811  -1.020   9.804  0.00  0.00    +0.005 A 
BRANCH  31  34
ATOM     34  O   UNL     1       4.005  -2.434  12.339  0.00  0.00    -0.495 OA
ATOM     35  C   UNL     1       3.982  -1.334  13.250  0.00  0.00    +0.277 C 
ENDBRANCH  31  34
ENDBRANCH  27  28
ENDBRANCH  25  27
BRANCH  25  36
ATOM     36  C   UNL     1       2.899  -2.238   6.226  0.00  0.00    -0.040 C 
BRANCH  36  37
ATOM     37  C   UNL     1       3.960  -1.498   5.454  0.00  0.00    -0.046 A 
ATOM     38  C   UNL     1       4.466  -2.024   4.275  0.00  0.00    +0.005 A 
ATOM     39  C   UNL     1       5.441  -1.308   3.598  0.00  0.00    +0.020 A 
ATOM     40  C   UNL     1       5.873  -0.102   4.117  0.00  0.00    +0.111 A 
ATOM     41  N   UNL     1       5.370   0.368   5.241  0.00  0.00    -0.263 NA
ATOM     42  C   UNL     1       4.437  -0.283   5.908  0.00  0.00    +0.112 A 
ENDBRANCH  36  37
ENDBRANCH  25  36
ENDBRANCH   1  25
TORSDOF 9
