REMARK  Name = ZINC39686310
REMARK  9 active torsions:
REMARK  status: ('A' for Active; 'I' for Inactive)
REMARK    1  A    between atoms: C_1  and  C_2
REMARK    2  A    between atoms: C_5  and  C_9
REMARK    3  A    between atoms: C_6  and  C_8
REMARK    4  A    between atoms: C_13  and  C_22
REMARK    5  A    between atoms: N_24  and  C_25
REMARK    6  A    between atoms: C_31  and  C_33
REMARK    7  A    between atoms: C_33  and  C_34
REMARK    8  A    between atoms: C_34  and  C_35
REMARK    9  A    between atoms: C_34  and  C_36
REMARK                            x       y       z     vdW  Elec       q    Type
REMARK                         _______ _______ _______ _____ _____    ______ ____
ROOT
ATOM      1  C   UNL     1       0.059  -4.408   0.062  0.00  0.00    +0.247 C 
ATOM      2  O   UNL     1       0.238  -4.973   1.123  0.00  0.00    -0.270 OA
ATOM      3  N   UNL     1      -0.080  -5.127  -1.069  0.00  0.00    -0.296 N 
ATOM      4  C   UNL     1      -0.201  -4.623  -2.458  0.00  0.00    +0.121 C 
ATOM      5  C   UNL     1       0.631  -5.610  -3.306  0.00  0.00    +0.100 C 
ATOM      6  C   UNL     1       0.662  -6.908  -2.481  0.00  0.00    -0.004 C 
ATOM      7  C   UNL     1      -0.140  -6.602  -1.207  0.00  0.00    +0.115 C 
ATOM      8  C   UNL     1       2.099  -7.270  -2.118  0.00  0.00    -0.010 C 
ATOM      9  C   UNL     1       2.108  -8.593  -1.347  0.00  0.00    -0.082 C 
ATOM     10  N   UNL     1       1.510  -9.647  -2.174  0.00  0.00    +0.379 N 
ATOM     11  C   UNL     1       0.100  -9.336  -2.441  0.00  0.00    -0.082 C 
ATOM     12  C   UNL     1       0.006  -8.045  -3.258  0.00  0.00    -0.010 C 
ATOM     13  H   UNL     1       2.010  -9.711  -3.048  0.00  0.00    -0.086 HD
ATOM     14  H   UNL     1       1.572 -10.530  -1.689  0.00  0.00    -0.086 HD
ENDROOT
BRANCH   1  19
ATOM     15  C   UNL     1      -0.191   1.338  -0.133  0.00  0.00    +0.044 C 
ATOM     16  C   UNL     1      -0.126  -0.167  -0.082  0.00  0.00    -0.050 A 
ATOM     17  C   UNL     1       0.726  -0.849  -0.934  0.00  0.00    +0.004 A 
ATOM     18  C   UNL     1       0.791  -2.226  -0.892  0.00  0.00    +0.013 A 
ATOM     19  C   UNL     1      -0.005  -2.932   0.012  0.00  0.00    +0.040 A 
ATOM     20  C   UNL     1      -0.861  -2.239   0.868  0.00  0.00    -0.038 A 
ATOM     21  C   UNL     1      -0.913  -0.861   0.820  0.00  0.00    +0.007 A 
ATOM     22  C   UNL     1      -1.724  -2.993   1.847  0.00  0.00    +0.044 C 
ENDBRANCH   1  19
BRANCH   5  23
ATOM     23  C   UNL     1      -0.034  -5.848  -4.637  0.00  0.00    +0.218 C 
ATOM     24  O   UNL     1      -1.244  -5.837  -4.721  0.00  0.00    -0.275 OA
ATOM     25  N   UNL     1       0.715  -6.073  -5.734  0.00  0.00    -0.312 N 
ATOM     26  H   UNL     1       1.683  -6.082  -5.667  0.00  0.00    +0.149 HD
BRANCH  25  27
ATOM     27  C   UNL     1       0.069  -6.304  -7.028  0.00  0.00    +0.076 C 
ATOM     28  C   UNL     1      -0.302  -7.784  -7.156  0.00  0.00    +0.041 C 
ATOM     29  C   UNL     1      -1.009  -8.015  -8.495  0.00  0.00    +0.109 C 
ATOM     30  N   UNL     1      -0.150  -7.513  -9.576  0.00  0.00    -0.301 N 
ATOM     31  C   UNL     1       0.338  -6.129  -9.505  0.00  0.00    +0.109 C 
ATOM     32  C   UNL     1       1.030  -5.919  -8.155  0.00  0.00    +0.041 C 
ATOM     33  C   UNL     1       0.183  -8.307 -10.613  0.00  0.00    +0.216 C 
ATOM     34  O   UNL     1      -0.226  -9.447 -10.660  0.00  0.00    -0.276 OA
BRANCH  33  35
ATOM     35  C   UNL     1       1.065  -7.777 -11.714  0.00  0.00    +0.099 C 
BRANCH  35  36
ATOM     36  C   UNL     1       1.289  -8.872 -12.759  0.00  0.00    -0.008 C 
ATOM     37  C   UNL     1       2.080  -8.298 -13.937  0.00  0.00    +0.008 C 
ATOM     38  C   UNL     1       2.075 -10.024 -12.131  0.00  0.00    +0.008 C 
ENDBRANCH  35  36
ENDBRANCH  33  35
ENDBRANCH  25  27
ENDBRANCH   5  23
TORSDOF 5
