REMARK  Name = ZINC13065218
REMARK  12 active torsions:
REMARK  status: ('A' for Active; 'I' for Inactive)
REMARK    1  A    between atoms: C_1  and  C_2
REMARK    2  A    between atoms: C_2  and  C_3
REMARK    3  A    between atoms: C_3  and  C_5
REMARK    4  A    between atoms: C_3  and  N_73
REMARK    5  A    between atoms: N_9  and  C_10
REMARK    6  A    between atoms: C_10  and  C_11
REMARK    7  A    between atoms: C_17  and  C_18
REMARK    8  A    between atoms: C_17  and  N_73
REMARK    9  A    between atoms: C_27  and  C_28
REMARK   10  A    between atoms: C_27  and  N_73
REMARK   11  A    between atoms: C_31  and  C_41
REMARK   12  A    between atoms: C_34  and  C_40
REMARK                            x       y       z     vdW  Elec       q    Type
REMARK                         _______ _______ _______ _____ _____    ______ ____
ROOT
ATOM      1  N   UNL     1      -0.611   1.922   1.105  0.00  0.00    +0.392 N 
ATOM      2  H   UNL     1      -0.096   1.575   1.923  0.00  0.00    -0.080 HD
ENDROOT
BRANCH   1   3
ATOM      3  C   UNL     1      -0.541   3.398   1.085  0.00  0.00    +0.003 C 
BRANCH   3   4
ATOM      4  C   UNL     1      -1.525   3.959   0.090  0.00  0.00    +0.138 A 
ATOM      5  N   UNL     1      -2.795   3.652  -0.013  0.00  0.00    -0.115 NA
ATOM      6  N   UNL     1      -3.294   4.343  -0.979  0.00  0.00    -0.023 NA
ATOM      7  N   UNL     1      -2.374   5.078  -1.500  0.00  0.00    -0.044 NA
ATOM      8  N   UNL     1      -1.268   4.870  -0.868  0.00  0.00    -0.228 N 
BRANCH   8   9
ATOM      9  C   UNL     1       0.023   5.505  -1.141  0.00  0.00    +0.178 C 
BRANCH   9  10
ATOM     10  C   UNL     1       0.707   4.789  -2.308  0.00  0.00    +0.140 C 
ATOM     11  C   UNL     1       2.090   5.421  -2.572  0.00  0.00    +0.035 C 
ATOM     12  C   UNL     1       2.165   5.415  -4.123  0.00  0.00    +0.031 C 
ATOM     13  C   UNL     1       0.679   5.659  -4.490  0.00  0.00    +0.160 C 
ATOM     14  O   UNL     1      -0.075   4.944  -3.498  0.00  0.00    -0.375 OA
ENDBRANCH   9  10
ENDBRANCH   8   9
ENDBRANCH   3   4
BRANCH   3  16
ATOM     15  C   UNL     1       0.165   3.408   3.481  0.00  0.00    +0.002 C 
ATOM     16  C   UNL     1      -0.871   3.926   2.482  0.00  0.00    -0.011 C 
ENDBRANCH   3  16
ENDBRANCH   1   3
BRANCH   1  17
ATOM     17  C   UNL     1      -2.020   1.485   1.204  0.00  0.00    -0.041 C 
BRANCH  17  18
ATOM     18  C   UNL     1      -2.049   0.060   1.695  0.00  0.00    -0.060 A 
ATOM     19  C   UNL     1      -2.099  -0.202   3.051  0.00  0.00    +0.005 A 
ATOM     20  C   UNL     1      -2.126  -1.507   3.506  0.00  0.00    +0.050 A 
ATOM     21  C   UNL     1      -2.104  -2.557   2.602  0.00  0.00    +0.166 A 
ATOM     22  C   UNL     1      -2.055  -2.293   1.236  0.00  0.00    +0.166 A 
ATOM     23  C   UNL     1      -2.033  -0.982   0.787  0.00  0.00    +0.051 A 
ATOM     24  O   UNL     1      -2.043  -3.480   0.562  0.00  0.00    -0.453 OA
ATOM     25  C   UNL     1      -2.498  -4.464   1.510  0.00  0.00    +0.466 C 
ATOM     26  O   UNL     1      -2.123  -3.909   2.785  0.00  0.00    -0.453 OA
ENDBRANCH  17  18
ENDBRANCH   1  17
BRANCH   1  27
ATOM     27  C   UNL     1       0.004   1.370  -0.119  0.00  0.00    -0.036 C 
BRANCH  27  28
ATOM     28  C   UNL     1       1.476   1.165   0.134  0.00  0.00    +0.001 A 
ATOM     29  C   UNL     1       1.928  -0.043   0.551  0.00  0.00    +0.017 A 
ATOM     30  C   UNL     1       3.364  -0.209   0.788  0.00  0.00    +0.002 A 
ATOM     31  C   UNL     1       3.889  -1.431   1.219  0.00  0.00    -0.041 A 
ATOM     32  C   UNL     1       5.233  -1.554   1.430  0.00  0.00    +0.004 A 
ATOM     33  C   UNL     1       6.082  -0.475   1.222  0.00  0.00    +0.005 A 
ATOM     34  C   UNL     1       5.586   0.739   0.797  0.00  0.00    -0.026 A 
ATOM     35  C   UNL     1       4.221   0.887   0.576  0.00  0.00    +0.052 A 
ATOM     36  N   UNL     1       3.698   2.090   0.150  0.00  0.00    -0.322 N 
ATOM     37  H   UNL     1       4.290   2.844   0.004  0.00  0.00    +0.169 HD
ATOM     38  C   UNL     1       2.379   2.231  -0.070  0.00  0.00    +0.251 A 
ATOM     39  O   UNL     1       1.952   3.307  -0.450  0.00  0.00    -0.268 OA
ATOM     40  C   UNL     1       6.520   1.901   0.574  0.00  0.00    +0.046 C 
ATOM     41  C   UNL     1       2.977  -2.609   1.448  0.00  0.00    +0.044 C 
ENDBRANCH  27  28
ENDBRANCH   1  27
TORSDOF 9
