REMARK  Name = ZINC05658618
REMARK  3 active torsions:
REMARK  status: ('A' for Active; 'I' for Inactive)
REMARK    1  A    between atoms: C_1  and  C_2
REMARK    2  A    between atoms: C_4  and  C_21
REMARK    3  A    between atoms: C_6  and  N_18
REMARK                            x       y       z     vdW  Elec       q    Type
REMARK                         _______ _______ _______ _____ _____    ______ ____
ROOT
ATOM      1  C   UNL     1      -1.837   7.840  -2.308  0.00  0.00    +0.063 C 
ATOM      2  C   UNL     1      -0.950   7.373  -1.151  0.00  0.00    +0.132 C 
ATOM      3  C   UNL     1      -0.810   5.856  -1.208  0.00  0.00    +0.065 C 
ATOM      4  C   UNL     1      -0.070   5.347   0.032  0.00  0.00    +0.055 C 
ATOM      5  C   UNL     1      -0.797   5.843   1.288  0.00  0.00    +0.210 C 
ATOM      6  C   UNL     1      -0.834   7.378   1.242  0.00  0.00    +0.182 C 
ATOM      7  O   UNL     1      -1.565   7.773   0.076  0.00  0.00    -0.346 OA
ATOM      8  C   UNL     1       0.586   7.877   1.138  0.00  0.00    +0.004 A 
ATOM      9  C   UNL     1       1.346   8.035   2.281  0.00  0.00    +0.008 A 
ATOM     10  C   UNL     1       2.656   8.467   2.187  0.00  0.00    +0.000 A 
ATOM     11  C   UNL     1       3.211   8.743   0.951  0.00  0.00    +0.002 A 
ATOM     12  C   UNL     1       2.455   8.594  -0.196  0.00  0.00    +0.023 A 
ATOM     13  C   UNL     1       1.138   8.164  -0.102  0.00  0.00    +0.035 A 
ATOM     14  N   UNL     1       0.361   8.020  -1.258  0.00  0.00    -0.316 N 
ATOM     15  H   UNL     1       0.684   8.343  -2.114  0.00  0.00    +0.149 HD
ENDROOT
BRANCH   4  16
ATOM     16  C   UNL     1      -0.050   3.840   0.023  0.00  0.00    -0.042 A 
ATOM     17  C   UNL     1       1.156   3.165   0.008  0.00  0.00    +0.004 A 
ATOM     18  C   UNL     1       1.175   1.783   0.000  0.00  0.00    +0.000 A 
ATOM     19  C   UNL     1      -0.013   1.076   0.008  0.00  0.00    +0.000 A 
ATOM     20  C   UNL     1      -1.219   1.751   0.017  0.00  0.00    +0.000 A 
ATOM     21  C   UNL     1      -1.238   3.133   0.030  0.00  0.00    +0.004 A 
ENDBRANCH   4  16
BRANCH   5  22
ATOM     22  N   UNL     1      -2.163   5.315   1.310  0.00  0.00    +0.029 N 
ATOM     23  O   UNL     1      -2.529   4.610   2.233  0.00  0.00    -0.131 OA
ATOM     24  O   UNL     1      -2.934   5.581   0.405  0.00  0.00    -0.131 OA
ENDBRANCH   5  22
TORSDOF 2
