REMARK  Name = ZINC39686832
REMARK  9 active torsions:
REMARK  status: ('A' for Active; 'I' for Inactive)
REMARK    1  A    between atoms: C_1  and  C_2
REMARK    2  A    between atoms: C_2  and  C_4
REMARK    3  A    between atoms: C_2  and  N_12
REMARK    4  A    between atoms: C_4  and  C_5
REMARK    5  A    between atoms: C_13  and  C_15
REMARK    6  A    between atoms: C_26  and  C_28
REMARK    7  A    between atoms: C_33  and  O_34
REMARK    8  A    between atoms: O_34  and  C_35
REMARK    9  A    between atoms: C_35  and  C_37
REMARK                            x       y       z     vdW  Elec       q    Type
REMARK                         _______ _______ _______ _____ _____    ______ ____
ROOT
ATOM      1  C   UNL     1       2.857  -0.805  -2.017  0.00  0.00    +0.100 C 
ATOM      2  C   UNL     1       2.430  -0.062  -3.302  0.00  0.00    +0.121 C 
ATOM      3  N   UNL     1       3.544   0.875  -3.580  0.00  0.00    -0.296 N 
ATOM      4  C   UNL     1       4.766   0.102  -3.252  0.00  0.00    +0.115 C 
ATOM      5  C   UNL     1       4.391  -0.699  -1.990  0.00  0.00    -0.004 C 
ATOM      6  C   UNL     1       5.018  -2.088  -2.040  0.00  0.00    -0.010 C 
ATOM      7  C   UNL     1       6.542  -1.959  -1.953  0.00  0.00    -0.082 C 
ATOM      8  N   UNL     1       6.907  -1.280  -0.704  0.00  0.00    +0.379 N 
ATOM      9  C   UNL     1       6.377   0.089  -0.705  0.00  0.00    -0.082 C 
ATOM     10  C   UNL     1       4.847   0.046  -0.739  0.00  0.00    -0.010 C 
ATOM     11  C   UNL     1       3.464   2.143  -4.030  0.00  0.00    +0.250 C 
ATOM     12  O   UNL     1       4.478   2.757  -4.301  0.00  0.00    -0.270 OA
ATOM     13  H   UNL     1       6.521  -1.788   0.078  0.00  0.00    -0.086 HD
ATOM     14  H   UNL     1       7.912  -1.251  -0.620  0.00  0.00    -0.086 HD
ENDROOT
BRANCH  11  15
ATOM     15  C   UNL     1       2.146   2.786  -4.194  0.00  0.00    +0.079 A 
ATOM     16  C   UNL     1       1.043   2.034  -4.606  0.00  0.00    +0.017 A 
ATOM     17  C   UNL     1      -0.185   2.641  -4.757  0.00  0.00    +0.001 A 
ATOM     18  C   UNL     1      -0.332   3.994  -4.501  0.00  0.00    +0.004 A 
ATOM     19  C   UNL     1       0.749   4.749  -4.092  0.00  0.00    +0.047 A 
ATOM     20  C   UNL     1       1.991   4.154  -3.930  0.00  0.00    +0.144 A 
BRANCH  20  21
ATOM     21  O   UNL     1       3.054   4.894  -3.524  0.00  0.00    -0.425 OA
BRANCH  21  22
ATOM     22  C   UNL     1       3.331   4.931  -2.210  0.00  0.00    +0.309 C 
ATOM     23  O   UNL     1       2.699   4.248  -1.440  0.00  0.00    -0.251 OA
ATOM     24  C   UNL     1       4.429   5.826  -1.696  0.00  0.00    +0.136 C 
ENDBRANCH  21  22
ENDBRANCH  20  21
ENDBRANCH  11  15
BRANCH   1  26
ATOM     25  N   UNL     1       1.963  -0.870   0.289  0.00  0.00    -0.312 N 
ATOM     26  C   UNL     1       2.263  -0.139  -0.803  0.00  0.00    +0.218 C 
ATOM     27  O   UNL     1       2.055   1.056  -0.808  0.00  0.00    -0.275 OA
ATOM     28  H   UNL     1       2.130  -1.825   0.293  0.00  0.00    +0.149 HD
BRANCH  25  30
ATOM     29  C   UNL     1      -0.131  -0.117   1.303  0.00  0.00    +0.028 C 
ATOM     30  C   UNL     1       1.386  -0.222   1.469  0.00  0.00    +0.074 C 
BRANCH  30  31
ATOM     31  C   UNL     1       1.707  -1.051   2.715  0.00  0.00    +0.060 C 
BRANCH  31  32
ATOM     32  C   UNL     1       3.195  -1.051   2.948  0.00  0.00    -0.010 A 
ATOM     33  C   UNL     1       3.972  -2.084   2.458  0.00  0.00    +0.006 A 
ATOM     34  C   UNL     1       5.337  -2.085   2.672  0.00  0.00    +0.000 A 
ATOM     35  C   UNL     1       5.928  -1.053   3.377  0.00  0.00    +0.003 A 
ATOM     36  C   UNL     1       5.154  -0.019   3.867  0.00  0.00    +0.038 A 
ATOM     37  C   UNL     1       3.787  -0.014   3.649  0.00  0.00    +0.127 A 
ATOM     38  F   UNL     1       3.030   0.999   4.124  0.00  0.00    -0.205 F 
ENDBRANCH  31  32
ENDBRANCH  30  31
ENDBRANCH  25  30
ENDBRANCH   1  26
TORSDOF 7
