REMARK  Name = ZINC28387302
REMARK  8 active torsions:
REMARK  status: ('A' for Active; 'I' for Inactive)
REMARK    1  A    between atoms: C_1  and  C_2
REMARK    2  A    between atoms: C_2  and  C_4
REMARK    3  A    between atoms: C_2  and  S_17
REMARK    4  A    between atoms: N_6  and  C_7
REMARK    5  A    between atoms: C_10  and  N_14
REMARK    6  A    between atoms: S_17  and  C_18
REMARK    7  A    between atoms: N_28  and  C_29
REMARK    8  A    between atoms: C_29  and  C_30
REMARK                            x       y       z     vdW  Elec       q    Type
REMARK                         _______ _______ _______ _____ _____    ______ ____
ROOT
ATOM      1  C   UNL     1      -3.753  -2.715  -0.777  0.00  0.00    +0.029 C 
ATOM      2  C   UNL     1      -4.313  -1.749   0.269  0.00  0.00    +0.137 C 
ENDROOT
BRANCH   2   3
ATOM      3  C   UNL     1      -4.633  -2.507   1.532  0.00  0.00    +0.230 C 
ATOM      4  O   UNL     1      -3.861  -2.479   2.467  0.00  0.00    -0.274 OA
ATOM      5  N   UNL     1      -5.777  -3.214   1.622  0.00  0.00    -0.283 N 
ATOM      6  H   UNL     1      -6.511  -3.180   0.804  0.00  0.00    +0.155 HD
BRANCH   5   7
ATOM      7  C   UNL     1      -6.030  -3.993   2.757  0.00  0.00    +0.052 A 
ATOM      8  C   UNL     1      -5.598  -3.565   4.005  0.00  0.00    +0.027 A 
ATOM      9  C   UNL     1      -5.850  -4.336   5.124  0.00  0.00    +0.034 A 
ATOM     10  C   UNL     1      -6.531  -5.533   5.002  0.00  0.00    +0.128 A 
ATOM     11  C   UNL     1      -6.963  -5.963   3.761  0.00  0.00    +0.054 A 
ATOM     12  C   UNL     1      -6.720  -5.194   2.638  0.00  0.00    +0.064 A 
ATOM     13 CL   UNL     1      -7.268  -5.730   1.081  0.00  0.00    -0.082 Cl
BRANCH  10  14
ATOM     14  N   UNL     1      -6.799  -6.356   6.203  0.00  0.00    +0.056 N 
ATOM     15  O   UNL     1      -6.419  -5.979   7.296  0.00  0.00    -0.126 OA
ATOM     16  O   UNL     1      -7.399  -7.411   6.097  0.00  0.00    -0.126 OA
ENDBRANCH  10  14
ENDBRANCH   5   7
ENDBRANCH   2   3
BRANCH   2  17
ATOM     17  S   UNL     1      -3.085  -0.469   0.628  0.00  0.00    -0.075 S 
BRANCH  17  18
ATOM     18  C   UNL     1      -3.014   0.335  -0.938  0.00  0.00    +0.173 A 
ATOM     19  N   UNL     1      -3.774  -0.115  -1.906  0.00  0.00    -0.223 NA
ATOM     20  C   UNL     1      -3.770   0.452  -3.129  0.00  0.00    +0.079 A 
ATOM     21  C   UNL     1      -4.581  -0.028  -4.162  0.00  0.00    +0.028 A 
ATOM     22  C   UNL     1      -4.545   0.577  -5.387  0.00  0.00    +0.002 A 
ATOM     23  C   UNL     1      -3.713   1.664  -5.623  0.00  0.00    +0.001 A 
ATOM     24  C   UNL     1      -2.909   2.156  -4.633  0.00  0.00    +0.015 A 
ATOM     25  C   UNL     1      -2.925   1.558  -3.373  0.00  0.00    +0.065 A 
ATOM     26  C   UNL     1      -2.086   2.047  -2.271  0.00  0.00    +0.263 A 
ATOM     27  O   UNL     1      -1.341   2.999  -2.418  0.00  0.00    -0.267 OA
ATOM     28  N   UNL     1      -2.169   1.397  -1.087  0.00  0.00    -0.283 N 
BRANCH  28  29
ATOM     29  C   UNL     1      -1.350   1.840   0.045  0.00  0.00    +0.154 C 
BRANCH  29  30
ATOM     30  C   UNL     1      -0.032   1.109   0.027  0.00  0.00    -0.013 C 
ATOM     31  C   UNL     1       1.091   1.784   0.023  0.00  0.00    +0.005 C 
ENDBRANCH  29  30
ENDBRANCH  28  29
ENDBRANCH  17  18
ENDBRANCH   2  17
TORSDOF 7
