REMARK  Name = ZINC13030556
REMARK  8 active torsions:
REMARK  status: ('A' for Active; 'I' for Inactive)
REMARK    1  A    between atoms: C_1  and  C_2
REMARK    2  A    between atoms: N_5  and  C_8
REMARK    3  A    between atoms: C_8  and  C_9
REMARK    4  A    between atoms: N_14  and  S_15
REMARK    5  A    between atoms: S_15  and  C_18
REMARK    6  A    between atoms: C_20  and  C_26
REMARK    7  A    between atoms: C_23  and  O_24
REMARK    8  A    between atoms: O_24  and  C_25
REMARK                            x       y       z     vdW  Elec       q    Type
REMARK                         _______ _______ _______ _____ _____    ______ ____
ROOT
ATOM      1  C   UNL     1      -0.034  -4.388   2.671  0.00  0.00    +0.008 A 
ATOM      2  C   UNL     1      -0.690  -5.075   3.606  0.00  0.00    +0.068 A 
ATOM      3  S   UNL     1       0.576  -5.334   4.838  0.00  0.00    -0.057 S 
ATOM      4  C   UNL     1       1.909  -4.491   4.000  0.00  0.00    +0.191 A 
ATOM      5  N   UNL     1       1.284  -4.082   2.841  0.00  0.00    -0.338 N 
ATOM      6  N   UNL     1       3.150  -4.314   4.381  0.00  0.00    -0.103 NA
ATOM      7  H   UNL     1       1.770  -3.586   2.164  0.00  0.00    +0.167 HD
ENDROOT
BRANCH   6   8
ATOM      8  S   UNL     1       3.664  -4.918   5.835  0.00  0.00    +0.105 S 
ATOM      9  O   UNL     1       2.962  -4.202   6.843  0.00  0.00    -0.146 OA
ATOM     10  O   UNL     1       3.610  -6.334   5.729  0.00  0.00    -0.146 OA
BRANCH   8  11
ATOM     11  C   UNL     1       5.365  -4.490   6.005  0.00  0.00    +0.155 A 
ATOM     12  C   UNL     1       5.761  -3.633   7.007  0.00  0.00    +0.048 A 
ATOM     13  C   UNL     1       7.111  -3.294   7.141  0.00  0.00    +0.065 A 
ATOM     14  C   UNL     1       8.053  -3.828   6.256  0.00  0.00    +0.019 A 
ATOM     15  C   UNL     1       7.648  -4.684   5.258  0.00  0.00    +0.048 A 
ATOM     16  C   UNL     1       6.305  -5.023   5.131  0.00  0.00    +0.147 A 
BRANCH  13  17
ATOM     17  C   UNL     1       7.540  -2.377   8.211  0.00  0.00    +0.387 C 
ATOM     18  O   UNL     1       6.714  -1.910   8.984  0.00  0.00    -0.241 OA
ATOM     19  O   UNL     1       8.721  -2.082   8.326  0.00  0.00    -0.241 OA
ENDBRANCH  13  17
BRANCH  16  20
ATOM     20  O   UNL     1       5.911  -5.872   4.149  0.00  0.00    -0.493 OA
ATOM     21  C   UNL     1       6.929  -6.383   3.287  0.00  0.00    +0.277 C 
ENDBRANCH  16  20
ENDBRANCH   8  11
ENDBRANCH   6   8
BRANCH   1  22
ATOM     22  C   UNL     1      -0.750  -3.952   1.419  0.00  0.00    -0.024 C 
BRANCH  22  27
ATOM     23  C   UNL     1      -2.194   1.558   1.146  0.00  0.00    +0.007 C 
ATOM     24  C   UNL     1      -2.248   0.029   1.167  0.00  0.00    -0.018 C 
ATOM     25  C   UNL     1      -1.696  -0.484   2.499  0.00  0.00    -0.016 C 
ATOM     26  C   UNL     1      -1.678  -2.014   2.482  0.00  0.00    -0.078 C 
ATOM     27  N   UNL     1      -0.826  -2.485   1.383  0.00  0.00    +0.383 N 
ATOM     28  C   UNL     1      -1.389  -2.057   0.097  0.00  0.00    -0.078 C 
ATOM     29  C   UNL     1      -1.396  -0.528   0.023  0.00  0.00    -0.016 C 
ATOM     30  H   UNL     1       0.100  -2.100   1.489  0.00  0.00    -0.081 HD
ENDBRANCH  22  27
ENDBRANCH   1  22
TORSDOF 6
