REMARK  Name = ZINC04193165
REMARK  4 active torsions:
REMARK  status: ('A' for Active; 'I' for Inactive)
REMARK    1  A    between atoms: C_1  and  C_2
REMARK    2  A    between atoms: C_8  and  N_25
REMARK    3  A    between atoms: C_13  and  C_24
REMARK    4  A    between atoms: N_14  and  C_18
REMARK                            x       y       z     vdW  Elec       q    Type
REMARK                         _______ _______ _______ _____ _____    ______ ____
ROOT
ATOM      1  C   UNL     1      -6.742   1.664  -1.855  0.00  0.00    +0.015 C 
ATOM      2  C   UNL     1      -6.456   1.586  -0.354  0.00  0.00    +0.074 C 
ATOM      3  C   UNL     1      -4.983   1.212  -0.119  0.00  0.00    +0.114 C 
ATOM      4  C   UNL     1      -4.120   2.342  -0.635  0.00  0.00    +0.017 A 
ATOM      5  C   UNL     1      -2.810   2.075  -0.994  0.00  0.00    +0.041 A 
ATOM      6  C   UNL     1      -1.995   3.092  -1.451  0.00  0.00    +0.127 A 
ATOM      7  C   UNL     1      -2.487   4.381  -1.547  0.00  0.00    +0.036 A 
ATOM      8  C   UNL     1      -3.795   4.649  -1.200  0.00  0.00    +0.048 A 
ATOM      9  C   UNL     1      -4.621   3.627  -0.741  0.00  0.00    +0.128 A 
ATOM     10  O   UNL     1      -5.904   3.928  -0.413  0.00  0.00    -0.468 OA
ATOM     11  C   UNL     1      -6.675   2.960   0.294  0.00  0.00    +0.185 C 
ATOM     12  N   UNL     1      -6.276   2.902   1.698  0.00  0.00    -0.244 N 
ATOM     13  C   UNL     1      -5.399   1.993   2.151  0.00  0.00    +0.141 C 
ATOM     14  S   UNL     1      -5.068   1.931   3.829  0.00  0.00    -0.018 S 
ATOM     15  N   UNL     1      -4.772   1.128   1.335  0.00  0.00    -0.319 N 
ATOM     16  C   UNL     1      -8.157   3.327   0.203  0.00  0.00    +0.079 C 
ATOM     17  H   UNL     1      -4.182   0.452   1.703  0.00  0.00    +0.148 HD
ENDROOT
BRANCH  12  18
ATOM     18  C   UNL     1      -6.824   3.822   2.598  0.00  0.00    +0.039 A 
ATOM     19  C   UNL     1      -6.254   5.080   2.740  0.00  0.00    +0.023 A 
ATOM     20  C   UNL     1      -6.800   5.988   3.625  0.00  0.00    +0.002 A 
ATOM     21  C   UNL     1      -7.908   5.642   4.378  0.00  0.00    +0.000 A 
ATOM     22  C   UNL     1      -8.474   4.388   4.242  0.00  0.00    +0.002 A 
ATOM     23  C   UNL     1      -7.936   3.477   3.355  0.00  0.00    +0.023 A 
ENDBRANCH  12  18
BRANCH   6  24
ATOM     24  N   UNL     1      -0.594   2.803  -1.834  0.00  0.00    +0.056 N 
ATOM     25  O   UNL     1      -0.160   1.669  -1.745  0.00  0.00    -0.126 OA
ATOM     26  O   UNL     1       0.123   3.700  -2.242  0.00  0.00    -0.126 OA
ENDBRANCH   6  24
TORSDOF 2
