REMARK  Name = ZINC09158251
REMARK  5 active torsions:
REMARK  status: ('A' for Active; 'I' for Inactive)
REMARK    1  A    between atoms: C_1  and  C_2
REMARK    2  A    between atoms: C_9  and  N_32
REMARK    3  A    between atoms: C_10  and  C_30
REMARK    4  A    between atoms: N_18  and  C_21
REMARK    5  A    between atoms: C_21  and  C_22
REMARK                            x       y       z     vdW  Elec       q    Type
REMARK                         _______ _______ _______ _____ _____    ______ ____
ROOT
ATOM      1  C   UNL     1      -0.018   1.503   0.010  0.00  0.00    +0.068 C 
ATOM      2  C   UNL     1       0.002  -0.004   0.002  0.00  0.00    +0.068 A 
ATOM      3  C   UNL     1       0.008  -0.812  -1.126  0.00  0.00    +0.061 A 
ATOM      4  C   UNL     1       0.029  -2.117  -0.712  0.00  0.00    +0.223 A 
ATOM      5  N   UNL     1       0.035  -2.116   0.630  0.00  0.00    -0.246 N 
ATOM      6  H   UNL     1       0.048  -2.899   1.202  0.00  0.00    +0.192 HD
ATOM      7  N   UNL     1       0.023  -0.780   1.060  0.00  0.00    -0.176 NA
ATOM      8  O   UNL     1       0.041  -3.159  -1.581  0.00  0.00    -0.423 OA
ATOM      9  C   UNL     1       0.300  -2.897  -2.878  0.00  0.00    +0.201 C 
ATOM     10  C   UNL     1       0.296  -1.651  -3.408  0.00  0.00    +0.110 C 
ATOM     11  C   UNL     1      -0.006  -0.432  -2.580  0.00  0.00    +0.145 C 
ATOM     12  C   UNL     1      -1.312   0.181  -2.969  0.00  0.00    -0.001 A 
ATOM     13  C   UNL     1      -2.598  -0.316  -2.951  0.00  0.00    +0.007 A 
ATOM     14  C   UNL     1      -3.609   0.533  -3.387  0.00  0.00    +0.000 A 
ATOM     15  C   UNL     1      -3.335   1.815  -3.818  0.00  0.00    +0.002 A 
ATOM     16  C   UNL     1      -2.044   2.321  -3.840  0.00  0.00    +0.024 A 
ATOM     17  C   UNL     1      -1.020   1.479  -3.405  0.00  0.00    +0.041 A 
ATOM     18  N   UNL     1       0.340   1.719  -3.324  0.00  0.00    -0.265 N 
ATOM     19  C   UNL     1       1.015   0.650  -2.850  0.00  0.00    +0.241 C 
ATOM     20  O   UNL     1       2.213   0.573  -2.674  0.00  0.00    -0.274 OA
ENDROOT
BRANCH   9  21
ATOM     21  N   UNL     1       0.584  -3.953  -3.707  0.00  0.00    -0.328 N 
ATOM     22  H   UNL     1       0.594  -4.857  -3.356  0.00  0.00    +0.145 HD
ATOM     23  H   UNL     1       0.774  -3.796  -4.645  0.00  0.00    +0.145 HD
ENDBRANCH   9  21
BRANCH  10  24
ATOM     24  C   UNL     1       0.588  -1.489  -4.800  0.00  0.00    +0.102 C 
ATOM     25  N   UNL     1       0.820  -1.361  -5.905  0.00  0.00    -0.191 NA
ENDBRANCH  10  24
BRANCH  18  26
ATOM     26  C   UNL     1       0.973   2.984  -3.705  0.00  0.00    +0.150 C 
BRANCH  26  27
ATOM     27  C   UNL     1       1.025   3.901  -2.511  0.00  0.00    -0.011 A 
ATOM     28  C   UNL     1       0.083   4.903  -2.367  0.00  0.00    +0.008 A 
ATOM     29  C   UNL     1       0.130   5.744  -1.272  0.00  0.00    +0.020 A 
ATOM     30  C   UNL     1       1.119   5.584  -0.318  0.00  0.00    +0.042 A 
ATOM     31  C   UNL     1       2.061   4.581  -0.460  0.00  0.00    +0.040 A 
ATOM     32  C   UNL     1       2.011   3.736  -1.555  0.00  0.00    +0.047 A 
ATOM     33 CL   UNL     1       3.189   2.474  -1.732  0.00  0.00    -0.083 Cl
ATOM     34 CL   UNL     1       1.178   6.641   1.058  0.00  0.00    -0.083 Cl
ENDBRANCH  26  27
ENDBRANCH  18  26
TORSDOF 4
