REMARK  Name = ZINC09199659
REMARK  5 active torsions:
REMARK  status: ('A' for Active; 'I' for Inactive)
REMARK    1  A    between atoms: C_1  and  N_2
REMARK    2  A    between atoms: N_2  and  C_3
REMARK    3  A    between atoms: N_2  and  C_16
REMARK    4  A    between atoms: C_3  and  C_4
REMARK    5  A    between atoms: C_9  and  N_10
REMARK                            x       y       z     vdW  Elec       q    Type
REMARK                         _______ _______ _______ _____ _____    ______ ____
ROOT
ATOM      1  C   UNL     1       1.645  -0.708  -0.315  0.00  0.00    +0.074 A 
ATOM      2  C   UNL     1       0.558   0.170  -0.109  0.00  0.00    +0.158 A 
ATOM      3  N   UNL     1       0.714   1.456  -0.248  0.00  0.00    -0.167 NA
ATOM      4  N   UNL     1       1.954   1.998  -0.602  0.00  0.00    -0.161 N 
ATOM      5  C   UNL     1       3.018   1.198  -0.809  0.00  0.00    +0.295 A 
ATOM      6  O   UNL     1       4.097   1.678  -1.119  0.00  0.00    -0.264 OA
ATOM      7  C   UNL     1       2.878  -0.191  -0.666  0.00  0.00    +0.130 A 
ATOM      8 CL   UNL     1       4.234  -1.244  -0.926  0.00  0.00    -0.076 Cl
ATOM      9  C   UNL     1       2.089   3.373  -0.743  0.00  0.00    +0.233 A 
ATOM     10  N   UNL     1       1.086   4.282  -0.566  0.00  0.00    -0.322 N 
ATOM     11  H   UNL     1       0.139   4.078  -0.318  0.00  0.00    +0.169 HD
ATOM     12  C   UNL     1       1.624   5.535  -0.793  0.00  0.00    +0.068 A 
ATOM     13  C   UNL     1       1.110   6.824  -0.763  0.00  0.00    +0.028 A 
ATOM     14  C   UNL     1       1.932   7.893  -1.054  0.00  0.00    +0.002 A 
ATOM     15  C   UNL     1       3.266   7.688  -1.375  0.00  0.00    +0.002 A 
ATOM     16  C   UNL     1       3.788   6.426  -1.409  0.00  0.00    +0.030 A 
ATOM     17  C   UNL     1       2.975   5.327  -1.118  0.00  0.00    +0.091 A 
ATOM     18  N   UNL     1       3.195   3.989  -1.070  0.00  0.00    -0.211 NA
ENDROOT
BRANCH   1  20
ATOM     19  C   UNL     1       1.135  -2.415   1.221  0.00  0.00    +0.129 C 
ATOM     20  N   UNL     1       1.477  -2.075  -0.166  0.00  0.00    -0.326 N 
BRANCH  20  21
ATOM     21  C   UNL     1       0.464  -2.585  -1.099  0.00  0.00    +0.141 C 
BRANCH  21  22
ATOM     22  C   UNL     1       0.601  -4.081  -1.221  0.00  0.00    -0.009 A 
ATOM     23  C   UNL     1       1.657  -4.730  -0.611  0.00  0.00    +0.007 A 
ATOM     24  C   UNL     1       1.783  -6.103  -0.722  0.00  0.00    +0.000 A 
ATOM     25  C   UNL     1       0.854  -6.830  -1.443  0.00  0.00    +0.002 A 
ATOM     26  C   UNL     1      -0.203  -6.187  -2.056  0.00  0.00    +0.023 A 
ATOM     27  C   UNL     1      -0.336  -4.809  -1.943  0.00  0.00    +0.034 A 
BRANCH  27  28
ATOM     28  N   UNL     1      -1.407  -4.156  -2.557  0.00  0.00    -0.330 N 
ATOM     29  C   UNL     1      -2.689  -4.614  -2.004  0.00  0.00    +0.105 C 
ATOM     30  C   UNL     1      -3.827  -3.777  -2.593  0.00  0.00    +0.019 C 
ATOM     31  C   UNL     1      -3.826  -3.923  -4.117  0.00  0.00    +0.003 C 
ATOM     32  C   UNL     1      -2.464  -3.486  -4.663  0.00  0.00    +0.019 C 
ATOM     33  C   UNL     1      -1.365  -4.330  -4.014  0.00  0.00    +0.105 C 
ENDBRANCH  27  28
ENDBRANCH  21  22
ENDBRANCH  20  21
ENDBRANCH   1  20
TORSDOF 4
