REMARK  Name = ZINC09971788
REMARK  9 active torsions:
REMARK  status: ('A' for Active; 'I' for Inactive)
REMARK    1  A    between atoms: C_1  and  C_2
REMARK    2  A    between atoms: C_2  and  C_3
REMARK    3  A    between atoms: C_2  and  C_4
REMARK    4  A    between atoms: C_4  and  N_5
REMARK    5  A    between atoms: N_5  and  C_6
REMARK    6  A    between atoms: C_8  and  N_15
REMARK    7  A    between atoms: C_11  and  N_12
REMARK    8  A    between atoms: N_18  and  S_21
REMARK    9  A    between atoms: S_21  and  C_24
REMARK                            x       y       z     vdW  Elec       q    Type
REMARK                         _______ _______ _______ _____ _____    ______ ____
ROOT
ATOM      1  N   UNL     1       0.062  -4.172  -0.046  0.00  0.00    -0.327 N 
ATOM      2  C   UNL     1      -0.594  -4.727   1.145  0.00  0.00    +0.122 C 
ATOM      3  C   UNL     1      -0.709  -6.248   0.998  0.00  0.00    +0.128 C 
ATOM      4  N   UNL     1       0.627  -6.792   0.714  0.00  0.00    -0.174 NA
ATOM      5  C   UNL     1       1.405  -6.193  -0.381  0.00  0.00    +0.128 C 
ATOM      6  C   UNL     1       1.437  -4.674  -0.180  0.00  0.00    +0.122 C 
ENDROOT
BRANCH   1   9
ATOM      7  C   UNL     1      -1.186  -0.715   0.120  0.00  0.00    +0.059 A 
ATOM      8  C   UNL     1      -1.168  -2.103   0.095  0.00  0.00    +0.048 A 
ATOM      9  C   UNL     1       0.039  -2.776  -0.025  0.00  0.00    +0.032 A 
ATOM     10  C   UNL     1       1.226  -2.058  -0.125  0.00  0.00    +0.025 A 
ATOM     11  C   UNL     1       1.204  -0.677  -0.105  0.00  0.00    +0.036 A 
ATOM     12  C   UNL     1       0.003  -0.004   0.014  0.00  0.00    +0.147 A 
BRANCH  12  13
ATOM     13  N   UNL     1      -0.015   1.476   0.035  0.00  0.00    +0.058 N 
ATOM     14  O   UNL     1       1.031   2.098   0.061  0.00  0.00    -0.126 OA
ATOM     15  O   UNL     1      -1.078   2.071   0.021  0.00  0.00    -0.126 OA
ENDBRANCH  12  13
BRANCH   7  16
ATOM     16  N   UNL     1      -2.399  -0.034   0.247  0.00  0.00    -0.342 N 
ATOM     17  H   UNL     1      -2.420   0.934   0.184  0.00  0.00    +0.146 HD
BRANCH  16  18
ATOM     18  C   UNL     1      -3.638  -0.780   0.476  0.00  0.00    +0.104 C 
BRANCH  18  20
ATOM     19  C   UNL     1      -6.120  -0.588   0.691  0.00  0.00    +0.009 C 
ATOM     20  C   UNL     1      -4.811   0.197   0.577  0.00  0.00    -0.000 C 
ATOM     21  C   UNL     1      -4.635   1.078   1.815  0.00  0.00    +0.009 C 
ENDBRANCH  18  20
ENDBRANCH  16  18
ENDBRANCH   7  16
ENDBRANCH   1   9
BRANCH   4  22
ATOM     22  S   UNL     1       1.240  -8.048   1.604  0.00  0.00    +0.061 S 
ATOM     23  O   UNL     1       0.126  -8.742   2.148  0.00  0.00    -0.153 OA
ATOM     24  O   UNL     1       2.212  -8.688   0.787  0.00  0.00    -0.153 OA
BRANCH  22  25
ATOM     25  C   UNL     1       2.110  -7.346   2.965  0.00  0.00    +0.106 A 
ATOM     26  C   UNL     1       3.455  -7.049   2.847  0.00  0.00    +0.030 A 
ATOM     27  C   UNL     1       4.137  -6.493   3.913  0.00  0.00    +0.022 A 
ATOM     28  C   UNL     1       3.476  -6.244   5.102  0.00  0.00    +0.041 A 
ATOM     29  C   UNL     1       2.131  -6.546   5.222  0.00  0.00    +0.022 A 
ATOM     30  C   UNL     1       1.449  -7.096   4.154  0.00  0.00    +0.030 A 
ATOM     31 CL   UNL     1       4.333  -5.551   6.444  0.00  0.00    -0.084 Cl
ENDBRANCH  22  25
ENDBRANCH   4  22
TORSDOF 7
