REMARK  Name = ZINC59460797
REMARK  8 active torsions:
REMARK  status: ('A' for Active; 'I' for Inactive)
REMARK    1  A    between atoms: C_4  and  O_33
REMARK    2  A    between atoms: C_5  and  C_7
REMARK    3  A    between atoms: N_9  and  N_10
REMARK    4  A    between atoms: C_11  and  C_12
REMARK    5  A    between atoms: C_11  and  C_24
REMARK    6  A    between atoms: C_12  and  S_13
REMARK    7  A    between atoms: S_13  and  C_14
REMARK    8  A    between atoms: C_27  and  N_30
REMARK                            x       y       z     vdW  Elec       q    Type
REMARK                         _______ _______ _______ _____ _____    ______ ____
ROOT
ATOM      1  N   UNL     1       0.029  -4.411  -0.543  0.00  0.00    -0.183 NA
ATOM      2  C   UNL     1      -0.985  -4.925   0.082  0.00  0.00    +0.077 C 
ENDROOT
BRANCH   2   3
ATOM      3  C   UNL     1      -2.278  -4.216   0.099  0.00  0.00    -0.001 A 
ATOM      4  C   UNL     1      -2.708  -3.514  -1.030  0.00  0.00    +0.012 A 
ATOM      5  C   UNL     1      -3.918  -2.853  -1.007  0.00  0.00    +0.033 A 
ATOM      6  C   UNL     1      -4.706  -2.884   0.131  0.00  0.00    +0.126 A 
ATOM      7  C   UNL     1      -4.286  -3.577   1.252  0.00  0.00    +0.033 A 
ATOM      8  C   UNL     1      -3.080  -4.247   1.242  0.00  0.00    +0.012 A 
BRANCH   6   9
ATOM      9  N   UNL     1      -6.003  -2.172   0.148  0.00  0.00    +0.056 N 
ATOM     10  O   UNL     1      -6.373  -1.565  -0.831  0.00  0.00    -0.126 OA
ATOM     11  O   UNL     1      -6.694  -2.197   1.140  0.00  0.00    -0.126 OA
ENDBRANCH   6   9
ENDBRANCH   2   3
BRANCH   1  14
ATOM     12  C   UNL     1       0.956  -2.617  -1.805  0.00  0.00    +0.267 C 
ATOM     13  O   UNL     1       1.932  -3.304  -2.039  0.00  0.00    -0.268 OA
ATOM     14  N   UNL     1      -0.050  -3.109  -1.054  0.00  0.00    -0.203 N 
ATOM     15  H   UNL     1      -0.828  -2.561  -0.868  0.00  0.00    +0.178 HD
BRANCH  12  20
ATOM     16  C   UNL     1      -0.320   0.825  -2.584  0.00  0.00    +0.001 A 
ATOM     17  C   UNL     1       0.714   1.331  -3.356  0.00  0.00    +0.004 A 
ATOM     18  C   UNL     1       1.826   0.559  -3.626  0.00  0.00    +0.046 A 
ATOM     19  C   UNL     1       1.916  -0.732  -3.125  0.00  0.00    +0.129 A 
ATOM     20  C   UNL     1       0.872  -1.247  -2.344  0.00  0.00    +0.080 A 
ATOM     21  C   UNL     1      -0.248  -0.454  -2.078  0.00  0.00    +0.017 A 
BRANCH  19  22
ATOM     22  O   UNL     1       3.008  -1.491  -3.390  0.00  0.00    -0.506 OA
ATOM     23  H   UNL     1       3.717  -1.401  -2.739  0.00  0.00    +0.292 HD
ENDBRANCH  19  22
ENDBRANCH  12  20
ENDBRANCH   1  14
BRANCH   2  24
ATOM     24  C   UNL     1      -0.841  -6.247   0.791  0.00  0.00    +0.135 C 
BRANCH  24  25
ATOM     25  S   UNL     1       0.854  -6.861   0.589  0.00  0.00    -0.082 S 
BRANCH  25  26
ATOM     26  C   UNL     1       0.860  -8.392   1.462  0.00  0.00    +0.168 A 
ATOM     27  N   UNL     1       1.940  -9.219   1.588  0.00  0.00    -0.333 N 
ATOM     28  H   UNL     1       2.825  -9.070   1.220  0.00  0.00    +0.168 HD
ATOM     29  C   UNL     1       1.536 -10.309   2.341  0.00  0.00    +0.067 A 
ATOM     30  C   UNL     1       2.173 -11.455   2.792  0.00  0.00    +0.028 A 
ATOM     31  C   UNL     1       1.475 -12.379   3.543  0.00  0.00    +0.002 A 
ATOM     32  C   UNL     1       0.139 -12.168   3.851  0.00  0.00    +0.002 A 
ATOM     33  C   UNL     1      -0.509 -11.036   3.412  0.00  0.00    +0.030 A 
ATOM     34  C   UNL     1       0.183 -10.091   2.650  0.00  0.00    +0.090 A 
ATOM     35  N   UNL     1      -0.169  -8.904   2.091  0.00  0.00    -0.222 NA
ENDBRANCH  25  26
ENDBRANCH  24  25
ENDBRANCH   2  24
TORSDOF 8
