REMARK  Name = ZINC32842704
REMARK  15 active torsions:
REMARK  status: ('A' for Active; 'I' for Inactive)
REMARK    1  A    between atoms: C_1  and  C_2
REMARK    2  A    between atoms: C_2  and  O_3
REMARK    3  A    between atoms: O_3  and  C_4
REMARK    4  A    between atoms: C_4  and  C_6
REMARK    5  A    between atoms: C_10  and  N_11
REMARK    6  A    between atoms: C_12  and  C_14
REMARK    7  A    between atoms: C_14  and  O_15
REMARK    8  A    between atoms: O_15  and  C_16
REMARK    9  A    between atoms: C_19  and  C_24
REMARK   10  A    between atoms: C_21  and  O_22
REMARK   11  A    between atoms: O_22  and  C_23
REMARK   12  A    between atoms: C_26  and  C_32
REMARK   13  A    between atoms: C_26  and  C_33
REMARK   14  A    between atoms: C_28  and  C_30
REMARK   15  A    between atoms: C_28  and  C_31
REMARK                            x       y       z     vdW  Elec       q    Type
REMARK                         _______ _______ _______ _____ _____    ______ ____
ROOT
ATOM      1  C   UNL     1       1.496  -2.371   2.467  0.00  0.00    +0.091 A 
ATOM      2  C   UNL     1       0.805  -2.681   3.698  0.00  0.00    -0.024 A 
ATOM      3  C   UNL     1       1.594  -3.182   4.678  0.00  0.00    -0.016 A 
ATOM      4  S   UNL     1       3.207  -3.242   3.955  0.00  0.00    -0.079 S 
ATOM      5  C   UNL     1       2.862  -2.627   2.431  0.00  0.00    +0.086 A 
ATOM      6  C   UNL     1       1.159  -3.574   6.050  0.00  0.00    -0.041 C 
ATOM      7  N   UNL     1      -0.296  -3.566   6.195  0.00  0.00    +0.389 N 
ATOM      8  C   UNL     1      -1.073  -3.623   4.965  0.00  0.00    -0.069 C 
ATOM      9  C   UNL     1      -0.679  -2.512   3.985  0.00  0.00    +0.024 C 
ATOM     10  C   UNL     1      -0.924  -4.984   4.280  0.00  0.00    -0.010 C 
ATOM     11  C   UNL     1      -2.560  -3.434   5.320  0.00  0.00    -0.010 C 
ATOM     12  C   UNL     1       1.760  -2.568   7.053  0.00  0.00    -0.005 C 
ATOM     13  C   UNL     1       1.718  -4.963   6.387  0.00  0.00    -0.005 C 
ATOM     14  H   UNL     1      -0.568  -4.352   6.789  0.00  0.00    -0.084 HD
ATOM     15  H   UNL     1      -0.566  -2.726   6.710  0.00  0.00    -0.084 HD
ENDROOT
BRANCH   5  16
ATOM     16  N   UNL     1       3.738  -2.421   1.376  0.00  0.00    -0.277 N 
ATOM     17  C   UNL     1       5.043  -2.728   1.515  0.00  0.00    +0.255 C 
ATOM     18  O   UNL     1       5.451  -3.183   2.562  0.00  0.00    -0.272 OA
ATOM     19  H   UNL     1       3.411  -2.057   0.539  0.00  0.00    +0.155 HD
BRANCH  17  20
ATOM     20  C   UNL     1       5.995  -2.504   0.368  0.00  0.00    +0.325 C 
BRANCH  20  21
ATOM     21  O   UNL     1       7.311  -2.902   0.757  0.00  0.00    -0.479 OA
BRANCH  21  22
ATOM     22  C   UNL     1       8.296  -2.764  -0.169  0.00  0.00    +0.163 A 
ATOM     23  C   UNL     1       8.000  -2.250  -1.423  0.00  0.00    +0.051 A 
ATOM     24  C   UNL     1       8.995  -2.108  -2.366  0.00  0.00    +0.022 A 
ATOM     25  C   UNL     1      10.306  -2.482  -2.059  0.00  0.00    +0.055 A 
ATOM     26  C   UNL     1      10.604  -2.999  -0.795  0.00  0.00    +0.068 A 
ATOM     27  C   UNL     1       9.602  -3.134   0.146  0.00  0.00    +0.163 A 
BRANCH  27  28
ATOM     28  O   UNL     1       9.890  -3.633   1.378  0.00  0.00    -0.491 OA
ATOM     29  C   UNL     1      11.250  -3.991   1.632  0.00  0.00    +0.277 C 
ENDBRANCH  27  28
BRANCH  25  30
ATOM     30  C   UNL     1      11.342  -2.335  -3.037  0.00  0.00    +0.099 C 
ATOM     31  N   UNL     1      12.164  -2.219  -3.813  0.00  0.00    -0.191 NA
ENDBRANCH  25  30
ENDBRANCH  21  22
ENDBRANCH  20  21
ENDBRANCH  17  20
ENDBRANCH   5  16
BRANCH   1  32
ATOM     32  C   UNL     1       0.801  -1.814   1.305  0.00  0.00    +0.342 C 
ATOM     33  O   UNL     1       0.321  -2.557   0.470  0.00  0.00    -0.245 OA
BRANCH  32  34
ATOM     34  O   UNL     1       0.693  -0.477   1.160  0.00  0.00    -0.461 OA
BRANCH  34  36
ATOM     35  C   UNL     1      -0.019   1.526   0.010  0.00  0.00    +0.048 C 
ATOM     36  C   UNL     1       0.002  -0.004   0.002  0.00  0.00    +0.229 C 
ENDBRANCH  34  36
ENDBRANCH  32  34
ENDBRANCH   1  32
TORSDOF 9
