REMARK  Name = ZINC09219773
REMARK  9 active torsions:
REMARK  status: ('A' for Active; 'I' for Inactive)
REMARK    1  A    between atoms: C_1  and  N_2
REMARK    2  A    between atoms: C_6  and  C_7
REMARK    3  A    between atoms: C_7  and  C_9
REMARK    4  A    between atoms: C_7  and  N_16
REMARK    5  A    between atoms: C_17  and  C_19
REMARK    6  A    between atoms: C_19  and  N_56
REMARK    7  A    between atoms: C_20  and  C_21
REMARK    8  A    between atoms: C_20  and  C_27
REMARK    9  A    between atoms: C_20  and  N_56
REMARK                            x       y       z     vdW  Elec       q    Type
REMARK                         _______ _______ _______ _____ _____    ______ ____
ROOT
ATOM      1  N   UNL     1       1.143   1.898   0.001  0.00  0.00    -0.303 N 
ATOM      2  C   UNL     1      -0.014   1.209   0.009  0.00  0.00    +0.197 C 
ATOM      3  O   UNL     1       0.002  -0.004   0.002  0.00  0.00    -0.278 OA
ATOM      4  H   UNL     1       1.130   2.868   0.007  0.00  0.00    +0.150 HD
ENDROOT
BRANCH   1   5
ATOM      5  C   UNL     1       2.422   1.183  -0.015  0.00  0.00    +0.169 C 
BRANCH   5   6
ATOM      6  C   UNL     1       3.495   2.058   0.580  0.00  0.00    -0.020 A 
ATOM      7  C   UNL     1       3.524   3.410   0.289  0.00  0.00    +0.009 A 
ATOM      8  C   UNL     1       4.504   4.215   0.839  0.00  0.00    +0.038 A 
ATOM      9  C   UNL     1       5.464   3.665   1.672  0.00  0.00    +0.123 A 
ATOM     10  C   UNL     1       5.437   2.310   1.958  0.00  0.00    +0.038 A 
ATOM     11  C   UNL     1       4.452   1.509   1.412  0.00  0.00    +0.009 A 
ATOM     12  F   UNL     1       6.426   4.449   2.204  0.00  0.00    -0.205 F 
ENDBRANCH   5   6
BRANCH   5  18
ATOM     13  C   UNL     1       3.504  -1.537  -1.030  0.00  0.00    +0.150 C 
ATOM     14  N   UNL     1       3.257  -0.355  -1.859  0.00  0.00    -0.336 N 
ATOM     15  C   UNL     1       3.457  -0.255  -3.210  0.00  0.00    +0.106 A 
ATOM     16  C   UNL     1       3.111   0.998  -3.563  0.00  0.00    +0.130 A 
ATOM     17  N   UNL     1       2.705   1.643  -2.459  0.00  0.00    -0.238 NA
ATOM     18  C   UNL     1       2.786   0.838  -1.435  0.00  0.00    +0.134 A 
ENDBRANCH   5  18
ENDBRANCH   1   5
BRANCH   2  19
ATOM     19  C   UNL     1      -1.330   1.944   0.019  0.00  0.00    +0.016 C 
BRANCH  19  20
ATOM     20  N   UNL     1      -2.432   0.964   0.019  0.00  0.00    +0.392 N 
ATOM     21  H   UNL     1      -2.358   0.371   0.854  0.00  0.00    -0.084 HD
ATOM     22  H   UNL     1      -2.366   0.380  -0.823  0.00  0.00    -0.084 HD
BRANCH  20  23
ATOM     23  C   UNL     1      -3.734   1.657   0.029  0.00  0.00    -0.009 C 
BRANCH  23  24
ATOM     24  C   UNL     1      -4.128   2.008  -1.383  0.00  0.00    -0.057 A 
ATOM     25  C   UNL     1      -3.883   1.116  -2.410  0.00  0.00    +0.002 A 
ATOM     26  C   UNL     1      -4.249   1.436  -3.705  0.00  0.00    +0.000 A 
ATOM     27  C   UNL     1      -4.850   2.652  -3.973  0.00  0.00    +0.000 A 
ATOM     28  C   UNL     1      -5.089   3.546  -2.946  0.00  0.00    +0.000 A 
ATOM     29  C   UNL     1      -4.728   3.224  -1.651  0.00  0.00    +0.002 A 
ENDBRANCH  23  24
BRANCH  23  30
ATOM     30  C   UNL     1      -4.774   0.747   0.629  0.00  0.00    -0.057 A 
ATOM     31  C   UNL     1      -4.772  -0.601   0.325  0.00  0.00    +0.002 A 
ATOM     32  C   UNL     1      -5.723  -1.437   0.879  0.00  0.00    +0.000 A 
ATOM     33  C   UNL     1      -6.683  -0.922   1.730  0.00  0.00    +0.000 A 
ATOM     34  C   UNL     1      -6.689   0.427   2.031  0.00  0.00    +0.000 A 
ATOM     35  C   UNL     1      -5.734   1.262   1.480  0.00  0.00    +0.002 A 
ENDBRANCH  23  30
ENDBRANCH  20  23
ENDBRANCH  19  20
ENDBRANCH   2  19
TORSDOF 8
