REMARK  Name = ZINC09244899
REMARK  8 active torsions:
REMARK  status: ('A' for Active; 'I' for Inactive)
REMARK    1  A    between atoms: C_1  and  C_2
REMARK    2  A    between atoms: C_2  and  C_3
REMARK    3  A    between atoms: C_2  and  N_4
REMARK    4  A    between atoms: C_8  and  C_10
REMARK    5  A    between atoms: C_10  and  O_11
REMARK    6  A    between atoms: O_11  and  C_12
REMARK    7  A    between atoms: C_12  and  C_14
REMARK    8  A    between atoms: C_27  and  C_28
REMARK                            x       y       z     vdW  Elec       q    Type
REMARK                         _______ _______ _______ _____ _____    ______ ____
ROOT
ATOM      1  C   UNL     1       2.388  -0.065   0.616  0.00  0.00    +0.073 A 
ATOM      2  C   UNL     1       2.379   1.372   0.346  0.00  0.00    +0.015 A 
ATOM      3  C   UNL     1       3.553   2.131   0.373  0.00  0.00    +0.011 A 
ATOM      4  C   UNL     1       3.497   3.469   0.114  0.00  0.00    +0.001 A 
ATOM      5  C   UNL     1       2.284   4.088  -0.177  0.00  0.00    +0.002 A 
ATOM      6  C   UNL     1       1.123   3.380  -0.211  0.00  0.00    +0.028 A 
ATOM      7  C   UNL     1       1.141   1.996   0.051  0.00  0.00    +0.072 A 
ATOM      8  N   UNL     1       0.021   1.277   0.024  0.00  0.00    -0.247 NA
ATOM      9  C   UNL     1      -0.004  -0.030   0.265  0.00  0.00    +0.072 A 
ATOM     10  C   UNL     1       1.173  -0.735   0.567  0.00  0.00    -0.007 A 
ATOM     11  C   UNL     1       0.852  -2.191   0.793  0.00  0.00    +0.043 C 
ATOM     12  C   UNL     1      -0.664  -2.333   0.601  0.00  0.00    +0.042 C 
ATOM     13  C   UNL     1      -1.160  -0.947   0.270  0.00  0.00    -0.021 C 
ATOM     14  C   UNL     1      -2.437  -0.606   0.023  0.00  0.00    +0.013 C 
ENDROOT
BRANCH  14  15
ATOM     15  C   UNL     1      -3.470  -1.651  -0.085  0.00  0.00    -0.025 A 
ATOM     16  C   UNL     1      -3.178  -2.867  -0.709  0.00  0.00    +0.008 A 
ATOM     17  C   UNL     1      -4.149  -3.842  -0.799  0.00  0.00    +0.001 A 
ATOM     18  C   UNL     1      -5.414  -3.614  -0.286  0.00  0.00    +0.000 A 
ATOM     19  C   UNL     1      -5.712  -2.410   0.329  0.00  0.00    +0.001 A 
ATOM     20  C   UNL     1      -4.750  -1.428   0.432  0.00  0.00    +0.008 A 
ENDBRANCH  14  15
BRANCH   1  21
ATOM     21  C   UNL     1       3.644  -0.778   0.930  0.00  0.00    +0.341 C 
ATOM     22  O   UNL     1       4.307  -1.263   0.036  0.00  0.00    -0.245 OA
BRANCH  21  23
ATOM     23  O   UNL     1       4.052  -0.891   2.209  0.00  0.00    -0.452 OA
BRANCH  23  24
ATOM     24  C   UNL     1       5.295  -1.605   2.443  0.00  0.00    +0.328 C 
BRANCH  24  29
ATOM     25  N   UNL     1       8.074  -2.877   6.154  0.00  0.00    -0.297 N 
ATOM     26  C   UNL     1       6.963  -2.264   5.699  0.00  0.00    +0.306 C 
ATOM     27  O   UNL     1       6.199  -1.732   6.479  0.00  0.00    -0.252 OA
ATOM     28  N   UNL     1       6.700  -2.242   4.377  0.00  0.00    -0.237 N 
ATOM     29  C   UNL     1       5.590  -1.630   3.921  0.00  0.00    +0.258 C 
ATOM     30  O   UNL     1       4.827  -1.099   4.700  0.00  0.00    -0.272 OA
ATOM     31  H   UNL     1       8.684  -3.302   5.531  0.00  0.00    +0.151 HD
ATOM     32  H   UNL     1       7.310  -2.667   3.754  0.00  0.00    +0.159 HD
BRANCH  25  34
ATOM     33  C   UNL     1       9.246  -4.106   7.914  0.00  0.00    +0.027 C 
ATOM     34  C   UNL     1       8.360  -2.901   7.591  0.00  0.00    +0.068 C 
ATOM     35  C   UNL     1       9.084  -1.613   7.988  0.00  0.00    +0.027 C 
ENDBRANCH  25  34
ENDBRANCH  24  29
ENDBRANCH  23  24
ENDBRANCH  21  23
ENDBRANCH   1  21
TORSDOF 6
