REMARK  Name = ZINC35926808
REMARK  6 active torsions:
REMARK  status: ('A' for Active; 'I' for Inactive)
REMARK    1  A    between atoms: C_4  and  C_7
REMARK    2  A    between atoms: C_7  and  N_8
REMARK    3  A    between atoms: N_11  and  C_14
REMARK    4  A    between atoms: C_14  and  C_15
REMARK    5  A    between atoms: N_26  and  S_29
REMARK    6  A    between atoms: S_29  and  C_32
REMARK                            x       y       z     vdW  Elec       q    Type
REMARK                         _______ _______ _______ _____ _____    ______ ____
ROOT
ATOM      1  C   UNL     1       6.850  -3.518   5.100  0.00  0.00    +0.034 A 
ATOM      2  C   UNL     1       7.945  -2.762   5.403  0.00  0.00    +0.091 A 
ATOM      3  C   UNL     1       9.225  -3.308   5.197  0.00  0.00    +0.253 A 
ATOM      4  O   UNL     1      10.226  -2.661   5.458  0.00  0.00    -0.268 OA
ATOM      5  N   UNL     1       9.325  -4.562   4.707  0.00  0.00    -0.295 N 
ATOM      6  H   UNL     1      10.198  -4.958   4.558  0.00  0.00    +0.172 HD
ATOM      7  C   UNL     1       8.197  -5.268   4.423  0.00  0.00    +0.198 A 
ATOM      8  N   UNL     1       7.001  -4.751   4.623  0.00  0.00    -0.223 NA
ATOM      9  N   UNL     1       8.306  -6.539   3.925  0.00  0.00    -0.299 N 
ATOM     10  C   UNL     1       9.620  -7.187   3.813  0.00  0.00    +0.125 C 
ATOM     11  C   UNL     1       9.574  -8.523   4.566  0.00  0.00    +0.128 C 
ATOM     12  N   UNL     1       8.379  -9.263   4.136  0.00  0.00    -0.174 NA
ATOM     13  C   UNL     1       7.065  -8.614   4.248  0.00  0.00    +0.128 C 
ATOM     14  C   UNL     1       7.111  -7.281   3.500  0.00  0.00    +0.125 C 
ENDROOT
BRANCH  12  15
ATOM     15  S   UNL     1       8.511 -10.800   3.534  0.00  0.00    +0.061 S 
ATOM     16  O   UNL     1       7.366 -11.018   2.722  0.00  0.00    -0.153 OA
ATOM     17  O   UNL     1       9.835 -10.928   3.034  0.00  0.00    -0.153 OA
BRANCH  15  18
ATOM     18  C   UNL     1       8.379 -11.907   4.899  0.00  0.00    +0.105 A 
ATOM     19  C   UNL     1       9.514 -12.293   5.588  0.00  0.00    +0.028 A 
ATOM     20  C   UNL     1       9.410 -13.161   6.659  0.00  0.00    +0.002 A 
ATOM     21  C   UNL     1       8.171 -13.643   7.041  0.00  0.00    +0.000 A 
ATOM     22  C   UNL     1       7.037 -13.256   6.352  0.00  0.00    +0.002 A 
ATOM     23  C   UNL     1       7.140 -12.384   5.284  0.00  0.00    +0.028 A 
ENDBRANCH  15  18
ENDBRANCH  12  15
BRANCH   1  24
ATOM     24  C   UNL     1       5.468  -2.957   5.311  0.00  0.00    -0.022 C 
BRANCH  24  28
ATOM     25  N   UNL     1       3.403  -1.291   2.041  0.00  0.00    -0.302 NA
ATOM     26  C   UNL     1       2.692  -2.266   2.880  0.00  0.00    +0.066 C 
ATOM     27  C   UNL     1       3.403  -2.389   4.229  0.00  0.00    -0.063 C 
ATOM     28  N   UNL     1       4.790  -2.822   4.014  0.00  0.00    +0.385 N 
ATOM     29  C   UNL     1       5.495  -1.826   3.196  0.00  0.00    -0.063 C 
ATOM     30  C   UNL     1       4.801  -1.699   1.838  0.00  0.00    +0.066 C 
ATOM     31  H   UNL     1       4.795  -3.712   3.539  0.00  0.00    -0.081 HD
BRANCH  25  32
ATOM     32  C   UNL     1       2.717  -1.103   0.756  0.00  0.00    +0.119 C 
BRANCH  32  36
ATOM     33  C   UNL     1      -1.081   0.734   1.422  0.00  0.00    +0.000 A 
ATOM     34  C   UNL     1       0.037   1.517   1.205  0.00  0.00    +0.000 A 
ATOM     35  C   UNL     1       1.266   0.923   0.990  0.00  0.00    +0.005 A 
ATOM     36  C   UNL     1       1.378  -0.455   0.992  0.00  0.00    -0.033 A 
ATOM     37  C   UNL     1       0.260  -1.238   1.210  0.00  0.00    +0.005 A 
ATOM     38  C   UNL     1      -0.970  -0.644   1.424  0.00  0.00    +0.000 A 
ENDBRANCH  32  36
ENDBRANCH  25  32
ENDBRANCH  24  28
ENDBRANCH   1  24
TORSDOF 6
