REMARK  Name = ZINC32124992
REMARK  9 active torsions:
REMARK  status: ('A' for Active; 'I' for Inactive)
REMARK    1  A    between atoms: C_1  and  C_2
REMARK    2  A    between atoms: C_5  and  N_9
REMARK    3  A    between atoms: C_6  and  C_8
REMARK    4  A    between atoms: C_15  and  C_16
REMARK    5  A    between atoms: C_19  and  S_25
REMARK    6  A    between atoms: C_20  and  N_22
REMARK    7  A    between atoms: S_25  and  C_26
REMARK    8  A    between atoms: C_26  and  C_27
REMARK    9  A    between atoms: C_27  and  O_28
REMARK                            x       y       z     vdW  Elec       q    Type
REMARK                         _______ _______ _______ _____ _____    ______ ____
ROOT
ATOM      1  N   UNL     1      -0.737  -4.076  -0.051  0.00  0.00    -0.225 NA
ATOM      2  C   UNL     1      -0.692  -4.748  -1.189  0.00  0.00    +0.166 C 
ATOM      3  N   UNL     1      -0.863  -4.252  -2.454  0.00  0.00    -0.260 N 
ATOM      4  C   UNL     1      -0.778  -5.104  -3.470  0.00  0.00    +0.256 C 
ATOM      5  O   UNL     1      -0.913  -4.766  -4.630  0.00  0.00    -0.269 OA
ATOM      6  C   UNL     1      -0.502  -6.502  -3.063  0.00  0.00    +0.078 C 
ATOM      7  C   UNL     1      -0.353  -7.638  -3.875  0.00  0.00    +0.028 C 
ATOM      8  S   UNL     1      -0.406  -6.388  -1.391  0.00  0.00    -0.049 S 
ATOM      9  H   UNL     1      -1.041  -3.310  -2.603  0.00  0.00    +0.157 HD
ENDROOT
BRANCH   1  14
ATOM     10  C   UNL     1      -2.194   1.347  -0.049  0.00  0.00    +0.044 C 
ATOM     11  C   UNL     1      -1.803  -0.108  -0.049  0.00  0.00    -0.050 A 
ATOM     12  C   UNL     1      -2.604  -1.036  -0.701  0.00  0.00    +0.005 A 
ATOM     13  C   UNL     1      -2.260  -2.357  -0.709  0.00  0.00    +0.028 A 
ATOM     14  C   UNL     1      -1.086  -2.778  -0.051  0.00  0.00    +0.069 A 
ATOM     15  C   UNL     1      -0.281  -1.827   0.609  0.00  0.00    -0.025 A 
ATOM     16  C   UNL     1      -0.643  -0.510   0.598  0.00  0.00    +0.008 A 
ATOM     17  C   UNL     1       0.977  -2.260   1.317  0.00  0.00    +0.046 C 
ENDBRANCH   1  14
BRANCH   7  18
ATOM     18  C   UNL     1      -0.302  -7.502  -5.269  0.00  0.00    -0.022 A 
ATOM     19  C   UNL     1       0.369  -6.398  -5.852  0.00  0.00    +0.009 A 
ATOM     20  C   UNL     1       0.414  -6.272  -7.202  0.00  0.00    +0.017 A 
ATOM     21  C   UNL     1      -0.203  -7.232  -8.022  0.00  0.00    +0.038 A 
ATOM     22  C   UNL     1      -0.871  -8.329  -7.450  0.00  0.00    +0.140 A 
ATOM     23  C   UNL     1      -0.917  -8.470  -6.101  0.00  0.00    +0.041 A 
BRANCH  22  24
ATOM     24  N   UNL     1      -1.519  -9.335  -8.320  0.00  0.00    +0.058 N 
ATOM     25  O   UNL     1      -2.145 -10.363  -7.786  0.00  0.00    -0.126 OA
ATOM     26  O   UNL     1      -1.470  -9.203  -9.630  0.00  0.00    -0.126 OA
ENDBRANCH  22  24
BRANCH  21  27
ATOM     27  S   UNL     1      -0.140  -7.060  -9.774  0.00  0.00    -0.121 S 
BRANCH  27  28
ATOM     28  C   UNL     1       0.803  -5.532 -10.032  0.00  0.00    +0.102 C 
BRANCH  28  29
ATOM     29  C   UNL     1       0.934  -5.261 -11.532  0.00  0.00    +0.167 C 
BRANCH  29  30
ATOM     30  O   UNL     1       1.677  -4.057 -11.735  0.00  0.00    -0.394 OA
ATOM     31  H   UNL     1       1.800  -3.822 -12.665  0.00  0.00    +0.209 HD
ENDBRANCH  29  30
ENDBRANCH  28  29
ENDBRANCH  27  28
ENDBRANCH  21  27
ENDBRANCH   7  18
TORSDOF 7
