REMARK  Name = ZINC14474024
REMARK  4 active torsions:
REMARK  status: ('A' for Active; 'I' for Inactive)
REMARK    1  A    between atoms: C_4  and  O_31
REMARK    2  A    between atoms: C_5  and  C_7
REMARK    3  A    between atoms: C_18  and  S_23
REMARK    4  A    between atoms: S_23  and  N_26
REMARK                            x       y       z     vdW  Elec       q    Type
REMARK                         _______ _______ _______ _____ _____    ______ ____
ROOT
ATOM      1  C   UNL     1       1.190   1.506   2.506  0.00  0.00    +0.108 C 
ATOM      2  C   UNL     1       0.172   2.580   2.846  0.00  0.00    +0.029 C 
ATOM      3  C   UNL     1      -1.067   2.680   1.947  0.00  0.00    +0.033 C 
ATOM      4  C   UNL     1      -2.111   3.227   2.922  0.00  0.00    -0.030 C 
ATOM      5  C   UNL     1      -1.791   2.890   4.165  0.00  0.00    -0.023 C 
ATOM      6  C   UNL     1      -0.528   2.091   4.149  0.00  0.00    +0.049 C 
ATOM      7  C   UNL     1       0.467   2.133   5.242  0.00  0.00    -0.018 A 
ATOM      8  C   UNL     1       0.130   2.457   6.538  0.00  0.00    +0.034 A 
ATOM      9  C   UNL     1       1.095   2.469   7.528  0.00  0.00    +0.106 A 
ATOM     10  C   UNL     1       2.405   2.153   7.220  0.00  0.00    +0.030 A 
ATOM     11  C   UNL     1       2.755   1.833   5.924  0.00  0.00    +0.025 A 
ATOM     12  C   UNL     1       1.794   1.825   4.920  0.00  0.00    +0.031 A 
ATOM     13  N   UNL     1       2.178   1.531   3.606  0.00  0.00    -0.336 N 
ATOM     14  H   UNL     1       3.110   1.340   3.414  0.00  0.00    +0.147 HD
ENDROOT
BRANCH   1  19
ATOM     15  C   UNL     1       3.734   2.692  -0.019  0.00  0.00    +0.001 A 
ATOM     16  C   UNL     1       3.096   2.409  -1.213  0.00  0.00    +0.004 A 
ATOM     17  C   UNL     1       1.842   1.830  -1.207  0.00  0.00    +0.046 A 
ATOM     18  C   UNL     1       1.223   1.532  -0.001  0.00  0.00    +0.122 A 
ATOM     19  C   UNL     1       1.863   1.822   1.195  0.00  0.00    +0.014 A 
ATOM     20  C   UNL     1       3.119   2.396   1.183  0.00  0.00    +0.009 A 
BRANCH  18  21
ATOM     21  O   UNL     1      -0.011   0.963   0.007  0.00  0.00    -0.506 OA
ATOM     22  H   UNL     1       0.002  -0.004   0.002  0.00  0.00    +0.292 HD
ENDBRANCH  18  21
ENDBRANCH   1  19
BRANCH   9  23
ATOM     23  S   UNL     1       0.655   2.885   9.183  0.00  0.00    +0.061 S 
ATOM     24  O   UNL     1      -0.733   2.609   9.316  0.00  0.00    -0.153 OA
ATOM     25  O   UNL     1       1.634   2.292  10.025  0.00  0.00    -0.153 OA
BRANCH  23  26
ATOM     26  N   UNL     1       0.828   4.525   9.338  0.00  0.00    -0.177 NA
ATOM     27  C   UNL     1       2.050   5.221   9.764  0.00  0.00    +0.109 C 
ATOM     28  C   UNL     1       1.735   6.731   9.784  0.00  0.00    +0.018 C 
ATOM     29  C   UNL     1       0.190   6.760   9.922  0.00  0.00    +0.018 C 
ATOM     30  C   UNL     1      -0.221   5.528   9.077  0.00  0.00    +0.109 C 
ENDBRANCH  23  26
ENDBRANCH   9  23
TORSDOF 4
