REMARK  Name = ZINC39365016
REMARK  6 active torsions:
REMARK  status: ('A' for Active; 'I' for Inactive)
REMARK    1  A    between atoms: C_1  and  C_2
REMARK    2  A    between atoms: C_16  and  C_19
REMARK    3  A    between atoms: N_17  and  C_18
REMARK    4  A    between atoms: N_21  and  C_22
REMARK    5  A    between atoms: C_22  and  C_23
REMARK    6  A    between atoms: C_23  and  C_24
REMARK                            x       y       z     vdW  Elec       q    Type
REMARK                         _______ _______ _______ _____ _____    ______ ____
ROOT
ATOM      1  C   UNL     1      -0.018   1.503   0.010  0.00  0.00    +0.047 C 
ATOM      2  C   UNL     1       0.002  -0.004   0.002  0.00  0.00    -0.010 C 
ATOM      3  C   UNL     1       0.006  -0.675  -1.174  0.00  0.00    +0.008 C 
ATOM      4  C   UNL     1       0.026  -2.083  -1.172  0.00  0.00    +0.016 C 
ATOM      5  C   UNL     1       0.040  -2.758  -0.010  0.00  0.00    +0.085 C 
ATOM      6  N   UNL     1       0.034  -2.099   1.200  0.00  0.00    -0.231 N 
ATOM      7  C   UNL     1       0.024  -0.724   1.231  0.00  0.00    +0.132 C 
ATOM      8  N   UNL     1       0.027  -0.014   2.334  0.00  0.00    -0.245 NA
ATOM      9  C   UNL     1       0.047  -0.645   3.657  0.00  0.00    +0.209 C 
ATOM     10  C   UNL     1       0.041  -2.195   3.674  0.00  0.00    +0.143 C 
ATOM     11  C   UNL     1       0.046  -2.860   2.315  0.00  0.00    +0.235 C 
ATOM     12  O   UNL     1       0.060  -4.069   2.228  0.00  0.00    -0.274 OA
ATOM     13  C   UNL     1       1.356  -2.559   4.322  0.00  0.00    +0.018 C 
ATOM     14  C   UNL     1       2.012  -1.448   4.630  0.00  0.00    +0.090 C 
ATOM     15  N   UNL     1       1.320  -0.274   4.289  0.00  0.00    -0.307 N 
ATOM     16  C   UNL     1       1.786   1.097   4.513  0.00  0.00    +0.131 C 
ENDROOT
BRANCH  14  17
ATOM     17  C   UNL     1       3.337  -1.442   5.280  0.00  0.00    +0.258 C 
ATOM     18  O   UNL     1       3.884  -0.387   5.537  0.00  0.00    -0.269 OA
ATOM     19  N   UNL     1       3.941  -2.607   5.589  0.00  0.00    -0.310 N 
ATOM     20  H   UNL     1       3.504  -3.449   5.384  0.00  0.00    +0.149 HD
BRANCH  19  21
ATOM     21  C   UNL     1       5.256  -2.602   6.233  0.00  0.00    +0.109 C 
BRANCH  21  22
ATOM     22  C   UNL     1       5.713  -4.042   6.473  0.00  0.00    +0.056 C 
BRANCH  22  23
ATOM     23  C   UNL     1       7.066  -4.037   7.136  0.00  0.00    -0.021 A 
ATOM     24  C   UNL     1       7.332  -3.919   8.572  0.00  0.00    +0.003 A 
ATOM     25  C   UNL     1       6.523  -3.787   9.701  0.00  0.00    +0.010 A 
ATOM     26  C   UNL     1       7.094  -3.700  10.939  0.00  0.00    +0.001 A 
ATOM     27  C   UNL     1       8.474  -3.741  11.083  0.00  0.00    +0.002 A 
ATOM     28  C   UNL     1       9.292  -3.872   9.982  0.00  0.00    +0.026 A 
ATOM     29  C   UNL     1       8.732  -3.962   8.712  0.00  0.00    +0.047 A 
ATOM     30  N   UNL     1       9.263  -4.096   7.449  0.00  0.00    -0.360 N 
ATOM     31  C   UNL     1       8.256  -4.144   6.524  0.00  0.00    +0.087 A 
ATOM     32  H   UNL     1      10.209  -4.152   7.245  0.00  0.00    +0.165 HD
ENDBRANCH  22  23
ENDBRANCH  21  22
ENDBRANCH  19  21
ENDBRANCH  14  17
TORSDOF 4
