REMARK  Name = ZINC15588340
REMARK  10 active torsions:
REMARK  status: ('A' for Active; 'I' for Inactive)
REMARK    1  A    between atoms: C_1  and  C_2
REMARK    2  A    between atoms: C_2  and  C_3
REMARK    3  A    between atoms: C_4  and  C_12
REMARK    4  A    between atoms: C_13  and  C_14
REMARK    5  A    between atoms: N_16  and  C_17
REMARK    6  A    between atoms: N_16  and  C_19
REMARK    7  A    between atoms: C_17  and  C_18
REMARK    8  A    between atoms: C_20  and  N_35
REMARK    9  A    between atoms: N_21  and  C_28
REMARK   10  A    between atoms: C_28  and  C_29
REMARK                            x       y       z     vdW  Elec       q    Type
REMARK                         _______ _______ _______ _____ _____    ______ ____
ROOT
ATOM      1  C   UNL     1       3.349   2.721   1.129  0.00  0.00    +0.140 A 
ATOM      2  C   UNL     1       3.662   1.663   0.299  0.00  0.00    +0.128 A 
ATOM      3  N   UNL     1       2.939   1.481  -0.857  0.00  0.00    -0.276 N 
ATOM      4  C   UNL     1       1.932   2.317  -1.170  0.00  0.00    +0.331 A 
ATOM      5  O   UNL     1       1.302   2.136  -2.194  0.00  0.00    -0.246 OA
ATOM      6  N   UNL     1       1.611   3.350  -0.371  0.00  0.00    -0.273 N 
ATOM      7  H   UNL     1       0.858   3.957  -0.626  0.00  0.00    +0.173 HD
ATOM      8  C   UNL     1       2.291   3.576   0.770  0.00  0.00    +0.277 A 
ATOM      9  O   UNL     1       1.990   4.515   1.488  0.00  0.00    -0.266 OA
ENDROOT
BRANCH   1  12
ATOM     10  C   UNL     1       3.467   2.802   3.513  0.00  0.00    +0.244 C 
ATOM     11  O   UNL     1       2.317   2.404   3.570  0.00  0.00    -0.270 OA
ATOM     12  N   UNL     1       4.075   2.937   2.318  0.00  0.00    -0.261 N 
BRANCH  10  14
ATOM     13  C   UNL     1       3.553   2.986   5.903  0.00  0.00    +0.017 C 
ATOM     14  C   UNL     1       4.164   3.122   4.704  0.00  0.00    +0.068 C 
BRANCH  13  16
ATOM     15  C   UNL     1       3.846   4.121   8.150  0.00  0.00    +0.113 A 
ATOM     16  C   UNL     1       4.275   3.318   7.135  0.00  0.00    +0.024 A 
ATOM     17  C   UNL     1       5.621   2.857   7.532  0.00  0.00    +0.028 A 
ATOM     18  C   UNL     1       6.577   2.036   6.945  0.00  0.00    +0.012 A 
ATOM     19  C   UNL     1       7.768   1.800   7.599  0.00  0.00    +0.001 A 
ATOM     20  C   UNL     1       8.011   2.379   8.835  0.00  0.00    +0.004 A 
ATOM     21  C   UNL     1       7.070   3.195   9.427  0.00  0.00    +0.047 A 
ATOM     22  C   UNL     1       5.864   3.443   8.783  0.00  0.00    +0.136 A 
ATOM     23  O   UNL     1       4.781   4.180   9.107  0.00  0.00    -0.459 OA
BRANCH  15  25
ATOM     24  C   UNL     1       1.477   3.930   8.858  0.00  0.00    +0.012 C 
ATOM     25  C   UNL     1       2.518   4.832   8.191  0.00  0.00    +0.071 C 
ENDBRANCH  15  25
ENDBRANCH  13  16
ENDBRANCH  10  14
BRANCH  12  26
ATOM     26  C   UNL     1       5.491   3.309   2.256  0.00  0.00    +0.111 C 
ATOM     27  C   UNL     1       5.621   4.832   2.315  0.00  0.00    +0.025 C 
ENDBRANCH  12  26
ENDBRANCH   1  12
BRANCH   2  28
ATOM     28  N   UNL     1       4.686   0.805   0.621  0.00  0.00    -0.343 N 
ATOM     29  H   UNL     1       4.869   0.036   0.059  0.00  0.00    +0.144 HD
ATOM     30  H   UNL     1       5.226   0.969   1.410  0.00  0.00    +0.144 HD
ENDBRANCH   2  28
BRANCH   3  31
ATOM     31  C   UNL     1       3.263   0.366  -1.751  0.00  0.00    +0.163 C 
BRANCH  31  32
ATOM     32  C   UNL     1       4.284   0.815  -2.764  0.00  0.00    -0.028 A 
ATOM     33  C   UNL     1       3.872   1.351  -3.970  0.00  0.00    +0.005 A 
ATOM     34  C   UNL     1       4.809   1.767  -4.897  0.00  0.00    +0.000 A 
ATOM     35  C   UNL     1       6.157   1.637  -4.623  0.00  0.00    +0.000 A 
ATOM     36  C   UNL     1       6.569   1.096  -3.420  0.00  0.00    +0.000 A 
ATOM     37  C   UNL     1       5.633   0.685  -2.490  0.00  0.00    +0.005 A 
ENDBRANCH  31  32
ENDBRANCH   3  31
TORSDOF 8
