REMARK  Name = ZINC08961216
REMARK  3 active torsions:
REMARK  status: ('A' for Active; 'I' for Inactive)
REMARK    1  A    between atoms: C_12  and  N_17
REMARK    2  A    between atoms: N_17  and  S_18
REMARK    3  A    between atoms: S_18  and  C_21
REMARK                            x       y       z     vdW  Elec       q    Type
REMARK                         _______ _______ _______ _____ _____    ______ ____
ROOT
ATOM      1  C   UNL     1       4.072   3.063   0.162  0.00  0.00    +0.002 A 
ATOM      2  C   UNL     1       3.130   3.322  -0.816  0.00  0.00    +0.004 A 
ATOM      3  C   UNL     1       1.876   2.748  -0.737  0.00  0.00    +0.048 A 
ATOM      4  C   UNL     1       1.555   1.910   0.323  0.00  0.00    +0.150 A 
ATOM      5  C   UNL     1       2.490   1.676   1.323  0.00  0.00    +0.076 A 
ATOM      6  C   UNL     1       3.755   2.244   1.228  0.00  0.00    +0.027 A 
ATOM      7  N   UNL     1       2.184   0.889   2.434  0.00  0.00    -0.278 N 
ATOM      8  C   UNL     1       1.469  -0.229   2.430  0.00  0.00    +0.252 C 
ATOM      9  O   UNL     1       1.318  -0.801   3.492  0.00  0.00    -0.270 OA
ATOM     10  C   UNL     1       0.846  -0.830   1.242  0.00  0.00    +0.081 A 
ATOM     11  C   UNL     1       0.813  -2.220   1.103  0.00  0.00    +0.041 A 
ATOM     12  C   UNL     1       0.180  -2.791   0.013  0.00  0.00    +0.049 A 
ATOM     13  C   UNL     1      -0.421  -1.982  -0.946  0.00  0.00    +0.028 A 
ATOM     14  C   UNL     1      -0.377  -0.608  -0.823  0.00  0.00    +0.049 A 
ATOM     15  C   UNL     1       0.266  -0.022   0.259  0.00  0.00    +0.141 A 
ATOM     16  O   UNL     1       0.331   1.327   0.347  0.00  0.00    -0.453 OA
ATOM     17  H   UNL     1       2.527   1.187   3.290  0.00  0.00    +0.155 HD
ENDROOT
BRANCH  12  18
ATOM     18  N   UNL     1       0.146  -4.183  -0.127  0.00  0.00    -0.220 N 
ATOM     19  H   UNL     1      -0.452  -4.711   0.425  0.00  0.00    +0.173 HD
BRANCH  18  20
ATOM     20  S   UNL     1       1.127  -4.928  -1.233  0.00  0.00    +0.053 S 
ATOM     21  O   UNL     1       0.829  -6.312  -1.107  0.00  0.00    -0.154 OA
ATOM     22  O   UNL     1       0.883  -4.243  -2.454  0.00  0.00    -0.154 OA
BRANCH  20  23
ATOM     23  C   UNL     1       2.815  -4.598  -0.658  0.00  0.00    +0.267 C 
ATOM     24 BR   UNL     1       4.103  -5.296  -1.968  0.00  0.00    -0.065 Br
ENDBRANCH  20  23
ENDBRANCH  18  20
ENDBRANCH  12  18
TORSDOF 3
