REMARK  Name = ZINC04184939
REMARK  3 active torsions:
REMARK  status: ('A' for Active; 'I' for Inactive)
REMARK    1  A    between atoms: C_4  and  C_7
REMARK    2  A    between atoms: N_8  and  N_9
REMARK    3  A    between atoms: C_14  and  C_16
REMARK                            x       y       z     vdW  Elec       q    Type
REMARK                         _______ _______ _______ _____ _____    ______ ____
ROOT
ATOM      1  N   UNL     1       4.846   4.169  -0.024  0.00  0.00    -0.205 N 
ATOM      2  C   UNL     1       4.831   5.554  -0.017  0.00  0.00    +0.236 A 
ATOM      3  N   UNL     1       5.978   6.214  -0.025  0.00  0.00    -0.218 NA
ATOM      4  C   UNL     1       6.003   7.543  -0.019  0.00  0.00    +0.050 A 
ATOM      5  C   UNL     1       4.815   8.234   0.017  0.00  0.00    +0.004 A 
ATOM      6  C   UNL     1       3.626   7.510   0.016  0.00  0.00    +0.152 A 
ATOM      7  N   UNL     1       3.669   6.190  -0.007  0.00  0.00    -0.209 NA
ATOM      8  C   UNL     1       4.723   9.737   0.070  0.00  0.00    +0.039 C 
ATOM      9  C   UNL     1       5.915  10.390  -0.630  0.00  0.00    +0.005 C 
ATOM     10  C   UNL     1       7.018  10.627   0.404  0.00  0.00    +0.001 C 
ATOM     11  C   UNL     1       7.462   9.295   1.002  0.00  0.00    +0.006 C 
ATOM     12  C   UNL     1       7.342   8.225  -0.088  0.00  0.00    +0.056 C 
ATOM     13  H   UNL     1       5.691   3.693  -0.036  0.00  0.00    +0.177 HD
ENDROOT
BRANCH   6  14
ATOM     14  C   UNL     1       2.300   8.226   0.035  0.00  0.00    +0.435 C 
ATOM     15  F   UNL     1       1.881   8.466  -1.278  0.00  0.00    -0.164 F 
ATOM     16  F   UNL     1       1.351   7.434   0.690  0.00  0.00    -0.164 F 
ATOM     17  F   UNL     1       2.438   9.444   0.710  0.00  0.00    -0.164 F 
ENDBRANCH   6  14
BRANCH   1  19
ATOM     18  C   UNL     1       3.655   2.158  -0.023  0.00  0.00    +0.138 C 
ATOM     19  N   UNL     1       3.640   3.455  -0.016  0.00  0.00    -0.188 NA
BRANCH  18  23
ATOM     20  C   UNL     1       0.002  -0.004   0.002  0.00  0.00    +0.000 A 
ATOM     21  C   UNL     1      -0.017   1.379   0.010  0.00  0.00    +0.001 A 
ATOM     22  C   UNL     1       1.166   2.089   0.002  0.00  0.00    +0.009 A 
ATOM     23  C   UNL     1       2.385   1.407  -0.014  0.00  0.00    -0.005 A 
ATOM     24  C   UNL     1       2.397   0.010  -0.021  0.00  0.00    +0.009 A 
ATOM     25  C   UNL     1       1.206  -0.686  -0.013  0.00  0.00    +0.001 A 
ENDBRANCH  18  23
ENDBRANCH   1  19
TORSDOF 3
