REMARK  Name = ZINC36534355
REMARK  12 active torsions:
REMARK  status: ('A' for Active; 'I' for Inactive)
REMARK    1  A    between atoms: C_1  and  C_2
REMARK    2  A    between atoms: C_5  and  S_8
REMARK    3  A    between atoms: S_8  and  C_11
REMARK    4  A    between atoms: C_11  and  N_12
REMARK    5  A    between atoms: C_13  and  C_15
REMARK    6  A    between atoms: C_15  and  C_17
REMARK    7  A    between atoms: C_15  and  N_26
REMARK    8  A    between atoms: C_17  and  C_19
REMARK    9  A    between atoms: C_17  and  C_20
REMARK   10  A    between atoms: N_26  and  C_27
REMARK   11  A    between atoms: C_28  and  C_30
REMARK   12  A    between atoms: C_30  and  C_31
REMARK                            x       y       z     vdW  Elec       q    Type
REMARK                         _______ _______ _______ _____ _____    ______ ____
ROOT
ATOM      1  C   UNL     1       3.268  -5.036   3.562  0.00  0.00    +0.169 C 
ENDROOT
BRANCH   1   3
ATOM      2  N   UNL     1       2.958  -4.932   1.110  0.00  0.00    -0.295 N 
ATOM      3  C   UNL     1       2.571  -5.452   2.292  0.00  0.00    +0.235 C 
ATOM      4  O   UNL     1       1.664  -6.256   2.333  0.00  0.00    -0.274 OA
ATOM      5  H   UNL     1       3.629  -4.233   1.084  0.00  0.00    +0.150 HD
BRANCH   2   6
ATOM      6  C   UNL     1       2.363  -5.423  -0.136  0.00  0.00    +0.278 C 
BRANCH   6   7
ATOM      7  S   UNL     1       0.978  -4.351  -0.609  0.00  0.00    +0.013 S 
ATOM      8  O   UNL     1       0.137  -4.115   0.512  0.00  0.00    -0.168 OA
ATOM      9  O   UNL     1       0.430  -4.777  -1.849  0.00  0.00    -0.168 OA
BRANCH   7  14
ATOM     10  C   UNL     1       3.493   1.004  -1.796  0.00  0.00    +0.044 C 
ATOM     11  C   UNL     1       2.865  -0.334  -1.499  0.00  0.00    -0.050 A 
ATOM     12  C   UNL     1       2.720  -1.268  -2.507  0.00  0.00    +0.005 A 
ATOM     13  C   UNL     1       2.144  -2.495  -2.236  0.00  0.00    +0.027 A 
ATOM     14  C   UNL     1       1.714  -2.788  -0.955  0.00  0.00    +0.090 A 
ATOM     15  C   UNL     1       1.859  -1.853   0.054  0.00  0.00    +0.027 A 
ATOM     16  C   UNL     1       2.439  -0.628  -0.217  0.00  0.00    +0.005 A 
ENDBRANCH   7  14
ENDBRANCH   6   7
ENDBRANCH   2   6
ENDBRANCH   1   3
BRANCH   1  17
ATOM     17  N   UNL     1       3.381  -6.190   4.457  0.00  0.00    -0.292 N 
ATOM     18  C   UNL     1       2.174  -6.877   4.924  0.00  0.00    +0.133 C 
ATOM     19  C   UNL     1       4.596  -6.620   4.851  0.00  0.00    +0.220 C 
ATOM     20  O   UNL     1       5.595  -6.051   4.465  0.00  0.00    -0.275 OA
BRANCH  19  21
ATOM     21  C   UNL     1       4.713  -7.807   5.773  0.00  0.00    +0.131 C 
BRANCH  21  22
ATOM     22  C   UNL     1       6.167  -8.080   6.058  0.00  0.00    -0.035 A 
ATOM     23  C   UNL     1       6.884  -8.931   5.238  0.00  0.00    +0.008 A 
ATOM     24  C   UNL     1       8.218  -9.184   5.495  0.00  0.00    +0.050 A 
ATOM     25  C   UNL     1       8.841  -8.585   6.578  0.00  0.00    +0.166 A 
ATOM     26  C   UNL     1       8.119  -7.727   7.405  0.00  0.00    +0.166 A 
ATOM     27  C   UNL     1       6.784  -7.474   7.137  0.00  0.00    +0.053 A 
ATOM     28  O   UNL     1       8.948  -7.270   8.389  0.00  0.00    -0.453 OA
ATOM     29  C   UNL     1      10.070  -8.172   8.396  0.00  0.00    +0.466 C 
ATOM     30  O   UNL     1      10.121  -8.665   7.044  0.00  0.00    -0.453 OA
ENDBRANCH  21  22
ENDBRANCH  19  21
ENDBRANCH   1  17
BRANCH   1  31
ATOM     31  C   UNL     1       2.458  -3.934   4.249  0.00  0.00    +0.045 C 
ATOM     32  C   UNL     1       2.314  -2.741   3.303  0.00  0.00    +0.015 C 
BRANCH  31  33
ATOM     33  C   UNL     1       3.170  -3.497   5.504  0.00  0.00    -0.042 A 
ATOM     34  C   UNL     1       4.445  -2.970   5.427  0.00  0.00    +0.004 A 
ATOM     35  C   UNL     1       5.098  -2.569   6.578  0.00  0.00    +0.000 A 
ATOM     36  C   UNL     1       4.474  -2.695   7.806  0.00  0.00    +0.000 A 
ATOM     37  C   UNL     1       3.199  -3.222   7.882  0.00  0.00    +0.000 A 
ATOM     38  C   UNL     1       2.544  -3.619   6.731  0.00  0.00    +0.004 A 
ENDBRANCH  31  33
ENDBRANCH   1  31
TORSDOF 9
