REMARK  Name = ZINC31808488
REMARK  9 active torsions:
REMARK  status: ('A' for Active; 'I' for Inactive)
REMARK    1  A    between atoms: C_1  and  O_2
REMARK    2  A    between atoms: O_2  and  C_3
REMARK    3  A    between atoms: C_3  and  C_5
REMARK    4  A    between atoms: C_5  and  C_6
REMARK    5  A    between atoms: C_6  and  C_8
REMARK    6  A    between atoms: C_6  and  N_12
REMARK    7  A    between atoms: C_8  and  O_10
REMARK    8  A    between atoms: O_10  and  C_11
REMARK    9  A    between atoms: C_24  and  C_26
REMARK                            x       y       z     vdW  Elec       q    Type
REMARK                         _______ _______ _______ _____ _____    ______ ____
ROOT
ATOM      1  N   UNL     1      -5.384  -2.205   0.262  0.00  0.00    -0.286 N 
ATOM      2  C   UNL     1      -4.644  -1.993   1.369  0.00  0.00    +0.304 C 
ATOM      3  O   UNL     1      -3.451  -2.228   1.356  0.00  0.00    -0.253 OA
ATOM      4  N   UNL     1      -5.226  -1.520   2.488  0.00  0.00    -0.273 N 
ATOM      5  C   UNL     1      -4.420  -1.174   3.669  0.00  0.00    +0.116 C 
ATOM      6  C   UNL     1      -4.535   0.332   3.933  0.00  0.00    +0.076 C 
ATOM      7  C   UNL     1      -5.984   0.737   3.824  0.00  0.00    +0.066 A 
ATOM      8  C   UNL     1      -6.937   0.001   3.213  0.00  0.00    +0.064 A 
ATOM      9  N   UNL     1      -8.105   0.690   3.314  0.00  0.00    -0.346 N 
ATOM     10  H   UNL     1      -8.969   0.415   2.968  0.00  0.00    +0.167 HD
ATOM     11  C   UNL     1      -7.833   1.830   3.990  0.00  0.00    +0.197 A 
ATOM     12  N   UNL     1      -6.561   1.848   4.290  0.00  0.00    -0.240 NA
ATOM     13  C   UNL     1      -6.686  -1.331   2.559  0.00  0.00    +0.158 C 
ATOM     14  H   UNL     1      -6.347  -2.094   0.294  0.00  0.00    +0.151 HD
ENDROOT
BRANCH  13  15
ATOM     15  C   UNL     1      -7.306  -2.428   3.386  0.00  0.00    -0.003 A 
ATOM     16  C   UNL     1      -6.994  -2.543   4.728  0.00  0.00    +0.009 A 
ATOM     17  C   UNL     1      -7.562  -3.549   5.486  0.00  0.00    +0.020 A 
ATOM     18  C   UNL     1      -8.444  -4.441   4.903  0.00  0.00    +0.042 A 
ATOM     19  C   UNL     1      -8.757  -4.327   3.561  0.00  0.00    +0.040 A 
ATOM     20  C   UNL     1      -8.192  -3.316   2.803  0.00  0.00    +0.048 A 
ATOM     21 CL   UNL     1      -8.590  -3.168   1.120  0.00  0.00    -0.083 Cl
ATOM     22 CL   UNL     1      -9.157  -5.705   5.856  0.00  0.00    -0.083 Cl
ENDBRANCH  13  15
BRANCH   1  23
ATOM     23  C   UNL     1      -4.734  -2.604  -0.989  0.00  0.00    +0.194 C 
BRANCH  23  24
ATOM     24  C   UNL     1      -4.255  -1.377  -1.720  0.00  0.00    +0.328 C 
ATOM     25  O   UNL     1      -4.439  -0.281  -1.245  0.00  0.00    -0.249 OA
BRANCH  24  26
ATOM     26  O   UNL     1      -3.626  -1.500  -2.899  0.00  0.00    -0.467 OA
ATOM     27  C   UNL     1      -3.200  -0.294  -3.536  0.00  0.00    +0.280 C 
ENDBRANCH  24  26
ENDBRANCH  23  24
BRANCH  23  28
ATOM     28  C   UNL     1      -5.734  -3.362  -1.864  0.00  0.00    +0.154 C 
BRANCH  28  29
ATOM     29  C   UNL     1      -6.119  -4.651  -1.186  0.00  0.00    +0.309 C 
ATOM     30  O   UNL     1      -5.643  -4.936  -0.113  0.00  0.00    -0.251 OA
BRANCH  29  32
ATOM     31  C   UNL     1      -7.312  -6.689  -1.075  0.00  0.00    +0.280 C 
ATOM     32  O   UNL     1      -6.992  -5.484  -1.775  0.00  0.00    -0.468 OA
ENDBRANCH  29  32
ENDBRANCH  28  29
ENDBRANCH  23  28
ENDBRANCH   1  23
TORSDOF 7
