REMARK  Name = ZINC39675307
REMARK  10 active torsions:
REMARK  status: ('A' for Active; 'I' for Inactive)
REMARK    1  A    between atoms: C_1  and  C_2
REMARK    2  A    between atoms: C_2  and  C_4
REMARK    3  A    between atoms: C_2  and  N_14
REMARK    4  A    between atoms: C_4  and  C_5
REMARK    5  A    between atoms: C_5  and  C_6
REMARK    6  A    between atoms: C_9  and  O_12
REMARK    7  A    between atoms: O_12  and  C_13
REMARK    8  A    between atoms: C_15  and  C_17
REMARK    9  A    between atoms: C_28  and  C_30
REMARK   10  A    between atoms: C_30  and  C_36
REMARK                            x       y       z     vdW  Elec       q    Type
REMARK                         _______ _______ _______ _____ _____    ______ ____
ROOT
ATOM      1  C   UNL     1       0.711  -1.120  -3.609  0.00  0.00    +0.100 C 
ATOM      2  C   UNL     1       1.733  -0.064  -4.085  0.00  0.00    +0.121 C 
ATOM      3  N   UNL     1       1.653  -0.105  -5.564  0.00  0.00    -0.300 N 
ATOM      4  C   UNL     1       0.208  -0.272  -5.850  0.00  0.00    +0.115 C 
ATOM      5  C   UNL     1      -0.289  -1.253  -4.770  0.00  0.00    -0.004 C 
ATOM      6  C   UNL     1      -1.690  -0.863  -4.309  0.00  0.00    -0.010 C 
ATOM      7  C   UNL     1      -2.676  -1.059  -5.464  0.00  0.00    -0.082 C 
ATOM      8  N   UNL     1      -2.654  -2.462  -5.896  0.00  0.00    +0.379 N 
ATOM      9  C   UNL     1      -1.328  -2.802  -6.425  0.00  0.00    -0.082 C 
ATOM     10  C   UNL     1      -0.285  -2.680  -5.311  0.00  0.00    -0.010 C 
ATOM     11  C   UNL     1       2.666  -0.012  -6.449  0.00  0.00    +0.222 C 
ATOM     12  O   UNL     1       2.430   0.020  -7.638  0.00  0.00    -0.275 OA
ATOM     13  H   UNL     1      -2.864  -3.058  -5.109  0.00  0.00    -0.086 HD
ATOM     14  H   UNL     1      -3.348  -2.601  -6.615  0.00  0.00    -0.086 HD
ENDROOT
BRANCH  11  15
ATOM     15  C   UNL     1       4.090   0.051  -5.960  0.00  0.00    +0.044 C 
ATOM     16  C   UNL     1       4.240   1.211  -4.974  0.00  0.00    +0.016 C 
ATOM     17  C   UNL     1       3.881   2.524  -5.672  0.00  0.00    +0.001 C 
ATOM     18  C   UNL     1       4.819   2.742  -6.861  0.00  0.00    +0.000 C 
ATOM     19  C   UNL     1       4.669   1.582  -7.848  0.00  0.00    +0.001 C 
ATOM     20  C   UNL     1       5.028   0.269  -7.149  0.00  0.00    +0.016 C 
ATOM     21  C   UNL     1       4.449  -1.262  -5.262  0.00  0.00    +0.021 C 
ENDBRANCH  11  15
BRANCH   1  23
ATOM     22  N   UNL     1      -0.598  -1.535  -1.551  0.00  0.00    -0.312 N 
ATOM     23  C   UNL     1       0.008  -0.646  -2.363  0.00  0.00    +0.218 C 
ATOM     24  O   UNL     1      -0.013   0.535  -2.091  0.00  0.00    -0.275 OA
ATOM     25  H   UNL     1      -0.581  -2.481  -1.769  0.00  0.00    +0.149 HD
BRANCH  22  27
ATOM     26  C   UNL     1      -0.268  -0.945   0.799  0.00  0.00    +0.028 C 
ATOM     27  C   UNL     1      -1.281  -1.075  -0.340  0.00  0.00    +0.070 C 
BRANCH  27  28
ATOM     28  C   UNL     1      -2.362  -2.084   0.051  0.00  0.00    +0.026 C 
BRANCH  28  29
ATOM     29  C   UNL     1      -3.441  -2.121  -1.033  0.00  0.00    +0.037 C 
BRANCH  29  30
ATOM     30  C   UNL     1      -4.506  -3.115  -0.648  0.00  0.00    -0.047 A 
ATOM     31  C   UNL     1      -4.389  -4.437  -1.036  0.00  0.00    +0.007 A 
ATOM     32  C   UNL     1      -5.364  -5.351  -0.685  0.00  0.00    +0.046 A 
ATOM     33  C   UNL     1      -6.462  -4.941   0.058  0.00  0.00    +0.120 A 
ATOM     34  C   UNL     1      -6.576  -3.614   0.447  0.00  0.00    +0.046 A 
ATOM     35  C   UNL     1      -5.596  -2.705   0.098  0.00  0.00    +0.007 A 
BRANCH  33  36
ATOM     36  O   UNL     1      -7.422  -5.837   0.405  0.00  0.00    -0.495 OA
ATOM     37  C   UNL     1      -8.524  -5.344   1.171  0.00  0.00    +0.277 C 
ENDBRANCH  33  36
ENDBRANCH  29  30
ENDBRANCH  28  29
ENDBRANCH  27  28
ENDBRANCH  22  27
ENDBRANCH   1  23
TORSDOF 7
