REMARK  Name = ZINC38582965
REMARK  8 active torsions:
REMARK  status: ('A' for Active; 'I' for Inactive)
REMARK    1  A    between atoms: C_1  and  C_2
REMARK    2  A    between atoms: C_2  and  C_3
REMARK    3  A    between atoms: C_3  and  C_4
REMARK    4  A    between atoms: C_6  and  C_18
REMARK    5  A    between atoms: C_8  and  C_16
REMARK    6  A    between atoms: C_9  and  N_15
REMARK    7  A    between atoms: N_20  and  C_33
REMARK    8  A    between atoms: C_22  and  C_23
REMARK                            x       y       z     vdW  Elec       q    Type
REMARK                         _______ _______ _______ _____ _____    ______ ____
ROOT
ATOM      1  C   UNL     1       3.597  -2.228  -1.325  0.00  0.00    +0.007 A 
ATOM      2  C   UNL     1       3.445  -3.303  -2.133  0.00  0.00    +0.119 A 
ATOM      3  N   UNL     1       3.408  -2.857  -3.409  0.00  0.00    -0.239 N 
ATOM      4  N   UNL     1       3.542  -1.463  -3.382  0.00  0.00    -0.171 NA
ATOM      5  C   UNL     1       3.649  -1.087  -2.133  0.00  0.00    +0.074 A 
ENDROOT
BRANCH   5   6
ATOM      6  C   UNL     1       3.806   0.331  -1.648  0.00  0.00    +0.016 C 
ATOM      7  C   UNL     1       2.615   0.703  -0.763  0.00  0.00    +0.016 C 
ATOM      8  C   UNL     1       2.775   2.143  -0.271  0.00  0.00    -0.010 C 
ATOM      9  C   UNL     1       2.832   3.089  -1.472  0.00  0.00    +0.007 C 
ATOM     10  C   UNL     1       4.023   2.717  -2.357  0.00  0.00    -0.010 C 
ATOM     11  C   UNL     1       3.863   1.277  -2.849  0.00  0.00    +0.016 C 
ATOM     12  C   UNL     1       5.316   2.840  -1.550  0.00  0.00    +0.007 C 
ATOM     13  C   UNL     1       5.260   1.894  -0.349  0.00  0.00    -0.010 C 
ATOM     14  C   UNL     1       4.069   2.265   0.537  0.00  0.00    +0.007 C 
ATOM     15  C   UNL     1       5.100   0.454  -0.841  0.00  0.00    +0.016 C 
ENDBRANCH   5   6
BRANCH   1  18
ATOM     16  C   UNL     1       1.422  -2.704   1.347  0.00  0.00    +0.069 C 
ATOM     17  C   UNL     1       2.542  -3.041   0.755  0.00  0.00    +0.030 C 
ATOM     18  C   UNL     1       3.688  -2.255   0.179  0.00  0.00    +0.101 C 
ATOM     19  C   UNL     1       4.944  -2.985   0.618  0.00  0.00    +0.098 C 
ATOM     20  C   UNL     1       4.889  -4.192   1.218  0.00  0.00    +0.195 C 
ATOM     21  O   UNL     1       3.780  -4.886   1.528  0.00  0.00    -0.448 OA
ATOM     22  C   UNL     1       2.581  -4.569   0.816  0.00  0.00    +0.343 C 
ATOM     23  N   UNL     1       1.376  -4.873   1.595  0.00  0.00    -0.138 NA
ATOM     24  N   UNL     1       0.793  -3.807   1.828  0.00  0.00    -0.155 NA
BRANCH  20  25
ATOM     25  N   UNL     1       6.089  -4.771   1.545  0.00  0.00    -0.329 N 
ATOM     26  H   UNL     1       6.920  -4.313   1.344  0.00  0.00    +0.145 HD
ATOM     27  H   UNL     1       6.107  -5.639   1.978  0.00  0.00    +0.145 HD
ENDBRANCH  20  25
BRANCH  19  28
ATOM     28  C   UNL     1       6.220  -2.376   0.390  0.00  0.00    +0.101 C 
ATOM     29  N   UNL     1       7.232  -1.893   0.209  0.00  0.00    -0.191 NA
ENDBRANCH  19  28
BRANCH  16  30
ATOM     30  C   UNL     1       0.909  -1.293   1.480  0.00  0.00    +0.057 C 
BRANCH  30  32
ATOM     31  C   UNL     1      -0.714   0.376   0.572  0.00  0.00    +0.004 C 
ATOM     32  C   UNL     1      -0.097  -1.009   0.363  0.00  0.00    +0.003 C 
ENDBRANCH  30  32
ENDBRANCH  16  30
ENDBRANCH   1  18
BRANCH   3  33
ATOM     33  C   UNL     1       3.262  -3.650  -4.556  0.00  0.00    +0.065 A 
ATOM     34  C   UNL     1       3.133  -5.027  -4.438  0.00  0.00    +0.028 A 
ATOM     35  C   UNL     1       2.990  -5.806  -5.570  0.00  0.00    +0.002 A 
ATOM     36  C   UNL     1       2.975  -5.214  -6.820  0.00  0.00    +0.000 A 
ATOM     37  C   UNL     1       3.103  -3.843  -6.941  0.00  0.00    +0.002 A 
ATOM     38  C   UNL     1       3.240  -3.059  -5.812  0.00  0.00    +0.028 A 
ENDBRANCH   3  33
TORSDOF 7
