REMARK  Name = ZINC39354021
REMARK  4 active torsions:
REMARK  status: ('A' for Active; 'I' for Inactive)
REMARK    1  A    between atoms: C_4  and  C_7
REMARK    2  A    between atoms: C_11  and  N_26
REMARK    3  A    between atoms: C_17  and  S_19
REMARK    4  A    between atoms: S_19  and  C_20
REMARK                            x       y       z     vdW  Elec       q    Type
REMARK                         _______ _______ _______ _____ _____    ______ ____
ROOT
ATOM      1  C   UNL     1       3.648  -0.649  -0.037  0.00  0.00    -0.009 C 
ATOM      2  C   UNL     1       4.861   0.036  -0.143  0.00  0.00    +0.002 A 
ATOM      3  C   UNL     1       4.888   1.444  -0.238  0.00  0.00    +0.012 A 
ATOM      4  C   UNL     1       6.083   2.086  -0.341  0.00  0.00    +0.033 A 
ATOM      5  C   UNL     1       7.285   1.382  -0.354  0.00  0.00    +0.128 A 
ATOM      6  C   UNL     1       7.323   0.023  -0.265  0.00  0.00    +0.056 A 
ATOM      7  C   UNL     1       6.126  -0.707  -0.156  0.00  0.00    +0.043 A 
ATOM      8  N   UNL     1       6.165  -2.041  -0.069  0.00  0.00    -0.284 N 
ATOM      9  C   UNL     1       5.089  -2.796   0.035  0.00  0.00    +0.235 C 
ATOM     10  O   UNL     1       5.200  -4.005   0.111  0.00  0.00    -0.274 OA
ATOM     11  C   UNL     1       3.718  -2.161   0.067  0.00  0.00    +0.170 C 
ATOM     12  H   UNL     1       7.032  -2.476  -0.082  0.00  0.00    +0.155 HD
ENDROOT
BRANCH   1  16
ATOM     13  C   UNL     1      -0.017   1.381   0.011  0.00  0.00    +0.000 A 
ATOM     14  C   UNL     1       0.279   0.520  -1.034  0.00  0.00    +0.001 A 
ATOM     15  C   UNL     1       1.481  -0.151  -1.059  0.00  0.00    +0.008 A 
ATOM     16  C   UNL     1       2.408   0.038  -0.021  0.00  0.00    -0.020 A 
ATOM     17  C   UNL     1       2.097   0.912   1.034  0.00  0.00    +0.008 A 
ATOM     18  C   UNL     1       0.890   1.574   1.040  0.00  0.00    +0.001 A 
ENDBRANCH   1  16
BRANCH   5  19
ATOM     19  N   UNL     1       8.556   2.131  -0.468  0.00  0.00    +0.056 N 
ATOM     20  O   UNL     1       8.542   3.337  -0.548  0.00  0.00    -0.126 OA
ATOM     21  O   UNL     1       9.609   1.537  -0.481  0.00  0.00    -0.126 OA
ENDBRANCH   5  19
BRANCH  11  22
ATOM     22  S   UNL     1       2.907  -2.651   1.614  0.00  0.00    -0.079 S 
BRANCH  22  23
ATOM     23  C   UNL     1       2.914  -4.412   1.560  0.00  0.00    +0.161 A 
ATOM     24  N   UNL     1       3.394  -5.218   0.632  0.00  0.00    -0.133 NA
ATOM     25  N   UNL     1       3.294  -6.580   0.792  0.00  0.00    -0.125 NA
ATOM     26  C   UNL     1       2.719  -7.075   1.871  0.00  0.00    +0.180 A 
ATOM     27  S   UNL     1       2.281  -5.583   2.750  0.00  0.00    -0.025 S 
ATOM     28  N   UNL     1       2.514  -8.402   2.230  0.00  0.00    -0.336 N 
ATOM     29  H   UNL     1       2.815  -9.115   1.645  0.00  0.00    +0.144 HD
ATOM     30  H   UNL     1       2.070  -8.615   3.066  0.00  0.00    +0.144 HD
ENDBRANCH  22  23
ENDBRANCH  11  22
TORSDOF 4
