REMARK  Name = ZINC43548246
REMARK  9 active torsions:
REMARK  status: ('A' for Active; 'I' for Inactive)
REMARK    1  A    between atoms: C_1  and  C_2
REMARK    2  A    between atoms: N_9  and  C_10
REMARK    3  A    between atoms: C_10  and  C_11
REMARK    4  A    between atoms: C_14  and  C_36
REMARK    5  A    between atoms: C_17  and  O_35
REMARK    6  A    between atoms: C_19  and  C_23
REMARK    7  A    between atoms: C_23  and  C_25
REMARK    8  A    between atoms: C_23  and  C_26
REMARK    9  A    between atoms: N_31  and  C_34
REMARK                            x       y       z     vdW  Elec       q    Type
REMARK                         _______ _______ _______ _____ _____    ______ ____
ROOT
ATOM      1  C   UNL     1      -1.720   1.023   0.427  0.00  0.00    +0.014 C 
ATOM      2  C   UNL     1      -1.435  -0.480   0.392  0.00  0.00    +0.039 C 
ATOM      3  C   UNL     1      -2.608  -1.234   0.999  0.00  0.00    +0.031 A 
ATOM      4  C   UNL     1      -2.535  -1.715   2.265  0.00  0.00    +0.013 A 
ATOM      5  S   UNL     1      -4.117  -2.485   2.477  0.00  0.00    -0.059 S 
ATOM      6  C   UNL     1      -4.737  -2.137   0.949  0.00  0.00    +0.137 A 
ATOM      7  N   UNL     1      -3.757  -1.478   0.371  0.00  0.00    -0.340 N 
ATOM      8  N   UNL     1      -5.979  -2.465   0.428  0.00  0.00    -0.321 N 
ATOM      9  C   UNL     1      -1.395  -1.608   3.217  0.00  0.00    +0.051 C 
ATOM     10  C   UNL     1      -0.416  -0.540   2.697  0.00  0.00    -0.022 C 
ATOM     11  C   UNL     1      -0.176  -0.778   1.200  0.00  0.00    +0.033 C 
ATOM     12  C   UNL     1       0.272  -2.224   0.986  0.00  0.00    +0.123 C 
ATOM     13  C   UNL     1       1.589  -2.455   1.732  0.00  0.00    +0.029 C 
ATOM     14  C   UNL     1       1.396  -2.175   3.223  0.00  0.00    +0.007 C 
ATOM     15  C   UNL     1       0.922  -0.732   3.428  0.00  0.00    +0.008 C 
ATOM     16  C   UNL     1      -0.969   0.864   2.948  0.00  0.00    +0.012 C 
ATOM     17  H   UNL     1      -6.211  -2.201  -0.476  0.00  0.00    +0.148 HD
ATOM     18  H   UNL     1      -3.874  -1.161  -0.538  0.00  0.00    +0.167 HD
ENDROOT
BRANCH  13  19
ATOM     19  C   UNL     1       2.033  -3.907   1.542  0.00  0.00    +0.078 C 
ATOM     20  C   UNL     1       1.018  -4.842   2.203  0.00  0.00    +0.017 C 
BRANCH  19  21
ATOM     21  C   UNL     1       3.385  -4.106   2.177  0.00  0.00    +0.219 C 
ATOM     22  O   UNL     1       3.467  -4.523   3.313  0.00  0.00    -0.275 OA
ATOM     23  N   UNL     1       4.504  -3.820   1.482  0.00  0.00    -0.299 N 
ATOM     24  C   UNL     1       4.428  -3.210   0.146  0.00  0.00    +0.123 C 
ATOM     25  C   UNL     1       5.341  -1.979   0.120  0.00  0.00    +0.103 C 
ATOM     26  N   UNL     1       6.691  -2.366   0.550  0.00  0.00    -0.302 NA
ATOM     27  C   UNL     1       6.691  -2.845   1.939  0.00  0.00    +0.103 C 
ATOM     28  C   UNL     1       5.834  -4.105   2.042  0.00  0.00    +0.123 C 
ATOM     29  C   UNL     1       7.637  -1.256   0.376  0.00  0.00    +0.105 C 
ENDBRANCH  19  21
ENDBRANCH  13  19
BRANCH  12  30
ATOM     30  O   UNL     1       0.462  -2.464  -0.409  0.00  0.00    -0.391 OA
ATOM     31  H   UNL     1       0.667  -3.384  -0.626  0.00  0.00    +0.210 HD
ENDBRANCH  12  30
BRANCH   8  32
ATOM     32  C   UNL     1      -6.941  -3.212   1.243  0.00  0.00    +0.130 C 
BRANCH  32  33
ATOM     33  C   UNL     1      -8.202  -3.438   0.450  0.00  0.00    -0.016 C 
ATOM     34  C   UNL     1      -8.664  -4.654   0.287  0.00  0.00    +0.005 C 
ENDBRANCH  32  33
ENDBRANCH   8  32
TORSDOF 5
