REMARK  Name = ZINC39695742
REMARK  8 active torsions:
REMARK  status: ('A' for Active; 'I' for Inactive)
REMARK    1  A    between atoms: C_1  and  C_2
REMARK    2  A    between atoms: C_9  and  C_11
REMARK    3  A    between atoms: C_11  and  C_13
REMARK    4  A    between atoms: C_11  and  N_14
REMARK    5  A    between atoms: C_15  and  C_17
REMARK    6  A    between atoms: C_28  and  C_30
REMARK    7  A    between atoms: C_33  and  O_36
REMARK    8  A    between atoms: O_36  and  C_37
REMARK                            x       y       z     vdW  Elec       q    Type
REMARK                         _______ _______ _______ _____ _____    ______ ____
ROOT
ATOM      1  C   UNL     1       1.263  -8.854   1.280  0.00  0.00    +0.100 C 
ATOM      2  C   UNL     1       0.406  -9.568   0.211  0.00  0.00    +0.121 C 
ATOM      3  N   UNL     1       0.954 -10.944   0.150  0.00  0.00    -0.296 N 
ATOM      4  C   UNL     1       1.249 -11.286   1.562  0.00  0.00    +0.115 C 
ATOM      5  C   UNL     1       1.813  -9.985   2.165  0.00  0.00    -0.004 C 
ATOM      6  C   UNL     1       1.328  -9.816   3.602  0.00  0.00    -0.010 C 
ATOM      7  C   UNL     1       1.935 -10.919   4.474  0.00  0.00    -0.082 C 
ATOM      8  N   UNL     1       3.400 -10.838   4.419  0.00  0.00    +0.379 N 
ATOM      9  C   UNL     1       3.864 -11.094   3.050  0.00  0.00    -0.082 C 
ATOM     10  C   UNL     1       3.338  -9.999   2.117  0.00  0.00    -0.010 C 
ATOM     11  C   UNL     1       1.142 -11.710  -0.943  0.00  0.00    +0.247 C 
ATOM     12  O   UNL     1       0.971 -11.241  -2.051  0.00  0.00    -0.270 OA
ATOM     13  H   UNL     1       3.696  -9.917   4.706  0.00  0.00    -0.086 HD
ATOM     14  H   UNL     1       3.797 -11.525   5.041  0.00  0.00    -0.086 HD
ENDROOT
BRANCH  11  15
ATOM     15  C   UNL     1       1.556 -13.119  -0.794  0.00  0.00    +0.037 A 
ATOM     16  C   UNL     1       1.339 -13.789   0.413  0.00  0.00    +0.016 A 
ATOM     17  C   UNL     1       1.726 -15.103   0.548  0.00  0.00    +0.047 A 
ATOM     18  C   UNL     1       2.332 -15.764  -0.515  0.00  0.00    +0.130 A 
ATOM     19  C   UNL     1       2.549 -15.101  -1.717  0.00  0.00    +0.047 A 
ATOM     20  C   UNL     1       2.160 -13.788  -1.862  0.00  0.00    +0.016 A 
BRANCH  18  21
ATOM     21  O   UNL     1       2.712 -17.059  -0.378  0.00  0.00    -0.406 OA
BRANCH  21  22
ATOM     22  C   UNL     1       3.329 -17.678  -1.509  0.00  0.00    +0.575 C 
ATOM     23  F   UNL     1       4.492 -16.978  -1.846  0.00  0.00    -0.133 F 
ATOM     24  F   UNL     1       3.655 -19.002  -1.196  0.00  0.00    -0.133 F 
ATOM     25  F   UNL     1       2.443 -17.659  -2.591  0.00  0.00    -0.133 F 
ENDBRANCH  21  22
ENDBRANCH  18  21
ENDBRANCH  11  15
BRANCH   1  27
ATOM     26  N   UNL     1       0.951  -6.803   2.627  0.00  0.00    -0.305 N 
ATOM     27  C   UNL     1       0.410  -7.917   2.096  0.00  0.00    +0.219 C 
ATOM     28  O   UNL     1      -0.763  -8.166   2.276  0.00  0.00    -0.275 OA
ATOM     29  H   UNL     1       1.889  -6.604   2.483  0.00  0.00    +0.149 HD
BRANCH  26  30
ATOM     30  C   UNL     1       0.122  -5.892   3.420  0.00  0.00    +0.136 C 
ATOM     31  C   UNL     1      -0.603  -4.920   2.488  0.00  0.00    +0.036 C 
BRANCH  30  40
ATOM     32  C   UNL     1       3.330  -1.954   8.859  0.00  0.00    +0.044 C 
ATOM     33  C   UNL     1       3.114  -2.730   7.586  0.00  0.00    -0.048 A 
ATOM     34  C   UNL     1       4.175  -2.934   6.714  0.00  0.00    +0.005 A 
ATOM     35  C   UNL     1       4.000  -3.635   5.555  0.00  0.00    +0.030 A 
ATOM     36  C   UNL     1       2.742  -4.155   5.239  0.00  0.00    +0.089 A 
ATOM     37  C   UNL     1       1.667  -3.949   6.121  0.00  0.00    +0.067 A 
ATOM     38  C   UNL     1       1.866  -3.238   7.297  0.00  0.00    +0.031 A 
ATOM     39  N   UNL     1       0.577  -4.570   5.545  0.00  0.00    -0.340 N 
ATOM     40  C   UNL     1       0.996  -5.117   4.372  0.00  0.00    +0.128 A 
ATOM     41  N   UNL     1       2.262  -4.875   4.193  0.00  0.00    -0.231 NA
ATOM     42  H   UNL     1      -0.321  -4.609   5.909  0.00  0.00    +0.167 HD
ENDBRANCH  30  40
ENDBRANCH  26  30
ENDBRANCH   1  27
TORSDOF 6
