REMARK  Name = ZINC39634918
REMARK  7 active torsions:
REMARK  status: ('A' for Active; 'I' for Inactive)
REMARK    1  A    between atoms: C_1  and  O_2
REMARK    2  A    between atoms: O_2  and  C_3
REMARK    3  A    between atoms: C_6  and  C_9
REMARK    4  A    between atoms: C_9  and  C_10
REMARK    5  A    between atoms: C_10  and  N_11
REMARK    6  A    between atoms: C_12  and  C_14
REMARK    7  A    between atoms: C_25  and  C_27
REMARK                            x       y       z     vdW  Elec       q    Type
REMARK                         _______ _______ _______ _____ _____    ______ ____
ROOT
ATOM      1  C   UNL     1      -8.675  -4.561  -2.544  0.00  0.00    +0.100 C 
ATOM      2  C   UNL     1      -9.724  -3.730  -1.772  0.00  0.00    +0.121 C 
ATOM      3  N   UNL     1     -10.420  -2.942  -2.816  0.00  0.00    -0.296 N 
ATOM      4  C   UNL     1     -10.555  -3.879  -3.957  0.00  0.00    +0.115 C 
ATOM      5  C   UNL     1      -9.226  -4.660  -3.976  0.00  0.00    -0.004 C 
ATOM      6  C   UNL     1      -8.253  -4.018  -4.961  0.00  0.00    -0.010 C 
ATOM      7  C   UNL     1      -8.795  -4.179  -6.384  0.00  0.00    -0.082 C 
ATOM      8  N   UNL     1      -8.962  -5.605  -6.688  0.00  0.00    +0.379 N 
ATOM      9  C   UNL     1      -9.968  -6.194  -5.796  0.00  0.00    -0.082 C 
ATOM     10  C   UNL     1      -9.475  -6.118  -4.348  0.00  0.00    -0.010 C 
ATOM     11  C   UNL     1     -10.835  -1.662  -2.745  0.00  0.00    +0.248 C 
ATOM     12  O   UNL     1     -10.564  -0.988  -1.770  0.00  0.00    -0.270 OA
ATOM     13  H   UNL     1      -9.261  -5.711  -7.646  0.00  0.00    -0.086 HD
ATOM     14  H   UNL     1      -8.081  -6.080  -6.560  0.00  0.00    -0.086 HD
ENDROOT
BRANCH  11  15
ATOM     15  C   UNL     1     -11.621  -1.078  -3.851  0.00  0.00    +0.055 A 
ATOM     16  C   UNL     1     -12.533  -1.867  -4.556  0.00  0.00    +0.016 A 
ATOM     17  C   UNL     1     -13.263  -1.316  -5.588  0.00  0.00    +0.021 A 
ATOM     18  C   UNL     1     -13.094   0.017  -5.927  0.00  0.00    +0.042 A 
ATOM     19  C   UNL     1     -12.192   0.805  -5.233  0.00  0.00    +0.040 A 
ATOM     20  C   UNL     1     -11.459   0.267  -4.193  0.00  0.00    +0.054 A 
ATOM     21 CL   UNL     1     -10.334   1.258  -3.318  0.00  0.00    -0.083 Cl
ATOM     22 CL   UNL     1     -14.018   0.701  -7.228  0.00  0.00    -0.083 Cl
ENDBRANCH  11  15
BRANCH   1  24
ATOM     23  N   UNL     1      -6.202  -4.574  -2.578  0.00  0.00    -0.315 N 
ATOM     24  C   UNL     1      -7.343  -3.857  -2.541  0.00  0.00    +0.218 C 
ATOM     25  O   UNL     1      -7.297  -2.646  -2.506  0.00  0.00    -0.275 OA
ATOM     26  H   UNL     1      -6.238  -5.543  -2.606  0.00  0.00    +0.149 HD
BRANCH  23  27
ATOM     27  C   UNL     1      -4.906  -3.890  -2.575  0.00  0.00    +0.109 C 
BRANCH  27  28
ATOM     28  C   UNL     1      -3.782  -4.926  -2.620  0.00  0.00    +0.054 C 
BRANCH  28  32
ATOM     29  C   UNL     1      -0.003  -2.931  -2.613  0.00  0.00    +0.120 A 
ATOM     30  C   UNL     1      -0.601  -3.291  -1.414  0.00  0.00    +0.046 A 
ATOM     31  C   UNL     1      -1.823  -3.935  -1.419  0.00  0.00    +0.007 A 
ATOM     32  C   UNL     1      -2.449  -4.222  -2.618  0.00  0.00    -0.046 A 
ATOM     33  C   UNL     1      -1.855  -3.865  -3.814  0.00  0.00    +0.007 A 
ATOM     34  C   UNL     1      -0.636  -3.215  -3.814  0.00  0.00    +0.046 A 
BRANCH  29  36
ATOM     35  C   UNL     1       1.792  -2.036  -1.337  0.00  0.00    +0.277 C 
ATOM     36  O   UNL     1       1.198  -2.296  -2.610  0.00  0.00    -0.495 OA
ENDBRANCH  29  36
ENDBRANCH  28  32
ENDBRANCH  27  28
ENDBRANCH  23  27
ENDBRANCH   1  24
TORSDOF 6
