REMARK  Name = ZINC45864254
REMARK  13 active torsions:
REMARK  status: ('A' for Active; 'I' for Inactive)
REMARK    1  A    between atoms: C_1  and  C_2
REMARK    2  A    between atoms: C_4  and  N_31
REMARK    3  A    between atoms: C_6  and  C_7
REMARK    4  A    between atoms: N_9  and  C_10
REMARK    5  A    between atoms: C_10  and  C_11
REMARK    6  A    between atoms: C_11  and  C_13
REMARK    7  A    between atoms: C_11  and  C_21
REMARK    8  A    between atoms: C_16  and  O_19
REMARK    9  A    between atoms: O_19  and  C_20
REMARK   10  A    between atoms: C_32  and  C_34
REMARK   11  A    between atoms: C_34  and  C_35
REMARK   12  A    between atoms: C_34  and  C_36
REMARK   13  A    between atoms: C_34  and  C_37
REMARK                            x       y       z     vdW  Elec       q    Type
REMARK                         _______ _______ _______ _____ _____    ______ ____
ROOT
ATOM      1  C   UNL     1       0.059  -0.696   4.959  0.00  0.00    +0.117 C 
ENDROOT
BRANCH   1   4
ATOM      2  C   UNL     1       0.030  -0.278   2.559  0.00  0.00    +0.251 C 
ATOM      3  O   UNL     1       0.016   0.917   2.797  0.00  0.00    -0.270 OA
ATOM      4  N   UNL     1       0.052  -1.167   3.572  0.00  0.00    -0.310 N 
ATOM      5  H   UNL     1       0.063  -2.118   3.382  0.00  0.00    +0.149 HD
BRANCH   2  11
ATOM      6  C   UNL     1      -0.018   1.503   0.010  0.00  0.00    +0.045 C 
ATOM      7  C   UNL     1       0.002  -0.004   0.002  0.00  0.00    -0.029 A 
ATOM      8  C   UNL     1       0.007  -0.725  -1.164  0.00  0.00    +0.035 A 
ATOM      9  C   UNL     1       0.025  -2.098  -1.090  0.00  0.00    +0.073 A 
ATOM     10  S   UNL     1       0.037  -2.419   0.559  0.00  0.00    -0.069 S 
ATOM     11  C   UNL     1       0.023  -0.747   1.175  0.00  0.00    +0.078 A 
BRANCH   9  12
ATOM     12  N   UNL     1       0.033  -3.010  -2.139  0.00  0.00    -0.280 N 
ATOM     13  C   UNL     1       0.052  -4.333  -1.881  0.00  0.00    +0.223 C 
ATOM     14  O   UNL     1       0.063  -4.727  -0.734  0.00  0.00    -0.275 OA
ATOM     15  H   UNL     1       0.025  -2.695  -3.056  0.00  0.00    +0.155 HD
BRANCH  13  16
ATOM     16  C   UNL     1       0.061  -5.322  -3.018  0.00  0.00    +0.039 C 
ATOM     17  C   UNL     1       0.082  -6.745  -2.456  0.00  0.00    +0.020 C 
ATOM     18  C   UNL     1      -1.195  -5.130  -3.870  0.00  0.00    +0.020 C 
ATOM     19  C   UNL     1       1.303  -5.096  -3.882  0.00  0.00    +0.020 C 
ENDBRANCH  13  16
ENDBRANCH   9  12
ENDBRANCH   2  11
ENDBRANCH   1   4
BRANCH   1  20
ATOM     20  C   UNL     1       0.084  -1.899   5.905  0.00  0.00    +0.068 C 
BRANCH  20  21
ATOM     21  C   UNL     1       1.380  -2.647   5.731  0.00  0.00    -0.013 A 
ATOM     22  C   UNL     1       2.616  -2.162   5.931  0.00  0.00    +0.088 A 
ATOM     23  N   UNL     1       3.546  -3.132   5.675  0.00  0.00    -0.360 N 
ATOM     24  H   UNL     1       4.506  -3.017   5.750  0.00  0.00    +0.165 HD
ATOM     25  C   UNL     1       2.915  -4.295   5.294  0.00  0.00    +0.047 A 
ATOM     26  C   UNL     1       1.531  -4.045   5.319  0.00  0.00    +0.003 A 
ATOM     27  C   UNL     1       0.633  -5.059   4.980  0.00  0.00    +0.010 A 
ATOM     28  C   UNL     1       1.105  -6.292   4.628  0.00  0.00    +0.001 A 
ATOM     29  C   UNL     1       2.469  -6.546   4.606  0.00  0.00    +0.002 A 
ATOM     30  C   UNL     1       3.373  -5.557   4.928  0.00  0.00    +0.026 A 
ENDBRANCH  20  21
BRANCH  20  31
ATOM     31  C   UNL     1      -0.033  -1.420   7.329  0.00  0.00    -0.038 A 
ATOM     32  C   UNL     1       0.917  -0.560   7.848  0.00  0.00    +0.008 A 
ATOM     33  C   UNL     1       0.812  -0.120   9.154  0.00  0.00    +0.046 A 
ATOM     34  C   UNL     1      -0.247  -0.542   9.944  0.00  0.00    +0.120 A 
ATOM     35  C   UNL     1      -1.199  -1.405   9.420  0.00  0.00    +0.046 A 
ATOM     36  C   UNL     1      -1.093  -1.837   8.113  0.00  0.00    +0.008 A 
BRANCH  34  37
ATOM     37  O   UNL     1      -0.352  -0.111  11.228  0.00  0.00    -0.495 OA
ATOM     38  C   UNL     1      -1.469  -0.586  11.983  0.00  0.00    +0.277 C 
ENDBRANCH  34  37
ENDBRANCH  20  31
ENDBRANCH   1  20
TORSDOF 8
