REMARK  Name = ZINC35664233
REMARK  15 active torsions:
REMARK  status: ('A' for Active; 'I' for Inactive)
REMARK    1  A    between atoms: C_1  and  C_2
REMARK    2  A    between atoms: C_2  and  N_3
REMARK    3  A    between atoms: C_4  and  C_23
REMARK    4  A    between atoms: C_5  and  C_18
REMARK    5  A    between atoms: C_6  and  C_11
REMARK    6  A    between atoms: C_14  and  C_17
REMARK    7  A    between atoms: C_18  and  O_20
REMARK    8  A    between atoms: O_20  and  C_21
REMARK    9  A    between atoms: C_21  and  C_22
REMARK   10  A    between atoms: C_23  and  N_24
REMARK   11  A    between atoms: C_28  and  C_31
REMARK   12  A    between atoms: N_34  and  C_35
REMARK   13  A    between atoms: C_35  and  C_36
REMARK   14  A    between atoms: C_35  and  C_37
REMARK   15  A    between atoms: C_35  and  C_38
REMARK                            x       y       z     vdW  Elec       q    Type
REMARK                         _______ _______ _______ _____ _____    ______ ____
ROOT
ATOM      1  N   UNL     1      -1.252  -0.510  -0.148  0.00  0.00    -0.258 N 
ATOM      2  C   UNL     1      -2.172  -0.529   0.862  0.00  0.00    +0.041 C 
ATOM      3  C   UNL     1      -3.446  -0.916   0.637  0.00  0.00    +0.080 C 
ATOM      4  C   UNL     1      -3.820  -1.327  -0.773  0.00  0.00    +0.144 C 
ATOM      5  N   UNL     1      -2.755  -1.270  -1.789  0.00  0.00    -0.288 N 
ATOM      6  C   UNL     1      -1.529  -0.858  -1.411  0.00  0.00    +0.307 C 
ATOM      7  O   UNL     1      -0.645  -0.804  -2.243  0.00  0.00    -0.252 OA
ATOM      8  H   UNL     1      -2.933  -1.521  -2.709  0.00  0.00    +0.151 HD
ENDROOT
BRANCH   4   9
ATOM      9  C   UNL     1      -4.947  -0.438  -1.233  0.00  0.00    -0.022 A 
ATOM     10  C   UNL     1      -4.678   0.835  -1.698  0.00  0.00    +0.006 A 
ATOM     11  C   UNL     1      -5.711   1.650  -2.119  0.00  0.00    +0.004 A 
ATOM     12  C   UNL     1      -7.015   1.192  -2.076  0.00  0.00    -0.050 A 
ATOM     13  C   UNL     1      -7.284  -0.082  -1.612  0.00  0.00    +0.004 A 
ATOM     14  C   UNL     1      -6.250  -0.899  -1.195  0.00  0.00    +0.006 A 
ATOM     15  C   UNL     1      -8.142   2.081  -2.535  0.00  0.00    +0.044 C 
ENDBRANCH   4   9
BRANCH   1  17
ATOM     16  C   UNL     1       0.225   1.435  -0.019  0.00  0.00    +0.025 C 
ATOM     17  C   UNL     1       0.112  -0.080   0.168  0.00  0.00    +0.111 C 
ENDBRANCH   1  17
BRANCH   3  18
ATOM     18  C   UNL     1      -4.399  -0.937   1.681  0.00  0.00    +0.339 C 
ATOM     19  O   UNL     1      -4.653  -1.981   2.253  0.00  0.00    -0.245 OA
BRANCH  18  20
ATOM     20  O   UNL     1      -5.027   0.201   2.045  0.00  0.00    -0.462 OA
BRANCH  20  21
ATOM     21  C   UNL     1      -5.978   0.107   3.107  0.00  0.00    +0.229 C 
ATOM     22  C   UNL     1      -6.582   1.487   3.376  0.00  0.00    +0.048 C 
ENDBRANCH  20  21
ENDBRANCH  18  20
ENDBRANCH   3  18
BRANCH   2  23
ATOM     23  C   UNL     1      -1.758  -0.112   2.249  0.00  0.00    +0.136 C 
BRANCH  23  24
ATOM     24  N   UNL     1      -0.801  -1.088   2.788  0.00  0.00    -0.294 NA
ATOM     25  C   UNL     1      -1.438  -2.397   2.985  0.00  0.00    +0.104 C 
ATOM     26  C   UNL     1      -0.371  -3.427   3.373  0.00  0.00    +0.125 C 
ATOM     27  N   UNL     1       0.370  -2.916   4.536  0.00  0.00    -0.280 N 
ATOM     28  C   UNL     1       0.922  -1.554   4.465  0.00  0.00    +0.088 C 
ATOM     29  C   UNL     1      -0.195  -0.598   4.034  0.00  0.00    +0.107 C 
ATOM     30  C   UNL     1       1.453  -1.143   5.840  0.00  0.00    +0.029 C 
ATOM     31  C   UNL     1       0.540  -3.675   5.636  0.00  0.00    +0.303 C 
ATOM     32  O   UNL     1       1.079  -3.207   6.620  0.00  0.00    -0.253 OA
ATOM     33  N   UNL     1       0.113  -4.953   5.646  0.00  0.00    -0.294 N 
ATOM     34  H   UNL     1      -0.255  -5.348   4.839  0.00  0.00    +0.151 HD
BRANCH  33  35
ATOM     35  C   UNL     1       0.202  -5.746   6.874  0.00  0.00    +0.028 C 
ATOM     36  C   UNL     1      -0.618  -5.074   7.976  0.00  0.00    +0.031 C 
ATOM     37  C   UNL     1      -0.346  -7.151   6.615  0.00  0.00    +0.031 C 
ATOM     38  C   UNL     1       1.665  -5.843   7.313  0.00  0.00    +0.031 C 
ENDBRANCH  33  35
ENDBRANCH  23  24
ENDBRANCH   2  23
TORSDOF 8
