REMARK  Name = ZINC36925447
REMARK  4 active torsions:
REMARK  status: ('A' for Active; 'I' for Inactive)
REMARK    1  A    between atoms: C_6  and  C_7
REMARK    2  A    between atoms: C_7  and  C_8
REMARK    3  A    between atoms: C_10  and  C_13
REMARK    4  A    between atoms: C_18  and  N_19
REMARK                            x       y       z     vdW  Elec       q    Type
REMARK                         _______ _______ _______ _____ _____    ______ ____
ROOT
ATOM      1  C   UNL     1      -1.720  -1.080  -1.441  0.00  0.00    +0.176 A 
ATOM      2  N   UNL     1      -2.548  -0.291  -2.128  0.00  0.00    -0.191 NA
ATOM      3  C   UNL     1      -2.673  -0.735  -3.360  0.00  0.00    +0.260 A 
ATOM      4  O   UNL     1      -1.911  -1.836  -3.483  0.00  0.00    -0.333 OA
ATOM      5  N   UNL     1      -1.297  -2.036  -2.219  0.00  0.00    -0.061 NA
ENDROOT
BRANCH   3   6
ATOM      6  C   UNL     1      -3.502  -0.130  -4.419  0.00  0.00    +0.060 A 
ATOM      7  C   UNL     1      -3.451   1.246  -4.652  0.00  0.00    +0.016 A 
ATOM      8  C   UNL     1      -4.228   1.805  -5.643  0.00  0.00    +0.021 A 
ATOM      9  C   UNL     1      -5.061   1.008  -6.413  0.00  0.00    +0.043 A 
ATOM     10  C   UNL     1      -5.121  -0.355  -6.195  0.00  0.00    +0.043 A 
ATOM     11  C   UNL     1      -4.342  -0.935  -5.204  0.00  0.00    +0.038 A 
ATOM     12 CL   UNL     1      -6.034   1.726  -7.659  0.00  0.00    -0.083 Cl
BRANCH  11  13
ATOM     13  N   UNL     1      -4.396  -2.308  -4.986  0.00  0.00    -0.357 N 
ATOM     14  H   UNL     1      -3.925  -2.699  -4.233  0.00  0.00    +0.142 HD
ATOM     15  H   UNL     1      -4.906  -2.875  -5.586  0.00  0.00    +0.142 HD
ENDBRANCH  11  13
ENDBRANCH   3   6
BRANCH   1  16
ATOM     16  C   UNL     1      -1.330  -0.893   0.003  0.00  0.00    +0.114 C 
BRANCH  16  22
ATOM     17  C   UNL     1      -0.240   1.353   0.182  0.00  0.00    +0.007 A 
ATOM     18  C   UNL     1       0.883   2.155   0.256  0.00  0.00    +0.038 A 
ATOM     19  C   UNL     1       2.144   1.583   0.231  0.00  0.00    +0.123 A 
ATOM     20  C   UNL     1       2.278   0.208   0.133  0.00  0.00    +0.038 A 
ATOM     21  C   UNL     1       1.154  -0.592   0.059  0.00  0.00    +0.007 A 
ATOM     22  C   UNL     1      -0.105  -0.020   0.084  0.00  0.00    -0.040 A 
ATOM     23  F   UNL     1       3.243   2.366   0.303  0.00  0.00    -0.205 F 
ENDBRANCH  16  22
ENDBRANCH   1  16
TORSDOF 4
