REMARK  Name = ZINC59730154
REMARK  9 active torsions:
REMARK  status: ('A' for Active; 'I' for Inactive)
REMARK    1  A    between atoms: CG_4  and  CB_7
REMARK    2  A    between atoms: CB_7  and  CA_8
REMARK    3  A    between atoms: CA_8  and  C_10
REMARK    4  A    between atoms: CA_8  and  N_13
REMARK    5  A    between atoms: C_14  and  CA_16
REMARK    6  A    between atoms: CA_16  and  N_27
REMARK    7  A    between atoms: C_17  and  C_18
REMARK    8  A    between atoms: C_28  and  C_30
REMARK    9  A    between atoms: C_34  and  N_36
REMARK                            x       y       z     vdW  Elec       q    Type
REMARK                         _______ _______ _______ _____ _____    ______ ____
ROOT
ATOM      1  CA  UNL     1       1.925  -2.677   3.952  0.00  0.00    +0.097 C 
ATOM      2  C   UNL     1       1.517  -3.786   3.290  0.00  0.00    +0.036 C 
ENDROOT
BRANCH   2   3
ATOM      3  C   UNL     1       0.687  -4.787   3.974  0.00  0.00    -0.019 A 
ATOM      4  C   UNL     1      -0.014  -4.443   5.135  0.00  0.00    +0.012 A 
ATOM      5  C   UNL     1      -0.791  -5.385   5.774  0.00  0.00    +0.050 A 
ATOM      6  C   UNL     1      -0.881  -6.676   5.271  0.00  0.00    +0.166 A 
ATOM      7  C   UNL     1      -0.185  -7.026   4.113  0.00  0.00    +0.167 A 
ATOM      8  C   UNL     1       0.591  -6.087   3.463  0.00  0.00    +0.057 A 
ATOM      9  O   UNL     1      -0.439  -8.338   3.833  0.00  0.00    -0.453 OA
ATOM     10  C   UNL     1      -0.966  -8.896   5.051  0.00  0.00    +0.466 C 
ATOM     11  O   UNL     1      -1.570  -7.768   5.711  0.00  0.00    -0.453 OA
ENDBRANCH   2   3
BRANCH   1  13
ATOM     12  N   UNL     1       2.858  -1.725   1.909  0.00  0.00    -0.297 N 
ATOM     13  C   UNL     1       2.623  -1.605   3.231  0.00  0.00    +0.259 C 
ATOM     14  O   UNL     1       2.989  -0.610   3.826  0.00  0.00    -0.269 OA
ATOM     15  H   UNL     1       2.566  -2.519   1.434  0.00  0.00    +0.150 HD
BRANCH  12  16
ATOM     16  CA  UNL     1       3.554  -0.656   1.189  0.00  0.00    +0.191 C 
BRANCH  16  17
ATOM     17  C   UNL     1       5.043  -0.846   1.324  0.00  0.00    +0.376 C 
ATOM     18  O   UNL     1       5.785   0.121   1.311  0.00  0.00    -0.244 OA
ATOM     19  OXT UNL     1       5.505  -1.968   1.447  0.00  0.00    -0.244 OA
ENDBRANCH  16  17
BRANCH  16  20
ATOM     20  CB  UNL     1       3.167  -0.701  -0.290  0.00  0.00    +0.069 C 
BRANCH  20  24
ATOM     21  CZ  UNL     1      -0.992   0.184  -0.702  0.00  0.00    +0.000 A 
ATOM     22  CE1 UNL     1      -0.061   1.205  -0.738  0.00  0.00    +0.000 A 
ATOM     23  CD1 UNL     1       1.284   0.919  -0.604  0.00  0.00    +0.004 A 
ATOM     24  CG  UNL     1       1.699  -0.389  -0.435  0.00  0.00    -0.045 A 
ATOM     25  CD2 UNL     1       0.769  -1.410  -0.399  0.00  0.00    +0.004 A 
ATOM     26  CE2 UNL     1      -0.577  -1.124  -0.534  0.00  0.00    +0.000 A 
ENDBRANCH  20  24
ENDBRANCH  16  20
ENDBRANCH  12  16
ENDBRANCH   1  13
BRANCH   1  27
ATOM     27  N   UNL     1       1.681  -2.553   5.324  0.00  0.00    -0.277 N 
ATOM     28  C   UNL     1       0.983  -1.499   5.792  0.00  0.00    +0.248 C 
ATOM     29  O   UNL     1       0.662  -0.600   5.039  0.00  0.00    -0.270 OA
ATOM     30  H   UNL     1       2.013  -3.226   5.939  0.00  0.00    +0.155 HD
BRANCH  28  31
ATOM     31  C   UNL     1       0.610  -1.435   7.221  0.00  0.00    +0.039 A 
ATOM     32  C   UNL     1       1.076  -2.404   8.111  0.00  0.00    +0.013 A 
ATOM     33  C   UNL     1       0.724  -2.339   9.443  0.00  0.00    +0.003 A 
ATOM     34  C   UNL     1      -0.090  -1.316   9.897  0.00  0.00    +0.033 A 
ATOM     35  C   UNL     1      -0.556  -0.353   9.020  0.00  0.00    +0.127 A 
ATOM     36  C   UNL     1      -0.205  -0.403   7.687  0.00  0.00    +0.045 A 
BRANCH  35  37
ATOM     37  N   UNL     1      -1.426   0.738   9.515  0.00  0.00    +0.056 N 
ATOM     38  O   UNL     1      -1.730   0.786  10.684  0.00  0.00    -0.126 OA
ATOM     39  O   UNL     1      -1.834   1.580   8.749  0.00  0.00    -0.126 OA
ENDBRANCH  35  37
ENDBRANCH  28  31
ENDBRANCH   1  27
TORSDOF 9
