REMARK  Name = ZINC11719659
REMARK  10 active torsions:
REMARK  status: ('A' for Active; 'I' for Inactive)
REMARK    1  A    between atoms: C_1  and  C_2
REMARK    2  A    between atoms: C_2  and  C_3
REMARK    3  A    between atoms: C_2  and  C_4
REMARK    4  A    between atoms: C_9  and  N_10
REMARK    5  A    between atoms: C_11  and  C_13
REMARK    6  A    between atoms: C_13  and  C_15
REMARK    7  A    between atoms: C_13  and  N_58
REMARK    8  A    between atoms: C_18  and  N_21
REMARK    9  A    between atoms: N_21  and  S_22
REMARK   10  A    between atoms: S_22  and  C_25
REMARK                            x       y       z     vdW  Elec       q    Type
REMARK                         _______ _______ _______ _____ _____    ______ ____
ROOT
ATOM      1  C   UNL     1       3.362   1.778   0.163  0.00  0.00    -0.076 C 
ATOM      2  C   UNL     1       4.415   0.671   0.247  0.00  0.00    +0.002 C 
ATOM      3  C   UNL     1       4.254  -0.080   1.571  0.00  0.00    +0.073 C 
ATOM      4  C   UNL     1       2.834  -0.644   1.660  0.00  0.00    +0.002 C 
ATOM      5  C   UNL     1       1.826   0.501   1.535  0.00  0.00    -0.076 C 
ATOM      6  N   UNL     1       2.017   1.168   0.229  0.00  0.00    +0.387 N 
ATOM      7  H   UNL     1       1.932   0.468  -0.517  0.00  0.00    -0.081 HD
ENDROOT
BRANCH   6   8
ATOM      8  C   UNL     1       0.982   2.204   0.036  0.00  0.00    +0.016 C 
ATOM      9  C   UNL     1       1.221   2.901  -1.305  0.00  0.00    -0.004 C 
BRANCH   8  11
ATOM     10  N   UNL     1      -1.469   2.248   0.370  0.00  0.00    -0.287 N 
ATOM     11  C   UNL     1      -0.373   1.544   0.024  0.00  0.00    +0.203 C 
ATOM     12  O   UNL     1      -0.477   0.380  -0.301  0.00  0.00    -0.277 OA
ATOM     13  H   UNL     1      -1.396   3.196   0.560  0.00  0.00    +0.155 HD
BRANCH  10  19
ATOM     14  C   UNL     1      -3.881   2.354   0.376  0.00  0.00    -0.024 A 
ATOM     15  C   UNL     1      -5.107   1.723   0.460  0.00  0.00    +0.006 A 
ATOM     16  C   UNL     1      -5.169   0.351   0.623  0.00  0.00    +0.000 A 
ATOM     17  C   UNL     1      -4.006  -0.393   0.701  0.00  0.00    +0.002 A 
ATOM     18  C   UNL     1      -2.778   0.232   0.612  0.00  0.00    +0.023 A 
ATOM     19  C   UNL     1      -2.712   1.611   0.455  0.00  0.00    +0.037 A 
BRANCH  14  21
ATOM     20  C   UNL     1      -4.628   4.254  -1.032  0.00  0.00    +0.012 C 
ATOM     21  C   UNL     1      -3.814   3.849   0.198  0.00  0.00    +0.015 C 
ATOM     22  C   UNL     1      -4.389   4.537   1.438  0.00  0.00    +0.012 C 
ENDBRANCH  14  21
ENDBRANCH  10  19
ENDBRANCH   8  11
ENDBRANCH   6   8
BRANCH   3  23
ATOM     23  N   UNL     1       5.222  -1.178   1.632  0.00  0.00    -0.187 NA
ATOM     24  H   UNL     1       5.012  -2.033   1.225  0.00  0.00    +0.148 HD
BRANCH  23  25
ATOM     25  S   UNL     1       6.675  -0.960   2.396  0.00  0.00    +0.065 S 
ATOM     26  O   UNL     1       7.369  -2.197   2.309  0.00  0.00    -0.153 OA
ATOM     27  O   UNL     1       7.218   0.255   1.898  0.00  0.00    -0.153 OA
BRANCH  25  28
ATOM     28  C   UNL     1       6.331  -0.695   4.104  0.00  0.00    +0.142 A 
ATOM     29  C   UNL     1       6.228  -1.602   5.105  0.00  0.00    +0.036 A 
ATOM     30  C   UNL     1       5.949  -1.160   6.385  0.00  0.00    +0.010 A 
ATOM     31  C   UNL     1       5.785   0.168   6.600  0.00  0.00    +0.047 A 
ATOM     32  S   UNL     1       6.035   0.841   4.966  0.00  0.00    -0.077 S 
ENDBRANCH  25  28
ENDBRANCH  23  25
ENDBRANCH   3  23
TORSDOF 7
