REMARK  Name = ZINC39422333
REMARK  7 active torsions:
REMARK  status: ('A' for Active; 'I' for Inactive)
REMARK    1  A    between atoms: C_1  and  C_2
REMARK    2  A    between atoms: C_2  and  N_18
REMARK    3  A    between atoms: C_3  and  N_4
REMARK    4  A    between atoms: C_7  and  N_9
REMARK    5  A    between atoms: N_9  and  C_10
REMARK    6  A    between atoms: N_18  and  C_19
REMARK    7  A    between atoms: C_19  and  C_20
REMARK                            x       y       z     vdW  Elec       q    Type
REMARK                         _______ _______ _______ _____ _____    ______ ____
ROOT
ATOM      1  C   UNL     1      -1.641   1.379   0.158  0.00  0.00    +0.060 C 
ATOM      2  C   UNL     1      -1.513  -0.123   0.149  0.00  0.00    +0.003 C 
ATOM      3  C   UNL     1      -1.183  -0.769   1.266  0.00  0.00    +0.130 C 
ENDROOT
BRANCH   3   4
ATOM      4  N   UNL     1      -1.068  -2.123   1.257  0.00  0.00    -0.228 NA
ATOM      5  C   UNL     1      -0.743  -2.761   2.358  0.00  0.00    +0.198 C 
ATOM      6  N   UNL     1      -0.513  -4.062   2.808  0.00  0.00    -0.198 NA
ATOM      7  C   UNL     1      -0.183  -4.191   4.124  0.00  0.00    +0.188 C 
ATOM      8  S   UNL     1      -0.355  -2.422   4.060  0.00  0.00    -0.013 S 
BRANCH   7   9
ATOM      9  N   UNL     1       0.125  -5.170   5.024  0.00  0.00    -0.190 NA
BRANCH   9  10
ATOM     10  C   UNL     1       0.233  -4.861   6.383  0.00  0.00    +0.057 A 
ATOM     11  C   UNL     1      -0.383  -3.722   6.889  0.00  0.00    +0.027 A 
ATOM     12  C   UNL     1      -0.275  -3.419   8.232  0.00  0.00    +0.023 A 
ATOM     13  C   UNL     1       0.445  -4.248   9.074  0.00  0.00    +0.059 A 
ATOM     14  C   UNL     1       1.060  -5.384   8.573  0.00  0.00    +0.061 A 
ATOM     15  C   UNL     1       0.950  -5.694   7.231  0.00  0.00    +0.046 A 
ATOM     16 CL   UNL     1       1.963  -6.421   9.633  0.00  0.00    -0.082 Cl
ATOM     17 CL   UNL     1       0.579  -3.864  10.762  0.00  0.00    -0.082 Cl
ENDBRANCH   9  10
ENDBRANCH   7   9
ENDBRANCH   3   4
BRANCH   2  18
ATOM     18  N   UNL     1      -1.741  -0.837  -1.031  0.00  0.00    -0.404 NA
ATOM     19  H   UNL     1      -1.417  -0.296  -1.819  0.00  0.00    +0.123 HD
ATOM     20  H   UNL     1      -1.241  -1.712  -0.996  0.00  0.00    +0.123 HD
BRANCH  18  21
ATOM     21  C   UNL     1      -3.179  -1.099  -1.175  0.00  0.00    +0.118 C 
BRANCH  21  22
ATOM     22  C   UNL     1      -3.424  -1.869  -2.447  0.00  0.00    -0.028 A 
ATOM     23  C   UNL     1      -3.659  -1.191  -3.629  0.00  0.00    +0.009 A 
ATOM     24  C   UNL     1      -3.884  -1.892  -4.799  0.00  0.00    +0.050 A 
ATOM     25  C   UNL     1      -3.875  -3.278  -4.789  0.00  0.00    +0.166 A 
ATOM     26  C   UNL     1      -3.639  -3.961  -3.598  0.00  0.00    +0.167 A 
ATOM     27  C   UNL     1      -3.408  -3.251  -2.431  0.00  0.00    +0.054 A 
ATOM     28  O   UNL     1      -3.681  -5.302  -3.849  0.00  0.00    -0.453 OA
ATOM     29  C   UNL     1      -4.349  -5.435  -5.118  0.00  0.00    +0.466 C 
ATOM     30  O   UNL     1      -4.066  -4.191  -5.785  0.00  0.00    -0.453 OA
ENDBRANCH  21  22
ENDBRANCH  18  21
ENDBRANCH   2  18
TORSDOF 6
