REMARK  Name = ZINC64220525
REMARK  10 active torsions:
REMARK  status: ('A' for Active; 'I' for Inactive)
REMARK    1  A    between atoms: C_1  and  C_2
REMARK    2  A    between atoms: C_4  and  C_35
REMARK    3  A    between atoms: C_5  and  C_34
REMARK    4  A    between atoms: C_6  and  S_9
REMARK    5  A    between atoms: C_7  and  C_8
REMARK    6  A    between atoms: S_9  and  N_12
REMARK    7  A    between atoms: C_15  and  C_18
REMARK    8  A    between atoms: N_20  and  N_21
REMARK    9  A    between atoms: C_22  and  C_24
REMARK   10  A    between atoms: C_24  and  C_25
REMARK                            x       y       z     vdW  Elec       q    Type
REMARK                         _______ _______ _______ _____ _____    ______ ____
ROOT
ATOM      1  N   UNL     1       1.617  -2.804   3.335  0.00  0.00    -0.177 NA
ATOM      2  C   UNL     1       2.232  -4.110   3.061  0.00  0.00    +0.110 C 
ATOM      3  C   UNL     1       2.840  -4.651   4.358  0.00  0.00    +0.030 C 
ATOM      4  C   UNL     1       3.803  -3.612   4.937  0.00  0.00    +0.079 C 
ATOM      5  C   UNL     1       3.036  -2.328   5.262  0.00  0.00    +0.030 C 
ATOM      6  C   UNL     1       2.432  -1.759   3.969  0.00  0.00    +0.110 C 
ENDROOT
BRANCH   4   7
ATOM      7  C   UNL     1       4.429  -4.154   6.196  0.00  0.00    +0.232 C 
ATOM      8  O   UNL     1       4.134  -5.263   6.591  0.00  0.00    -0.274 OA
ATOM      9  N   UNL     1       5.316  -3.408   6.883  0.00  0.00    -0.234 N 
ATOM     10  H   UNL     1       5.552  -2.522   6.567  0.00  0.00    +0.173 HD
BRANCH   9  11
ATOM     11  N   UNL     1       5.898  -3.912   8.054  0.00  0.00    -0.234 N 
ATOM     12  C   UNL     1       6.786  -3.166   8.740  0.00  0.00    +0.233 C 
ATOM     13  O   UNL     1       7.081  -2.058   8.345  0.00  0.00    -0.274 OA
ATOM     14  H   UNL     1       5.663  -4.798   8.370  0.00  0.00    +0.173 HD
BRANCH  12  15
ATOM     15  C   UNL     1       7.412  -3.708   9.999  0.00  0.00    +0.130 C 
BRANCH  15  16
ATOM     16  C   UNL     1       8.360  -2.685  10.570  0.00  0.00    -0.033 C 
ATOM     17  C   UNL     1       8.091  -1.775  11.533  0.00  0.00    -0.001 A 
ATOM     18  C   UNL     1       6.880  -1.475  12.307  0.00  0.00    +0.010 A 
ATOM     19  C   UNL     1       6.917  -0.480  13.223  0.00  0.00    +0.001 A 
ATOM     20  C   UNL     1       8.079   0.270  13.450  0.00  0.00    +0.002 A 
ATOM     21  C   UNL     1       9.230   0.053  12.779  0.00  0.00    +0.026 A 
ATOM     22  C   UNL     1       9.305  -0.969  11.792  0.00  0.00    +0.043 A 
ATOM     23  N   UNL     1      10.287  -1.365  11.020  0.00  0.00    -0.380 N 
ATOM     24  C   UNL     1       9.808  -2.473  10.186  0.00  0.00    +0.145 C 
ATOM     25  H   UNL     1      11.182  -0.992  11.004  0.00  0.00    +0.160 HD
ENDBRANCH  15  16
ENDBRANCH  12  15
ENDBRANCH   9  11
ENDBRANCH   4   7
BRANCH   1  26
ATOM     26  S   UNL     1       0.037  -2.514   2.930  0.00  0.00    +0.061 S 
ATOM     27  O   UNL     1      -0.410  -1.460   3.772  0.00  0.00    -0.153 OA
ATOM     28  O   UNL     1      -0.609  -3.778   2.882  0.00  0.00    -0.153 OA
BRANCH  26  34
ATOM     29  C   UNL     1      -0.250  -3.191  -2.245  0.00  0.00    +0.044 C 
ATOM     30  C   UNL     1      -0.107  -2.250  -1.077  0.00  0.00    -0.045 A 
ATOM     31  C   UNL     1       0.017  -0.891  -1.296  0.00  0.00    +0.007 A 
ATOM     32  C   UNL     1       0.148  -0.027  -0.224  0.00  0.00    -0.045 A 
ATOM     33  C   UNL     1       0.154  -0.523   1.066  0.00  0.00    -0.021 A 
ATOM     34  C   UNL     1       0.029  -1.882   1.285  0.00  0.00    +0.112 A 
ATOM     35  C   UNL     1      -0.106  -2.745   0.214  0.00  0.00    -0.021 A 
ATOM     36  C   UNL     1      -0.248  -4.226   0.453  0.00  0.00    +0.046 C 
ATOM     37  C   UNL     1       0.298   0.418   2.234  0.00  0.00    +0.046 C 
ATOM     38  C   UNL     1       0.284   1.455  -0.463  0.00  0.00    +0.044 C 
ENDBRANCH  26  34
ENDBRANCH   1  26
TORSDOF 6
