REMARK  Name = ZINC20519216
REMARK  5 active torsions:
REMARK  status: ('A' for Active; 'I' for Inactive)
REMARK    1  A    between atoms: C_1  and  O_2
REMARK    2  A    between atoms: O_2  and  C_3
REMARK    3  A    between atoms: C_13  and  C_18
REMARK    4  A    between atoms: N_22  and  C_25
REMARK    5  A    between atoms: C_29  and  C_31
REMARK                            x       y       z     vdW  Elec       q    Type
REMARK                         _______ _______ _______ _____ _____    ______ ____
ROOT
ATOM      1  C   UNL     1      -6.410  -4.558  -0.884  0.00  0.00    +0.073 A 
ATOM      2  C   UNL     1      -7.498  -5.261  -0.457  0.00  0.00    +0.260 A 
ATOM      3  N   UNL     1      -8.352  -5.809  -1.379  0.00  0.00    -0.274 N 
ATOM      4  C   UNL     1      -8.122  -5.657  -2.696  0.00  0.00    +0.337 A 
ATOM      5  N   UNL     1      -7.055  -4.967  -3.138  0.00  0.00    -0.229 N 
ATOM      6  C   UNL     1      -6.194  -4.407  -2.265  0.00  0.00    +0.267 A 
ATOM      7  O   UNL     1      -5.231  -3.778  -2.670  0.00  0.00    -0.267 OA
ATOM      8  O   UNL     1      -8.890  -6.150  -3.499  0.00  0.00    -0.246 OA
ATOM      9  O   UNL     1      -7.731  -5.417   0.864  0.00  0.00    -0.267 OA
ATOM     10  H   UNL     1      -9.127  -6.310  -1.080  0.00  0.00    +0.173 HD
ENDROOT
BRANCH   1  21
ATOM     11  C   UNL     1      -4.898   2.113  -0.284  0.00  0.00    +0.121 A 
ATOM     12  C   UNL     1      -6.286   2.065  -0.390  0.00  0.00    +0.047 A 
ATOM     13  C   UNL     1      -6.950   0.860  -0.353  0.00  0.00    +0.030 A 
ATOM     14  C   UNL     1      -6.237  -0.325  -0.210  0.00  0.00    +0.047 A 
ATOM     15  C   UNL     1      -4.833  -0.281  -0.104  0.00  0.00    +0.006 A 
ATOM     16  C   UNL     1      -4.171   0.948  -0.147  0.00  0.00    +0.056 A 
ATOM     17  C   UNL     1      -4.403  -1.666   0.032  0.00  0.00    -0.022 A 
ATOM     18  C   UNL     1      -5.508  -2.440   0.001  0.00  0.00    +0.011 A 
ATOM     19  N   UNL     1      -6.612  -1.652  -0.142  0.00  0.00    -0.359 N 
ATOM     20  H   UNL     1      -7.525  -1.976  -0.189  0.00  0.00    +0.166 HD
ATOM     21  C   UNL     1      -5.457  -3.946   0.110  0.00  0.00    +0.018 C 
ATOM     22  N   UNL     1      -4.085  -4.390  -0.178  0.00  0.00    +0.388 N 
ATOM     23  C   UNL     1      -3.128  -3.667   0.671  0.00  0.00    -0.076 C 
ATOM     24  C   UNL     1      -3.007  -2.215   0.186  0.00  0.00    +0.018 C 
ATOM     25  H   UNL     1      -4.009  -5.380   0.002  0.00  0.00    -0.084 HD
ATOM     26  H   UNL     1      -3.872  -4.211  -1.148  0.00  0.00    -0.084 HD
BRANCH  11  28
ATOM     27  C   UNL     1      -5.070   4.478  -0.465  0.00  0.00    +0.277 C 
ATOM     28  O   UNL     1      -4.257   3.311  -0.322  0.00  0.00    -0.495 OA
ENDBRANCH  11  28
ENDBRANCH   1  21
BRANCH   5  29
ATOM     29  C   UNL     1      -6.839  -4.825  -4.515  0.00  0.00    +0.055 A 
ATOM     30  C   UNL     1      -6.081  -5.764  -5.201  0.00  0.00    +0.026 A 
ATOM     31  C   UNL     1      -5.870  -5.621  -6.559  0.00  0.00    +0.003 A 
ATOM     32  C   UNL     1      -6.414  -4.544  -7.234  0.00  0.00    +0.012 A 
ATOM     33  C   UNL     1      -7.169  -3.607  -6.554  0.00  0.00    +0.057 A 
ATOM     34  C   UNL     1      -7.388  -3.748  -5.197  0.00  0.00    +0.038 A 
BRANCH  33  35
ATOM     35  C   UNL     1      -7.759  -2.434  -7.294  0.00  0.00    +0.417 C 
ATOM     36  F   UNL     1      -7.407  -2.512  -8.646  0.00  0.00    -0.166 F 
ATOM     37  F   UNL     1      -9.152  -2.459  -7.173  0.00  0.00    -0.166 F 
ATOM     38  F   UNL     1      -7.264  -1.244  -6.751  0.00  0.00    -0.166 F 
ENDBRANCH  33  35
ENDBRANCH   5  29
TORSDOF 4
