REMARK  Name = ZINC24748451
REMARK  8 active torsions:
REMARK  status: ('A' for Active; 'I' for Inactive)
REMARK    1  A    between atoms: C_1  and  C_2
REMARK    2  A    between atoms: C_7  and  C_8
REMARK    3  A    between atoms: C_8  and  C_10
REMARK    4  A    between atoms: C_8  and  N_11
REMARK    5  A    between atoms: N_14  and  C_15
REMARK    6  A    between atoms: C_15  and  C_16
REMARK    7  A    between atoms: N_18  and  C_19
REMARK    8  A    between atoms: C_24  and  C_25
REMARK                            x       y       z     vdW  Elec       q    Type
REMARK                         _______ _______ _______ _____ _____    ______ ____
ROOT
ATOM      1  N   UNL     1      -1.105   2.099  -0.043  0.00  0.00    -0.293 N 
ATOM      2  C   UNL     1       0.057   1.417  -0.081  0.00  0.00    +0.300 C 
ATOM      3  O   UNL     1       0.048   0.202  -0.108  0.00  0.00    -0.253 OA
ATOM      4  N   UNL     1       1.229   2.083  -0.093  0.00  0.00    -0.291 N 
ATOM      5  H   UNL     1      -1.097   3.199  -0.019  0.00  0.00    +0.151 HD
ATOM      6  H   UNL     1       1.237   3.183  -0.069  0.00  0.00    +0.151 HD
ENDROOT
BRANCH   1   7
ATOM      7  C   UNL     1      -2.379   1.375  -0.035  0.00  0.00    +0.102 C 
ATOM      8  C   UNL     1      -2.794   1.090   1.409  0.00  0.00    +0.033 C 
BRANCH   7  15
ATOM      9  C   UNL     1      -4.669   0.105  -1.256  0.00  0.00    +0.044 C 
ATOM     10  C   UNL     1      -4.532   1.606  -1.290  0.00  0.00    -0.046 A 
ATOM     11  C   UNL     1      -5.505   2.375  -1.901  0.00  0.00    +0.004 A 
ATOM     12  C   UNL     1      -5.378   3.751  -1.936  0.00  0.00    +0.000 A 
ATOM     13  C   UNL     1      -4.279   4.358  -1.356  0.00  0.00    +0.000 A 
ATOM     14  C   UNL     1      -3.309   3.590  -0.741  0.00  0.00    +0.006 A 
ATOM     15  C   UNL     1      -3.437   2.213  -0.706  0.00  0.00    -0.025 A 
ENDBRANCH   7  15
ENDBRANCH   1   7
BRANCH   4  16
ATOM     16  C   UNL     1       2.492   1.343  -0.140  0.00  0.00    +0.202 C 
BRANCH  16  17
ATOM     17  C   UNL     1       3.644   2.314  -0.146  0.00  0.00    +0.234 C 
ATOM     18  O   UNL     1       3.431   3.507  -0.114  0.00  0.00    -0.274 OA
ATOM     19  N   UNL     1       4.911   1.856  -0.186  0.00  0.00    -0.284 N 
ATOM     20  H   UNL     1       5.108   0.776  -0.123  0.00  0.00    +0.155 HD
BRANCH  19  21
ATOM     21  C   UNL     1       5.976   2.756  -0.309  0.00  0.00    +0.036 A 
ATOM     22  C   UNL     1       5.772   4.001  -0.890  0.00  0.00    +0.024 A 
ATOM     23  C   UNL     1       6.825   4.886  -1.009  0.00  0.00    +0.017 A 
ATOM     24  C   UNL     1       8.082   4.534  -0.550  0.00  0.00    +0.018 A 
ATOM     25  C   UNL     1       8.288   3.295   0.029  0.00  0.00    +0.020 A 
ATOM     26  C   UNL     1       7.238   2.407   0.155  0.00  0.00    -0.028 A 
ATOM     27  C   UNL     1       7.461   1.060   0.792  0.00  0.00    +0.046 C 
ATOM     28 BR   UNL     1       9.522   5.750  -0.715  0.00  0.00    -0.050 Br
ENDBRANCH  19  21
ENDBRANCH  16  17
ENDBRANCH   4  16
TORSDOF 5
