REMARK  Name = ZINC40342717
REMARK  10 active torsions:
REMARK  status: ('A' for Active; 'I' for Inactive)
REMARK    1  A    between atoms: C_1  and  C_2
REMARK    2  A    between atoms: C_2  and  O_3
REMARK    3  A    between atoms: O_3  and  C_4
REMARK    4  A    between atoms: C_6  and  C_11
REMARK    5  A    between atoms: C_9  and  O_10
REMARK    6  A    between atoms: C_14  and  C_30
REMARK    7  A    between atoms: N_21  and  C_22
REMARK    8  A    between atoms: C_22  and  C_23
REMARK    9  A    between atoms: C_23  and  C_24
REMARK   10  A    between atoms: C_24  and  N_25
REMARK                            x       y       z     vdW  Elec       q    Type
REMARK                         _______ _______ _______ _____ _____    ______ ____
ROOT
ATOM      1  C   UNL     1      -0.229  -4.969   0.477  0.00  0.00    +0.141 C 
ATOM      2  C   UNL     1       0.865  -5.512   1.356  0.00  0.00    +0.035 A 
ATOM      3  C   UNL     1       1.861  -5.251   2.241  0.00  0.00    +0.072 A 
ATOM      4  N   UNL     1       2.410  -6.455   2.579  0.00  0.00    -0.276 N 
ATOM      5  N   UNL     1       1.805  -7.403   1.955  0.00  0.00    -0.168 NA
ATOM      6  H   UNL     1       3.147  -6.578   3.198  0.00  0.00    +0.189 HD
ATOM      7  C   UNL     1       0.850  -6.915   1.189  0.00  0.00    +0.153 A 
ATOM      8  C   UNL     1      -0.222  -7.245   0.232  0.00  0.00    +0.268 C 
ATOM      9  O   UNL     1      -0.503  -8.370  -0.133  0.00  0.00    -0.268 OA
ATOM     10  N   UNL     1      -0.846  -6.127  -0.179  0.00  0.00    -0.285 N 
ENDROOT
BRANCH   3  11
ATOM     11  C   UNL     1       2.274  -3.921   2.741  0.00  0.00    +0.000 A 
ATOM     12  C   UNL     1       2.413  -2.852   1.855  0.00  0.00    +0.011 A 
ATOM     13  C   UNL     1       2.798  -1.614   2.327  0.00  0.00    +0.020 A 
ATOM     14  C   UNL     1       3.046  -1.431   3.677  0.00  0.00    +0.041 A 
ATOM     15  C   UNL     1       2.909  -2.489   4.561  0.00  0.00    +0.020 A 
ATOM     16  C   UNL     1       2.519  -3.729   4.101  0.00  0.00    +0.011 A 
ATOM     17 CL   UNL     1       3.531   0.129   4.264  0.00  0.00    -0.084 Cl
ENDBRANCH   3  11
BRANCH   1  20
ATOM     18  C   UNL     1       0.777  -1.811  -1.336  0.00  0.00    +0.162 A 
ATOM     19  C   UNL     1       0.243  -2.669  -0.388  0.00  0.00    +0.055 A 
ATOM     20  C   UNL     1       0.352  -4.037  -0.555  0.00  0.00    -0.019 A 
ATOM     21  C   UNL     1       0.992  -4.552  -1.667  0.00  0.00    +0.009 A 
ATOM     22  C   UNL     1       1.526  -3.702  -2.616  0.00  0.00    +0.049 A 
ATOM     23  C   UNL     1       1.416  -2.330  -2.458  0.00  0.00    +0.158 A 
BRANCH  23  24
ATOM     24  O   UNL     1       1.936  -1.492  -3.394  0.00  0.00    -0.503 OA
ATOM     25  H   UNL     1       2.856  -1.241  -3.231  0.00  0.00    +0.292 HD
ENDBRANCH  23  24
BRANCH  18  26
ATOM     26  O   UNL     1       0.671  -0.465  -1.174  0.00  0.00    -0.489 OA
BRANCH  26  28
ATOM     27  C   UNL     1      -0.019   1.526   0.010  0.00  0.00    +0.048 C 
ATOM     28  C   UNL     1       0.002  -0.004   0.002  0.00  0.00    +0.226 C 
ENDBRANCH  26  28
ENDBRANCH  18  26
ENDBRANCH   1  20
BRANCH  10  29
ATOM     29  C   UNL     1      -1.961  -6.073  -1.128  0.00  0.00    +0.111 C 
BRANCH  29  30
ATOM     30  C   UNL     1      -1.414  -5.933  -2.550  0.00  0.00    +0.040 C 
BRANCH  30  31
ATOM     31  C   UNL     1      -2.578  -5.877  -3.541  0.00  0.00    +0.124 C 
BRANCH  31  32
ATOM     32  N   UNL     1      -2.055  -5.744  -4.903  0.00  0.00    -0.338 N 
ATOM     33  C   UNL     1      -1.788  -4.572  -5.559  0.00  0.00    +0.104 A 
ATOM     34  C   UNL     1      -1.324  -4.906  -6.779  0.00  0.00    +0.101 A 
ATOM     35  N   UNL     1      -1.308  -6.244  -6.864  0.00  0.00    -0.352 N 
ATOM     36  C   UNL     1      -1.740  -6.753  -5.743  0.00  0.00    +0.173 A 
ATOM     37  H   UNL     1      -1.018  -6.754  -7.637  0.00  0.00    +0.166 HD
ENDBRANCH  31  32
ENDBRANCH  30  31
ENDBRANCH  29  30
ENDBRANCH  10  29
TORSDOF 9
