REMARK  Name = ZINC36039392
REMARK  9 active torsions:
REMARK  status: ('A' for Active; 'I' for Inactive)
REMARK    1  A    between atoms: C_1  and  C_2
REMARK    2  A    between atoms: C_2  and  N_3
REMARK    3  A    between atoms: N_3  and  C_4
REMARK    4  A    between atoms: C_4  and  C_5
REMARK    5  A    between atoms: C_5  and  N_7
REMARK    6  A    between atoms: C_10  and  C_21
REMARK    7  A    between atoms: N_12  and  C_13
REMARK    8  A    between atoms: C_16  and  O_19
REMARK    9  A    between atoms: O_19  and  C_20
REMARK                            x       y       z     vdW  Elec       q    Type
REMARK                         _______ _______ _______ _____ _____    ______ ____
ROOT
ATOM      1  N   UNL     1       1.552  -3.735  -2.673  0.00  0.00    -0.148 NA
ATOM      2  C   UNL     1       2.176  -4.165  -3.770  0.00  0.00    +0.205 A 
ATOM      3  N   UNL     1       2.721  -3.382  -4.737  0.00  0.00    -0.326 N 
ATOM      4  C   UNL     1       3.272  -4.217  -5.701  0.00  0.00    +0.066 A 
ATOM      5  C   UNL     1       3.060  -5.488  -5.316  0.00  0.00    +0.120 A 
ATOM      6  N   UNL     1       2.384  -5.464  -4.113  0.00  0.00    -0.287 N 
ATOM      7  H   UNL     1       2.724  -2.412  -4.752  0.00  0.00    +0.169 HD
ENDROOT
BRANCH   4   8
ATOM      8  C   UNL     1       3.969  -3.785  -6.932  0.00  0.00    -0.000 A 
ATOM      9  C   UNL     1       4.472  -4.734  -7.822  0.00  0.00    +0.011 A 
ATOM     10  C   UNL     1       5.120  -4.325  -8.969  0.00  0.00    +0.020 A 
ATOM     11  C   UNL     1       5.273  -2.975  -9.238  0.00  0.00    +0.041 A 
ATOM     12  C   UNL     1       4.776  -2.029  -8.358  0.00  0.00    +0.020 A 
ATOM     13  C   UNL     1       4.120  -2.426  -7.211  0.00  0.00    +0.011 A 
ATOM     14 CL   UNL     1       6.091  -2.468 -10.682  0.00  0.00    -0.084 Cl
ENDBRANCH   4   8
BRANCH   6  15
ATOM     15  C   UNL     1       1.978  -6.585  -3.376  0.00  0.00    +0.049 A 
ATOM     16  C   UNL     1       1.293  -6.418  -2.179  0.00  0.00    +0.030 A 
ATOM     17  C   UNL     1       0.893  -7.522  -1.453  0.00  0.00    +0.047 A 
ATOM     18  C   UNL     1       1.176  -8.799  -1.919  0.00  0.00    +0.120 A 
ATOM     19  C   UNL     1       1.861  -8.966  -3.114  0.00  0.00    +0.047 A 
ATOM     20  C   UNL     1       2.256  -7.862  -3.844  0.00  0.00    +0.030 A 
BRANCH  18  21
ATOM     21  O   UNL     1       0.782  -9.885  -1.203  0.00  0.00    -0.495 OA
ATOM     22  C   UNL     1       1.107 -11.169  -1.741  0.00  0.00    +0.277 C 
ENDBRANCH  18  21
ENDBRANCH   6  15
BRANCH   1  23
ATOM     23  C   UNL     1       1.415  -2.433  -2.455  0.00  0.00    +0.222 C 
ATOM     24  O   UNL     1       1.859  -1.632  -3.255  0.00  0.00    -0.276 OA
BRANCH  23  25
ATOM     25  C   UNL     1       0.710  -1.947  -1.215  0.00  0.00    +0.017 C 
BRANCH  25  26
ATOM     26  N   UNL     1       0.690  -0.478  -1.207  0.00  0.00    +0.385 N 
ATOM     27  H   UNL     1       0.202  -0.144  -2.024  0.00  0.00    -0.085 HD
ATOM     28  H   UNL     1       1.636  -0.129  -1.214  0.00  0.00    -0.085 HD
BRANCH  26  30
ATOM     29  C   UNL     1      -0.019   1.526   0.010  0.00  0.00    -0.017 C 
ATOM     30  C   UNL     1       0.002  -0.004   0.002  0.00  0.00    -0.085 C 
ENDBRANCH  26  30
ENDBRANCH  25  26
ENDBRANCH  23  25
ENDBRANCH   1  23
TORSDOF 7
