REMARK  Name = ZINC18250127
REMARK  9 active torsions:
REMARK  status: ('A' for Active; 'I' for Inactive)
REMARK    1  A    between atoms: C_1  and  C_2
REMARK    2  A    between atoms: C_3  and  C_14
REMARK    3  A    between atoms: C_4  and  O_13
REMARK    4  A    between atoms: N_5  and  C_7
REMARK    5  A    between atoms: C_14  and  C_15
REMARK    6  A    between atoms: C_14  and  C_21
REMARK    7  A    between atoms: C_22  and  C_33
REMARK    8  A    between atoms: N_24  and  C_27
REMARK    9  A    between atoms: C_25  and  O_26
REMARK                            x       y       z     vdW  Elec       q    Type
REMARK                         _______ _______ _______ _____ _____    ______ ____
ROOT
ATOM      1  C   UNL     1      -2.474   0.952   0.001  0.00  0.00    +0.093 C 
ENDROOT
BRANCH   1   4
ATOM      2  C   UNL     1      -2.961  -0.992   2.452  0.00  0.00    +0.068 C 
ATOM      3  C   UNL     1      -3.197   0.496   2.446  0.00  0.00    +0.068 A 
ATOM      4  C   UNL     1      -2.982   1.353   1.362  0.00  0.00    +0.048 A 
ATOM      5  C   UNL     1      -3.307   2.613   1.756  0.00  0.00    +0.220 A 
ATOM      6  N   UNL     1      -3.722   2.543   3.049  0.00  0.00    -0.200 N 
ATOM      7  N   UNL     1      -3.639   1.205   3.453  0.00  0.00    -0.168 NA
BRANCH   6   8
ATOM      8  C   UNL     1      -4.151   3.619   3.837  0.00  0.00    +0.069 A 
ATOM      9  C   UNL     1      -3.565   4.869   3.688  0.00  0.00    +0.028 A 
ATOM     10  C   UNL     1      -3.993   5.929   4.464  0.00  0.00    +0.002 A 
ATOM     11  C   UNL     1      -4.997   5.743   5.396  0.00  0.00    +0.000 A 
ATOM     12  C   UNL     1      -5.580   4.499   5.551  0.00  0.00    +0.002 A 
ATOM     13  C   UNL     1      -5.159   3.437   4.774  0.00  0.00    +0.028 A 
ENDBRANCH   6   8
BRANCH   5  14
ATOM     14  O   UNL     1      -3.232   3.736   0.996  0.00  0.00    -0.492 OA
ATOM     15  H   UNL     1      -4.015   3.895   0.452  0.00  0.00    +0.294 HD
ENDBRANCH   5  14
ENDBRANCH   1   4
BRANCH   1  16
ATOM     16  C   UNL     1      -1.102   1.536  -0.216  0.00  0.00    -0.035 A 
ATOM     17  C   UNL     1       0.006   0.711  -0.231  0.00  0.00    +0.004 A 
ATOM     18  C   UNL     1       1.264   1.246  -0.435  0.00  0.00    +0.000 A 
ATOM     19  C   UNL     1       1.414   2.608  -0.619  0.00  0.00    +0.000 A 
ATOM     20  C   UNL     1       0.306   3.434  -0.598  0.00  0.00    +0.000 A 
ATOM     21  C   UNL     1      -0.952   2.899  -0.394  0.00  0.00    +0.004 A 
ENDBRANCH   1  16
BRANCH   1  22
ATOM     22  C   UNL     1      -3.414   1.469  -1.058  0.00  0.00    +0.048 A 
ATOM     23  C   UNL     1      -4.803   1.577  -0.944  0.00  0.00    +0.068 A 
ATOM     24  N   UNL     1      -5.274   2.067  -2.063  0.00  0.00    -0.168 NA
ATOM     25  N   UNL     1      -4.199   2.290  -2.933  0.00  0.00    -0.200 N 
ATOM     26  C   UNL     1      -3.059   1.919  -2.291  0.00  0.00    +0.220 A 
ATOM     27  C   UNL     1      -5.621   1.194   0.262  0.00  0.00    +0.068 C 
BRANCH  25  28
ATOM     28  C   UNL     1      -4.283   2.808  -4.233  0.00  0.00    +0.069 A 
ATOM     29  C   UNL     1      -3.280   3.637  -4.718  0.00  0.00    +0.028 A 
ATOM     30  C   UNL     1      -3.363   4.143  -6.000  0.00  0.00    +0.002 A 
ATOM     31  C   UNL     1      -4.450   3.833  -6.798  0.00  0.00    +0.000 A 
ATOM     32  C   UNL     1      -5.453   3.012  -6.316  0.00  0.00    +0.002 A 
ATOM     33  C   UNL     1      -5.372   2.499  -5.036  0.00  0.00    +0.028 A 
ENDBRANCH  25  28
BRANCH  26  34
ATOM     34  O   UNL     1      -1.799   1.984  -2.790  0.00  0.00    -0.492 OA
ATOM     35  H   UNL     1      -1.547   1.218  -3.323  0.00  0.00    +0.294 HD
ENDBRANCH  26  34
ENDBRANCH   1  22
TORSDOF 7
