REMARK  Name = ZINC44031061
REMARK  8 active torsions:
REMARK  status: ('A' for Active; 'I' for Inactive)
REMARK    1  A    between atoms: C_1  and  C_2
REMARK    2  A    between atoms: C_2  and  C_3
REMARK    3  A    between atoms: N_15  and  C_16
REMARK    4  A    between atoms: C_19  and  N_22
REMARK    5  A    between atoms: C_23  and  C_25
REMARK    6  A    between atoms: C_25  and  C_26
REMARK    7  A    between atoms: C_26  and  C_27
REMARK    8  A    between atoms: C_26  and  C_28
REMARK                            x       y       z     vdW  Elec       q    Type
REMARK                         _______ _______ _______ _____ _____    ______ ____
ROOT
ATOM      1  C   UNL     1      -1.713  -0.833  -2.290  0.00  0.00    +0.108 C 
ATOM      2  C   UNL     1      -0.351  -0.946  -1.607  0.00  0.00    -0.017 A 
ATOM      3  C   UNL     1       0.858  -0.845  -2.294  0.00  0.00    +0.013 A 
ATOM      4  C   UNL     1       2.027  -0.959  -1.624  0.00  0.00    +0.046 A 
ATOM      5  S   UNL     1       1.468  -1.220   0.052  0.00  0.00    -0.101 S 
ATOM      6  C   UNL     1      -0.276  -1.155  -0.265  0.00  0.00    -0.004 A 
ATOM      7  C   UNL     1      -1.402  -1.293   0.708  0.00  0.00    +0.062 C 
ATOM      8  C   UNL     1      -2.696  -1.567  -0.073  0.00  0.00    +0.115 C 
ATOM      9  N   UNL     1      -2.730  -0.674  -1.241  0.00  0.00    -0.278 N 
ATOM     10  C   UNL     1      -3.679   0.278  -1.348  0.00  0.00    +0.307 C 
ATOM     11  O   UNL     1      -4.567   0.347  -0.520  0.00  0.00    -0.252 OA
ATOM     12  N   UNL     1      -3.643   1.152  -2.373  0.00  0.00    -0.269 N 
ATOM     13  H   UNL     1      -2.997   1.037  -3.087  0.00  0.00    +0.156 HD
ENDROOT
BRANCH  12  14
ATOM     14  C   UNL     1      -4.540   2.228  -2.407  0.00  0.00    +0.035 A 
ATOM     15  C   UNL     1      -4.949   2.829  -1.224  0.00  0.00    +0.025 A 
ATOM     16  C   UNL     1      -5.833   3.889  -1.257  0.00  0.00    +0.025 A 
ATOM     17  C   UNL     1      -6.313   4.355  -2.474  0.00  0.00    +0.033 A 
ATOM     18  C   UNL     1      -5.903   3.754  -3.658  0.00  0.00    +0.025 A 
ATOM     19  C   UNL     1      -5.016   2.698  -3.625  0.00  0.00    +0.025 A 
BRANCH  17  20
ATOM     20  N   UNL     1      -7.210   5.430  -2.508  0.00  0.00    -0.285 N 
ATOM     21  C   UNL     1      -7.112   6.418  -1.597  0.00  0.00    +0.217 C 
ATOM     22  O   UNL     1      -6.185   6.433  -0.815  0.00  0.00    -0.275 OA
ATOM     23  H   UNL     1      -7.902   5.463  -3.188  0.00  0.00    +0.155 HD
BRANCH  21  24
ATOM     24  C   UNL     1      -8.155   7.505  -1.549  0.00  0.00    +0.099 C 
BRANCH  24  25
ATOM     25  C   UNL     1      -7.811   8.493  -0.433  0.00  0.00    -0.008 C 
ATOM     26  C   UNL     1      -8.798   9.662  -0.465  0.00  0.00    +0.008 C 
ATOM     27  C   UNL     1      -7.902   7.786   0.920  0.00  0.00    +0.008 C 
ENDBRANCH  24  25
ENDBRANCH  21  24
ENDBRANCH  17  20
ENDBRANCH  12  14
BRANCH   1  29
ATOM     28  C   UNL     1      -3.311  -1.939  -3.860  0.00  0.00    +0.006 C 
ATOM     29  C   UNL     1      -1.995  -2.102  -3.096  0.00  0.00    +0.024 C 
ENDBRANCH   1  29
TORSDOF 5
