REMARK  Name = ZINC14361473
REMARK  10 active torsions:
REMARK  status: ('A' for Active; 'I' for Inactive)
REMARK    1  A    between atoms: C_1  and  C_2
REMARK    2  A    between atoms: C_2  and  C_3
REMARK    3  A    between atoms: C_3  and  C_4
REMARK    4  A    between atoms: C_3  and  C_5
REMARK    5  A    between atoms: C_3  and  C_6
REMARK    6  A    between atoms: C_10  and  C_33
REMARK    7  A    between atoms: C_20  and  C_21
REMARK    8  A    between atoms: C_24  and  N_30
REMARK    9  A    between atoms: C_25  and  N_27
REMARK   10  A    between atoms: N_30  and  C_31
REMARK                            x       y       z     vdW  Elec       q    Type
REMARK                         _______ _______ _______ _____ _____    ______ ____
ROOT
ATOM      1  C   UNL     1      -0.821   1.876  -0.527  0.00  0.00    +0.003 C 
ATOM      2  C   UNL     1      -0.296   0.919   0.540  0.00  0.00    +0.042 C 
ATOM      3  C   UNL     1      -1.288   0.754   1.658  0.00  0.00    -0.009 A 
ATOM      4  C   UNL     1      -0.832   0.325   2.899  0.00  0.00    +0.077 A 
ATOM      5  C   UNL     1      -1.820   0.167   3.967  0.00  0.00    +0.013 A 
ATOM      6  C   UNL     1      -1.452  -0.260   5.247  0.00  0.00    +0.011 A 
ATOM      7  C   UNL     1      -2.406  -0.397   6.212  0.00  0.00    +0.001 A 
ATOM      8  C   UNL     1      -3.743  -0.116   5.939  0.00  0.00    +0.002 A 
ATOM      9  C   UNL     1      -4.135   0.303   4.704  0.00  0.00    +0.026 A 
ATOM     10  C   UNL     1      -3.179   0.456   3.683  0.00  0.00    +0.048 A 
ATOM     11  N   UNL     1      -3.531   0.864   2.465  0.00  0.00    -0.354 N 
ATOM     12  C   UNL     1      -2.658   1.018   1.483  0.00  0.00    +0.047 A 
ATOM     13  C   UNL     1      -3.145   1.482   0.166  0.00  0.00    -0.023 C 
ATOM     14  C   UNL     1      -4.391   1.967   0.018  0.00  0.00    +0.013 C 
ATOM     15  C   UNL     1      -2.195   1.394  -1.009  0.00  0.00    +0.041 C 
ATOM     16  H   UNL     1      -4.585   1.089   2.244  0.00  0.00    +0.166 HD
ENDROOT
BRANCH  14  17
ATOM     17  C   UNL     1      -4.914   2.254  -1.328  0.00  0.00    -0.022 A 
ATOM     18  C   UNL     1      -4.617   1.397  -2.393  0.00  0.00    +0.010 A 
ATOM     19  C   UNL     1      -5.108   1.668  -3.650  0.00  0.00    +0.026 A 
ATOM     20  C   UNL     1      -5.899   2.794  -3.862  0.00  0.00    +0.058 A 
ATOM     21  C   UNL     1      -6.196   3.649  -2.806  0.00  0.00    +0.147 A 
ATOM     22  C   UNL     1      -5.713   3.382  -1.544  0.00  0.00    +0.042 A 
BRANCH  21  23
ATOM     23  N   UNL     1      -7.037   4.845  -3.037  0.00  0.00    +0.058 N 
ATOM     24  O   UNL     1      -6.789   5.886  -2.456  0.00  0.00    -0.126 OA
ATOM     25  O   UNL     1      -7.979   4.787  -3.808  0.00  0.00    -0.126 OA
ENDBRANCH  21  23
BRANCH  20  26
ATOM     26  N   UNL     1      -6.394   3.065  -5.136  0.00  0.00    -0.345 N 
ATOM     27  C   UNL     1      -6.193   2.101  -6.221  0.00  0.00    +0.125 C 
ATOM     28  H   UNL     1      -6.936   4.003  -5.327  0.00  0.00    +0.146 HD
ENDBRANCH  20  26
ENDBRANCH  14  17
BRANCH   1  29
ATOM     29  C   UNL     1       0.152   1.907  -1.708  0.00  0.00    -0.032 C 
ATOM     30  C   UNL     1       1.524   2.383  -1.226  0.00  0.00    +0.011 C 
ATOM     31  C   UNL     1       0.280   0.502  -2.300  0.00  0.00    +0.011 C 
BRANCH  29  33
ATOM     32  C   UNL     1       0.599   2.896  -3.958  0.00  0.00    +0.004 C 
ATOM     33  C   UNL     1      -0.374   2.865  -2.777  0.00  0.00    +0.003 C 
ENDBRANCH  29  33
ENDBRANCH   1  29
BRANCH   4  34
ATOM     34  C   UNL     1       0.599   0.041   3.132  0.00  0.00    +0.388 C 
ATOM     35  O   UNL     1       1.036  -1.076   2.939  0.00  0.00    -0.241 OA
ATOM     36  O   UNL     1       1.420   1.020   3.559  0.00  0.00    -0.241 OA
ENDBRANCH   4  34
TORSDOF 6
