REMARK  Name = ZINC25250685
REMARK  9 active torsions:
REMARK  status: ('A' for Active; 'I' for Inactive)
REMARK    1  A    between atoms: C_1  and  C_2
REMARK    2  A    between atoms: C_2  and  C_4
REMARK    3  A    between atoms: C_2  and  N_21
REMARK    4  A    between atoms: N_6  and  C_7
REMARK    5  A    between atoms: C_10  and  S_13
REMARK    6  A    between atoms: S_13  and  N_16
REMARK    7  A    between atoms: C_24  and  C_27
REMARK    8  A    between atoms: C_27  and  C_29
REMARK    9  A    between atoms: C_32  and  O_35
REMARK                            x       y       z     vdW  Elec       q    Type
REMARK                         _______ _______ _______ _____ _____    ______ ____
ROOT
ATOM      1  C   UNL     1      -3.188   3.741   1.593  0.00  0.00    -0.004 C 
ATOM      2  C   UNL     1      -2.569   4.140   0.252  0.00  0.00    +0.016 C 
ENDROOT
BRANCH   2   3
ATOM      3  N   UNL     1      -2.329   5.590   0.236  0.00  0.00    +0.387 N 
ATOM      4  C   UNL     1      -1.648   6.024   1.462  0.00  0.00    -0.077 C 
ATOM      5  C   UNL     1      -1.545   7.551   1.476  0.00  0.00    -0.007 C 
ATOM      6  C   UNL     1      -0.764   8.017   0.244  0.00  0.00    +0.057 C 
ATOM      7  C   UNL     1      -1.469   7.510  -1.018  0.00  0.00    -0.007 C 
ATOM      8  C   UNL     1      -1.574   5.984  -0.960  0.00  0.00    -0.077 C 
ATOM      9  H   UNL     1      -3.305   6.095   0.197  0.00  0.00    -0.081 HD
BRANCH   6  10
ATOM     10  C   UNL     1      -0.712   9.523   0.221  0.00  0.00    +0.166 C 
ATOM     11  O   UNL     1      -1.584  10.152  -0.339  0.00  0.00    -0.292 OA
BRANCH  10  12
ATOM     12  C   UNL     1       0.397  10.228   0.876  0.00  0.00    +0.018 A 
ATOM     13  C   UNL     1       1.403   9.505   1.529  0.00  0.00    +0.015 A 
ATOM     14  C   UNL     1       2.439  10.168   2.134  0.00  0.00    +0.046 A 
ATOM     15  C   UNL     1       2.486  11.558   2.111  0.00  0.00    +0.117 A 
ATOM     16  C   UNL     1       1.486  12.282   1.470  0.00  0.00    +0.046 A 
ATOM     17  C   UNL     1       0.449  11.628   0.856  0.00  0.00    +0.015 A 
BRANCH  15  18
ATOM     18  O   UNL     1       3.510  12.210   2.717  0.00  0.00    -0.507 OA
ATOM     19  H   UNL     1       3.548  13.309   2.700  0.00  0.00    +0.292 HD
ENDBRANCH  15  18
ENDBRANCH  10  12
ENDBRANCH   6  10
ENDBRANCH   2   3
BRANCH   2  20
ATOM     20  C   UNL     1      -1.263   3.413   0.065  0.00  0.00    +0.203 C 
ATOM     21  O   UNL     1      -0.228   3.917   0.448  0.00  0.00    -0.277 OA
ATOM     22  N   UNL     1      -1.244   2.202  -0.527  0.00  0.00    -0.287 N 
ATOM     23  H   UNL     1      -2.169   1.782  -0.949  0.00  0.00    +0.155 HD
BRANCH  22  24
ATOM     24  C   UNL     1      -0.049   1.479  -0.603  0.00  0.00    +0.033 A 
ATOM     25  C   UNL     1       0.198   0.656  -1.694  0.00  0.00    +0.025 A 
ATOM     26  C   UNL     1       1.377  -0.061  -1.764  0.00  0.00    +0.030 A 
ATOM     27  C   UNL     1       2.311   0.041  -0.750  0.00  0.00    +0.106 A 
ATOM     28  C   UNL     1       2.068   0.859   0.338  0.00  0.00    +0.030 A 
ATOM     29  C   UNL     1       0.891   1.578   0.414  0.00  0.00    +0.025 A 
BRANCH  27  30
ATOM     30  S   UNL     1       3.813  -0.875  -0.843  0.00  0.00    +0.061 S 
ATOM     31  O   UNL     1       4.040  -1.143  -2.220  0.00  0.00    -0.153 OA
ATOM     32  O   UNL     1       4.758  -0.188  -0.035  0.00  0.00    -0.153 OA
BRANCH  30  33
ATOM     33  N   UNL     1       3.541  -2.337  -0.115  0.00  0.00    -0.177 NA
ATOM     34  C   UNL     1       3.751  -2.637   1.309  0.00  0.00    +0.109 C 
ATOM     35  C   UNL     1       3.392  -4.123   1.522  0.00  0.00    +0.018 C 
ATOM     36  C   UNL     1       3.550  -4.724   0.101  0.00  0.00    +0.018 C 
ATOM     37  C   UNL     1       3.055  -3.555  -0.788  0.00  0.00    +0.109 C 
ENDBRANCH  30  33
ENDBRANCH  27  30
ENDBRANCH  22  24
ENDBRANCH   2  20
TORSDOF 8
