REMARK  Name = ZINC11526601
REMARK  6 active torsions:
REMARK  status: ('A' for Active; 'I' for Inactive)
REMARK    1  A    between atoms: C_4  and  N_7
REMARK    2  A    between atoms: C_8  and  C_10
REMARK    3  A    between atoms: C_10  and  N_57
REMARK    4  A    between atoms: C_13  and  N_16
REMARK    5  A    between atoms: C_17  and  C_19
REMARK    6  A    between atoms: C_19  and  C_20
REMARK                            x       y       z     vdW  Elec       q    Type
REMARK                         _______ _______ _______ _____ _____    ______ ____
ROOT
ATOM      1  C   UNL     1       0.028   1.377   0.364  0.00  0.00    -0.076 C 
ATOM      2  C   UNL     1       1.468   1.857   0.558  0.00  0.00    +0.003 C 
ATOM      3  C   UNL     1       2.012   1.304   1.878  0.00  0.00    +0.069 C 
ATOM      4  C   UNL     1       1.924  -0.224   1.858  0.00  0.00    +0.003 C 
ATOM      5  C   UNL     1       0.471  -0.644   1.627  0.00  0.00    -0.076 C 
ATOM      6  N   UNL     1       0.015  -0.101   0.329  0.00  0.00    +0.386 N 
ATOM      7  H   UNL     1       0.653  -0.422  -0.409  0.00  0.00    -0.081 HD
ENDROOT
BRANCH   3   8
ATOM      8  N   UNL     1       3.409   1.713   2.043  0.00  0.00    -0.313 N 
ATOM      9  C   UNL     1       3.701   2.913   2.582  0.00  0.00    +0.215 C 
ATOM     10  O   UNL     1       2.808   3.655   2.930  0.00  0.00    -0.276 OA
ATOM     11  H   UNL     1       4.124   1.119   1.764  0.00  0.00    +0.149 HD
BRANCH   9  12
ATOM     12  C   UNL     1       5.139   3.333   2.751  0.00  0.00    +0.119 C 
BRANCH  12  13
ATOM     13  C   UNL     1       5.192   4.726   3.380  0.00  0.00    +0.146 C 
ATOM     14  C   UNL     1       6.625   5.099   3.664  0.00  0.00    +0.231 C 
ATOM     15  O   UNL     1       7.048   4.950   4.791  0.00  0.00    -0.274 OA
ATOM     16  N   UNL     1       7.447   5.583   2.739  0.00  0.00    -0.284 N 
ATOM     17  C   UNL     1       7.114   5.930   1.433  0.00  0.00    +0.048 A 
ATOM     18  C   UNL     1       8.129   6.085   0.493  0.00  0.00    +0.044 A 
ATOM     19  C   UNL     1       7.824   6.423  -0.812  0.00  0.00    +0.043 A 
ATOM     20  C   UNL     1       6.509   6.609  -1.199  0.00  0.00    +0.021 A 
ATOM     21  C   UNL     1       5.491   6.461  -0.275  0.00  0.00    +0.018 A 
ATOM     22  C   UNL     1       5.792   6.126   1.035  0.00  0.00    +0.030 A 
ATOM     23  S   UNL     1       4.498   5.947   2.224  0.00  0.00    -0.110 S 
ATOM     24 CL   UNL     1       9.100   6.614  -1.974  0.00  0.00    -0.083 Cl
ATOM     25  H   UNL     1       8.372   5.708   3.001  0.00  0.00    +0.155 HD
ENDBRANCH  12  13
ENDBRANCH   9  12
ENDBRANCH   3   8
BRANCH   6  26
ATOM     26  C   UNL     1      -1.347  -0.587   0.029  0.00  0.00    +0.019 C 
BRANCH  26  28
ATOM     27  N   UNL     1      -2.413  -2.748  -0.531  0.00  0.00    -0.287 N 
ATOM     28  C   UNL     1      -1.289  -2.073  -0.217  0.00  0.00    +0.201 C 
ATOM     29  O   UNL     1      -0.232  -2.661  -0.133  0.00  0.00    -0.278 OA
ATOM     30  H   UNL     1      -3.270  -2.294  -0.524  0.00  0.00    +0.155 HD
BRANCH  27  34
ATOM     31  C   UNL     1      -2.204  -6.787  -1.533  0.00  0.00    +0.000 A 
ATOM     32  C   UNL     1      -3.313  -6.298  -0.867  0.00  0.00    +0.002 A 
ATOM     33  C   UNL     1      -3.385  -4.959  -0.533  0.00  0.00    +0.023 A 
ATOM     34  C   UNL     1      -2.342  -4.105  -0.867  0.00  0.00    +0.033 A 
ATOM     35  C   UNL     1      -1.233  -4.598  -1.542  0.00  0.00    +0.023 A 
ATOM     36  C   UNL     1      -1.165  -5.938  -1.867  0.00  0.00    +0.002 A 
ENDBRANCH  27  34
ENDBRANCH  26  28
ENDBRANCH   6  26
TORSDOF 6
