REMARK  Name = ZINC43794066
REMARK  5 active torsions:
REMARK  status: ('A' for Active; 'I' for Inactive)
REMARK    1  A    between atoms: C_3  and  N_26
REMARK    2  A    between atoms: C_4  and  N_23
REMARK    3  A    between atoms: C_6  and  N_7
REMARK    4  A    between atoms: C_29  and  C_32
REMARK    5  A    between atoms: C_29  and  N_35
REMARK                            x       y       z     vdW  Elec       q    Type
REMARK                         _______ _______ _______ _____ _____    ______ ____
ROOT
ATOM      1  C   UNL     1       0.174   1.177  -0.607  0.00  0.00    +0.026 A 
ATOM      2  C   UNL     1       1.312   1.939  -0.431  0.00  0.00    +0.027 A 
ATOM      3  C   UNL     1       2.563   1.380  -0.652  0.00  0.00    +0.060 A 
ATOM      4  C   UNL     1       2.671   0.054  -1.051  0.00  0.00    +0.149 A 
ATOM      5  C   UNL     1       1.533  -0.708  -1.227  0.00  0.00    +0.058 A 
ATOM      6  C   UNL     1       0.282  -0.149  -1.005  0.00  0.00    +0.046 A 
ENDROOT
BRANCH   6   7
ATOM      7  N   UNL     1      -0.875  -0.924  -1.183  0.00  0.00    -0.210 N 
ATOM      8  C   UNL     1      -1.127  -2.023  -0.464  0.00  0.00    +0.231 C 
ATOM      9  O   UNL     1      -0.408  -2.472   0.404  0.00  0.00    -0.274 OA
ATOM     10  C   UNL     1      -2.446  -2.619  -0.899  0.00  0.00    +0.095 C 
ATOM     11  C   UNL     1      -3.480  -2.413   0.251  0.00  0.00    +0.025 C 
ATOM     12  C   UNL     1      -4.795  -2.192  -0.582  0.00  0.00    +0.016 C 
ATOM     13  C   UNL     1      -4.197  -0.974  -1.375  0.00  0.00    +0.025 C 
ATOM     14  C   UNL     1      -2.922  -1.651  -2.022  0.00  0.00    +0.095 C 
ATOM     15  C   UNL     1      -1.818  -0.620  -2.082  0.00  0.00    +0.231 C 
ATOM     16  O   UNL     1      -1.790   0.333  -2.831  0.00  0.00    -0.274 OA
ATOM     17  C   UNL     1      -3.642  -0.148  -0.208  0.00  0.00    -0.027 C 
ATOM     18  C   UNL     1      -3.214  -0.985   0.744  0.00  0.00    -0.027 C 
ENDBRANCH   6   7
BRANCH   3  19
ATOM     19  N   UNL     1       3.716   2.152  -0.475  0.00  0.00    -0.328 N 
ATOM     20  C   UNL     1       4.275   2.930  -1.589  0.00  0.00    +0.104 C 
ATOM     21  C   UNL     1       4.433   4.387  -1.144  0.00  0.00    +0.016 C 
ATOM     22  C   UNL     1       5.268   4.436   0.138  0.00  0.00    +0.015 C 
ATOM     23  C   UNL     1       4.547   3.667   1.248  0.00  0.00    +0.016 C 
ATOM     24  C   UNL     1       4.386   2.207   0.831  0.00  0.00    +0.104 C 
BRANCH  22  25
ATOM     25  N   UNL     1       5.449   5.834   0.550  0.00  0.00    +0.389 N 
ATOM     26  C   UNL     1       6.102   6.581  -0.532  0.00  0.00    -0.077 C 
ATOM     27  C   UNL     1       6.221   8.055  -0.140  0.00  0.00    -0.019 C 
ATOM     28  C   UNL     1       7.056   8.172   1.139  0.00  0.00    -0.004 C 
ATOM     29  C   UNL     1       6.405   7.330   2.240  0.00  0.00    -0.019 C 
ATOM     30  C   UNL     1       6.280   5.882   1.760  0.00  0.00    -0.077 C 
ATOM     31  H   UNL     1       4.549   6.246   0.745  0.00  0.00    -0.080 HD
ENDBRANCH  22  25
BRANCH  22  32
ATOM     32  C   UNL     1       6.614   3.808  -0.115  0.00  0.00    +0.200 C 
ATOM     33  O   UNL     1       7.001   3.641  -1.252  0.00  0.00    -0.278 OA
ATOM     34  N   UNL     1       7.388   3.433   0.923  0.00  0.00    -0.330 N 
ATOM     35  H   UNL     1       7.111   3.630   1.831  0.00  0.00    +0.145 HD
ATOM     36  H   UNL     1       8.223   2.966   0.761  0.00  0.00    +0.145 HD
ENDBRANCH  22  32
ENDBRANCH   3  19
BRANCH   4  37
ATOM     37  N   UNL     1       4.004  -0.542  -1.288  0.00  0.00    +0.058 N 
ATOM     38  O   UNL     1       4.098  -1.697  -1.635  0.00  0.00    -0.126 OA
ATOM     39  O   UNL     1       5.001   0.125  -1.135  0.00  0.00    -0.126 OA
ENDBRANCH   4  37
TORSDOF 5
