REMARK  Name = ZINC13064251
REMARK  11 active torsions:
REMARK  status: ('A' for Active; 'I' for Inactive)
REMARK    1  A    between atoms: C_1  and  C_2
REMARK    2  A    between atoms: C_2  and  C_3
REMARK    3  A    between atoms: C_3  and  C_5
REMARK    4  A    between atoms: C_3  and  N_70
REMARK    5  A    between atoms: N_9  and  C_10
REMARK    6  A    between atoms: C_15  and  C_16
REMARK    7  A    between atoms: C_15  and  N_70
REMARK    8  A    between atoms: C_25  and  C_26
REMARK    9  A    between atoms: C_25  and  N_70
REMARK   10  A    between atoms: C_31  and  O_38
REMARK   11  A    between atoms: O_38  and  C_39
REMARK                            x       y       z     vdW  Elec       q    Type
REMARK                         _______ _______ _______ _____ _____    ______ ____
ROOT
ATOM      1  N   UNL     1      -8.515  -0.476   5.450  0.00  0.00    +0.392 N 
ATOM      2  H   UNL     1      -8.502   0.238   6.188  0.00  0.00    -0.080 HD
ENDROOT
BRANCH   1   3
ATOM      3  C   UNL     1      -9.889  -1.004   5.318  0.00  0.00    +0.003 C 
BRANCH   3   4
ATOM      4  C   UNL     1      -9.934  -2.109   4.294  0.00  0.00    +0.138 A 
ATOM      5  N   UNL     1      -8.996  -2.992   4.053  0.00  0.00    -0.115 NA
ATOM      6  N   UNL     1      -9.411  -3.767   3.111  0.00  0.00    -0.023 NA
ATOM      7  N   UNL     1     -10.586  -3.397   2.740  0.00  0.00    -0.044 NA
ATOM      8  N   UNL     1     -10.944  -2.377   3.445  0.00  0.00    -0.228 N 
BRANCH   8   9
ATOM      9  C   UNL     1     -12.211  -1.649   3.342  0.00  0.00    +0.111 C 
ATOM     10  C   UNL     1     -13.384  -2.572   3.732  0.00  0.00    +0.027 C 
ATOM     11  C   UNL     1     -14.524  -2.167   2.764  0.00  0.00    +0.002 C 
ATOM     12  C   UNL     1     -13.768  -1.895   1.440  0.00  0.00    +0.002 C 
ATOM     13  C   UNL     1     -12.455  -1.219   1.885  0.00  0.00    +0.027 C 
ENDBRANCH   8   9
ENDBRANCH   3   4
BRANCH   3  15
ATOM     14  C   UNL     1     -10.407  -0.402   7.687  0.00  0.00    +0.002 C 
ATOM     15  C   UNL     1     -10.344  -1.547   6.674  0.00  0.00    -0.011 C 
ENDBRANCH   3  15
ENDBRANCH   1   3
BRANCH   1  16
ATOM     16  C   UNL     1      -7.588  -1.566   5.820  0.00  0.00    -0.041 C 
BRANCH  16  17
ATOM     17  C   UNL     1      -6.338  -0.959   6.403  0.00  0.00    -0.060 A 
ATOM     18  C   UNL     1      -5.236  -0.741   5.596  0.00  0.00    +0.005 A 
ATOM     19  C   UNL     1      -4.089  -0.179   6.124  0.00  0.00    +0.050 A 
ATOM     20  C   UNL     1      -4.036   0.155   7.467  0.00  0.00    +0.166 A 
ATOM     21  C   UNL     1      -5.143  -0.070   8.281  0.00  0.00    +0.166 A 
ATOM     22  C   UNL     1      -6.292  -0.627   7.744  0.00  0.00    +0.051 A 
ATOM     23  O   UNL     1      -4.844   0.340   9.549  0.00  0.00    -0.453 OA
ATOM     24  C   UNL     1      -3.408   0.438   9.591  0.00  0.00    +0.466 C 
ATOM     25  O   UNL     1      -3.042   0.705   8.225  0.00  0.00    -0.453 OA
ENDBRANCH  16  17
ENDBRANCH   1  16
BRANCH   1  26
ATOM     26  C   UNL     1      -8.086   0.141   4.177  0.00  0.00    -0.036 C 
BRANCH  26  27
ATOM     27  C   UNL     1      -8.737   1.495   4.053  0.00  0.00    +0.001 A 
ATOM     28  C   UNL     1      -8.085   2.600   4.495  0.00  0.00    +0.017 A 
ATOM     29  C   UNL     1      -8.743   3.900   4.362  0.00  0.00    -0.001 A 
ATOM     30  C   UNL     1      -8.119   5.074   4.799  0.00  0.00    +0.013 A 
ATOM     31  C   UNL     1      -8.755   6.273   4.657  0.00  0.00    +0.046 A 
ATOM     32  C   UNL     1     -10.026   6.337   4.087  0.00  0.00    +0.122 A 
ATOM     33  C   UNL     1     -10.659   5.187   3.648  0.00  0.00    +0.072 A 
ATOM     34  C   UNL     1     -10.025   3.959   3.780  0.00  0.00    +0.053 A 
ATOM     35  N   UNL     1     -10.633   2.797   3.351  0.00  0.00    -0.322 N 
ATOM     36  H   UNL     1     -11.515   2.840   2.951  0.00  0.00    +0.169 HD
ATOM     37  C   UNL     1     -10.019   1.608   3.479  0.00  0.00    +0.251 A 
ATOM     38  O   UNL     1     -10.587   0.602   3.090  0.00  0.00    -0.268 OA
BRANCH  32  39
ATOM     39  O   UNL     1     -10.645   7.538   3.958  0.00  0.00    -0.495 OA
ATOM     40  C   UNL     1      -9.939   8.687   4.431  0.00  0.00    +0.277 C 
ENDBRANCH  32  39
ENDBRANCH  26  27
ENDBRANCH   1  26
TORSDOF 9
