REMARK  Name = ZINC24712254
REMARK  11 active torsions:
REMARK  status: ('A' for Active; 'I' for Inactive)
REMARK    1  A    between atoms: C_1  and  C_2
REMARK    2  A    between atoms: C_2  and  C_3
REMARK    3  A    between atoms: C_2  and  C_4
REMARK    4  A    between atoms: C_2  and  N_5
REMARK    5  A    between atoms: N_5  and  S_6
REMARK    6  A    between atoms: S_6  and  C_9
REMARK    7  A    between atoms: C_12  and  C_15
REMARK    8  A    between atoms: C_15  and  O_17
REMARK    9  A    between atoms: O_17  and  C_18
REMARK   10  A    between atoms: C_18  and  C_19
REMARK   11  A    between atoms: N_24  and  C_25
REMARK                            x       y       z     vdW  Elec       q    Type
REMARK                         _______ _______ _______ _____ _____    ______ ____
ROOT
ATOM      1  C   UNL     1      -1.883   6.085   6.198  0.00  0.00    +0.328 C 
ENDROOT
BRANCH   1   2
ATOM      2  C   UNL     1      -0.976   7.265   6.434  0.00  0.00    +0.258 C 
ATOM      3  O   UNL     1      -0.029   7.459   5.702  0.00  0.00    -0.272 OA
ATOM      4  N   UNL     1      -1.216   8.106   7.460  0.00  0.00    -0.237 N 
ATOM      5  C   UNL     1      -0.405   9.161   7.671  0.00  0.00    +0.306 C 
ATOM      6  O   UNL     1       0.544   9.355   6.937  0.00  0.00    -0.252 OA
ATOM      7  N   UNL     1      -0.645  10.001   8.697  0.00  0.00    -0.294 N 
ATOM      8  H   UNL     1      -2.075   7.931   8.125  0.00  0.00    +0.159 HD
ATOM      9  H   UNL     1      -1.504   9.826   9.362  0.00  0.00    +0.151 HD
BRANCH   7  10
ATOM     10  C   UNL     1       0.237  11.148   8.927  0.00  0.00    +0.037 C 
ATOM     11  C   UNL     1       1.662  10.653   9.181  0.00  0.00    +0.029 C 
ATOM     12  C   UNL     1       2.583  11.851   9.421  0.00  0.00    -0.008 C 
ATOM     13  C   UNL     1       2.091  12.637  10.638  0.00  0.00    +0.007 C 
ATOM     14  C   UNL     1       0.666  13.132  10.384  0.00  0.00    -0.008 C 
ATOM     15  C   UNL     1      -0.255  11.934  10.144  0.00  0.00    +0.029 C 
ATOM     16  C   UNL     1       0.654  14.040   9.152  0.00  0.00    +0.007 C 
ATOM     17  C   UNL     1       1.145  13.254   7.935  0.00  0.00    -0.008 C 
ATOM     18  C   UNL     1       2.570  12.758   8.189  0.00  0.00    +0.007 C 
ATOM     19  C   UNL     1       0.224  12.056   7.695  0.00  0.00    +0.029 C 
ENDBRANCH   7  10
ENDBRANCH   1   2
BRANCH   1  20
ATOM     20  O   UNL     1      -1.416   5.340   5.043  0.00  0.00    -0.452 OA
BRANCH  20  21
ATOM     21  C   UNL     1      -2.122   4.247   4.694  0.00  0.00    +0.340 C 
ATOM     22  O   UNL     1      -3.101   3.926   5.338  0.00  0.00    -0.245 OA
BRANCH  21  26
ATOM     23  C   UNL     1      -0.927   1.925   1.345  0.00  0.00    +0.105 A 
ATOM     24  C   UNL     1      -0.196   3.044   1.704  0.00  0.00    +0.029 A 
ATOM     25  C   UNL     1      -0.582   3.806   2.788  0.00  0.00    +0.017 A 
ATOM     26  C   UNL     1      -1.706   3.439   3.530  0.00  0.00    +0.059 A 
ATOM     27  C   UNL     1      -2.436   2.306   3.166  0.00  0.00    +0.017 A 
ATOM     28  C   UNL     1      -2.042   1.556   2.077  0.00  0.00    +0.029 A 
BRANCH  23  29
ATOM     29  S   UNL     1      -0.431   0.962  -0.044  0.00  0.00    +0.059 S 
ATOM     30  O   UNL     1      -0.625  -0.399   0.316  0.00  0.00    -0.153 OA
ATOM     31  O   UNL     1       0.830   1.468  -0.459  0.00  0.00    -0.153 OA
BRANCH  29  32
ATOM     32  N   UNL     1      -1.497   1.284  -1.269  0.00  0.00    -0.185 NA
ATOM     33  H   UNL     1      -2.298   0.563  -1.488  0.00  0.00    +0.149 HD
BRANCH  32  35
ATOM     34  C   UNL     1      -0.146   2.874  -2.545  0.00  0.00    +0.029 C 
ATOM     35  C   UNL     1      -1.508   2.605  -1.902  0.00  0.00    +0.032 C 
ATOM     36  C   UNL     1      -2.596   2.647  -2.977  0.00  0.00    +0.029 C 
ATOM     37  C   UNL     1      -1.793   3.675  -0.846  0.00  0.00    +0.029 C 
ENDBRANCH  32  35
ENDBRANCH  29  32
ENDBRANCH  23  29
ENDBRANCH  21  26
ENDBRANCH  20  21
ENDBRANCH   1  20
TORSDOF 8
