REMARK  Name = ZINC13858054
REMARK  10 active torsions:
REMARK  status: ('A' for Active; 'I' for Inactive)
REMARK    1  A    between atoms: C_1  and  C_2
REMARK    2  A    between atoms: C_5  and  O_9
REMARK    3  A    between atoms: C_7  and  C_8
REMARK    4  A    between atoms: O_9  and  C_10
REMARK    5  A    between atoms: C_10  and  C_11
REMARK    6  A    between atoms: N_13  and  N_14
REMARK    7  A    between atoms: C_15  and  C_16
REMARK    8  A    between atoms: C_18  and  N_23
REMARK    9  A    between atoms: C_21  and  O_22
REMARK   10  A    between atoms: N_24  and  C_25
REMARK                            x       y       z     vdW  Elec       q    Type
REMARK                         _______ _______ _______ _____ _____    ______ ____
ROOT
ATOM      1  C   UNL     1      -9.550   4.595   0.116  0.00  0.00    +0.038 A 
ATOM      2  C   UNL     1     -10.831   4.050   0.120  0.00  0.00    +0.042 A 
ATOM      3  C   UNL     1     -11.943   4.894   0.140  0.00  0.00    +0.087 A 
ATOM      4  C   UNL     1     -11.765   6.282   0.145  0.00  0.00    +0.033 A 
ATOM      5  C   UNL     1     -10.497   6.820   0.136  0.00  0.00    +0.048 A 
ATOM      6  C   UNL     1      -9.385   5.989   0.121  0.00  0.00    +0.126 A 
ENDROOT
BRANCH   1   8
ATOM      7  N   UNL     1      -7.177   4.222   0.092  0.00  0.00    -0.188 NA
ATOM      8  C   UNL     1      -8.370   3.712   0.101  0.00  0.00    +0.142 C 
BRANCH   7  11
ATOM      9  C   UNL     1      -4.816   3.913   0.068  0.00  0.00    +0.270 C 
ATOM     10  O   UNL     1      -4.672   5.117   0.072  0.00  0.00    -0.270 OA
ATOM     11  N   UNL     1      -6.056   3.382   0.077  0.00  0.00    -0.204 N 
ATOM     12  H   UNL     1      -6.171   2.419   0.074  0.00  0.00    +0.177 HD
BRANCH   9  13
ATOM     13  C   UNL     1      -3.610   3.009   0.052  0.00  0.00    +0.326 C 
BRANCH  13  14
ATOM     14  O   UNL     1      -2.421   3.802   0.045  0.00  0.00    -0.483 OA
BRANCH  14  19
ATOM     15  C   UNL     1       2.490   1.045  -0.016  0.00  0.00    +0.044 C 
ATOM     16  C   UNL     1       1.176   1.783   0.000  0.00  0.00    -0.047 A 
ATOM     17  C   UNL     1      -0.013   1.076   0.008  0.00  0.00    +0.007 A 
ATOM     18  C   UNL     1      -1.218   1.750   0.017  0.00  0.00    +0.046 A 
ATOM     19  C   UNL     1      -1.236   3.137   0.030  0.00  0.00    +0.121 A 
ATOM     20  C   UNL     1      -0.043   3.844   0.022  0.00  0.00    +0.049 A 
ATOM     21  C   UNL     1       1.161   3.165   0.007  0.00  0.00    -0.044 A 
ATOM     22  C   UNL     1       2.457   3.933  -0.002  0.00  0.00    +0.044 C 
ENDBRANCH  14  19
ENDBRANCH  13  14
ENDBRANCH   9  13
ENDBRANCH   7  11
ENDBRANCH   1   8
BRANCH   6  23
ATOM     23  O   UNL     1      -8.139   6.525   0.111  0.00  0.00    -0.506 OA
ATOM     24  H   UNL     1      -7.786   6.684  -0.775  0.00  0.00    +0.292 HD
ENDBRANCH   6  23
BRANCH   3  25
ATOM     25  N   UNL     1     -13.201   4.365   0.149  0.00  0.00    -0.149 NA
ATOM     26  N   UNL     1     -14.228   5.146   0.163  0.00  0.00    -0.149 NA
BRANCH  26  27
ATOM     27  C   UNL     1     -15.489   4.617   0.172  0.00  0.00    +0.087 A 
ATOM     28  C   UNL     1     -15.669   3.231   0.161  0.00  0.00    +0.029 A 
ATOM     29  C   UNL     1     -16.943   2.704   0.175  0.00  0.00    +0.003 A 
ATOM     30  C   UNL     1     -18.043   3.544   0.190  0.00  0.00    +0.015 A 
ATOM     31  C   UNL     1     -17.873   4.918   0.195  0.00  0.00    +0.020 A 
ATOM     32  C   UNL     1     -16.604   5.460   0.186  0.00  0.00    +0.044 A 
ATOM     33 BR   UNL     1     -19.384   6.056   0.214  0.00  0.00    -0.050 Br
ENDBRANCH  26  27
ENDBRANCH   3  25
TORSDOF 8
