REMARK  Name = ZINC42895807
REMARK  9 active torsions:
REMARK  status: ('A' for Active; 'I' for Inactive)
REMARK    1  A    between atoms: C_3  and  N_25
REMARK    2  A    between atoms: C_6  and  C_7
REMARK    3  A    between atoms: C_7  and  C_9
REMARK    4  A    between atoms: C_7  and  O_24
REMARK    5  A    between atoms: C_9  and  C_11
REMARK    6  A    between atoms: C_9  and  N_13
REMARK    7  A    between atoms: C_11  and  O_12
REMARK    8  A    between atoms: N_16  and  C_17
REMARK    9  A    between atoms: C_20  and  O_23
REMARK                            x       y       z     vdW  Elec       q    Type
REMARK                         _______ _______ _______ _____ _____    ______ ____
ROOT
ATOM      1  C   UNK A   1      -1.653  -1.152   1.449  0.00  0.00    +0.133 C 
ENDROOT
BRANCH   1   2
ATOM      2  N   UNK A   1      -0.536  -1.879   2.057  0.00  0.00    -0.292 N 
ATOM      3  C   UNK A   0      -0.381  -1.878   3.396  0.00  0.00    +0.300 C 
ATOM      4  O   UNK A   0      -1.168  -1.274   4.099  0.00  0.00    -0.253 OA
ATOM      5  N   UNK A   0       0.646  -2.547   3.956  0.00  0.00    -0.297 N 
ATOM      6  H   UNK A   1       0.092  -2.361   1.497  0.00  0.00    +0.151 HD
ATOM      7  H   UNK A   0       1.274  -3.029   3.396  0.00  0.00    +0.151 HD
BRANCH   5   8
ATOM      8  C   UNK A   0       0.815  -2.546   5.411  0.00  0.00    +0.075 C 
ATOM      9  C   UNK A   0      -0.047  -3.650   6.026  0.00  0.00    +0.025 C 
ATOM     10  C   UNK A   0       0.129  -3.649   7.545  0.00  0.00    +0.033 C 
ATOM     11  C   UNK A   0       1.599  -3.899   7.889  0.00  0.00    +0.115 C 
ATOM     12  C   UNK A   0       2.461  -2.794   7.274  0.00  0.00    +0.033 C 
ATOM     13  C   UNK A   0       2.285  -2.795   5.755  0.00  0.00    +0.025 C 
BRANCH  11  14
ATOM     14  O   UNK A   0       1.763  -3.898   9.308  0.00  0.00    -0.392 OA
ATOM     15  H   UNK A   0       2.673  -4.051   9.599  0.00  0.00    +0.210 HD
ENDBRANCH  11  14
ENDBRANCH   5   8
ENDBRANCH   1   2
BRANCH   1  16
ATOM     16  C   UNK A   1      -1.293  -0.775   0.010  0.00  0.00    +0.167 C 
BRANCH  16  22
ATOM     17  C   UNK A   1      -0.017   1.378   0.010  0.00  0.00    +0.008 A 
ATOM     18  C   UNK A   1       1.171   2.086   0.002  0.00  0.00    +0.033 A 
ATOM     19  C   UNK A   1       2.377   1.411  -0.013  0.00  0.00    +0.126 A 
ATOM     20  C   UNK A   1       2.396   0.029  -0.020  0.00  0.00    +0.033 A 
ATOM     21  C   UNK A   1       1.208  -0.679  -0.012  0.00  0.00    +0.008 A 
ATOM     22  C   UNK A   1       0.002  -0.004   0.002  0.00  0.00    -0.017 A 
BRANCH  19  23
ATOM     23  N   UNK A   1       3.649   2.168  -0.022  0.00  0.00    +0.056 N 
ATOM     24  O   UNK A   1       3.633   3.377  -0.016  0.00  0.00    -0.126 OA
ATOM     25  O   UNK A   1       4.704   1.578  -0.035  0.00  0.00    -0.126 OA
ENDBRANCH  19  23
ENDBRANCH  16  22
BRANCH  16  26
ATOM     26  O   UNK A   1      -1.145  -1.963  -0.770  0.00  0.00    -0.385 OA
ATOM     27  H   UNK A   1      -0.455  -2.560  -0.451  0.00  0.00    +0.210 HD
ENDBRANCH  16  26
ENDBRANCH   1  16
BRANCH   1  28
ATOM     28  C   UNK A   1      -2.899  -2.040   1.447  0.00  0.00    +0.181 C 
BRANCH  28  29
ATOM     29  O   UNK A   1      -2.677  -3.170   0.600  0.00  0.00    -0.393 OA
ATOM     30  H   UNK A   1      -3.428  -3.778   0.551  0.00  0.00    +0.209 HD
ENDBRANCH  28  29
ENDBRANCH   1  28
TORSDOF 9
