REMARK  Name = ZINC02707272
REMARK  3 active torsions:
REMARK  status: ('A' for Active; 'I' for Inactive)
REMARK    1  A    between atoms: C_1  and  C_2
REMARK    2  A    between atoms: C_10  and  C_13
REMARK    3  A    between atoms: C_19  and  C_27
REMARK                            x       y       z     vdW  Elec       q    Type
REMARK                         _______ _______ _______ _____ _____    ______ ____
ROOT
ATOM      1  C   UNL     1       0.033   1.423  -0.377  0.00  0.00    +0.044 C 
ATOM      2  C   UNL     1       0.040  -0.082  -0.293  0.00  0.00    -0.050 A 
ATOM      3  C   UNL     1       0.031  -0.837  -1.452  0.00  0.00    +0.007 A 
ATOM      4  C   UNL     1       0.039  -2.219  -1.391  0.00  0.00    +0.046 A 
ATOM      5  C   UNL     1       0.054  -2.854  -0.162  0.00  0.00    +0.131 A 
ATOM      6  C   UNL     1       0.061  -2.089   1.012  0.00  0.00    +0.043 A 
ATOM      7  C   UNL     1       0.060  -0.703   0.942  0.00  0.00    +0.017 A 
ATOM      8  C   UNL     1       0.072  -2.801   2.315  0.00  0.00    +0.083 C 
ATOM      9  C   UNL     1      -0.253  -4.111   2.311  0.00  0.00    +0.028 C 
ATOM     10  C   UNL     1      -0.620  -4.804   1.032  0.00  0.00    +0.234 C 
ATOM     11  O   UNL     1       0.065  -4.208  -0.072  0.00  0.00    -0.479 OA
ATOM     12  C   UNL     1      -0.235  -4.850   3.630  0.00  0.00    +0.169 C 
ATOM     13  N   UNL     1       0.139  -4.057   4.810  0.00  0.00    -0.181 N 
ATOM     14  C   UNL     1       0.436  -2.735   4.645  0.00  0.00    +0.209 C 
ATOM     15  N   UNL     1       0.398  -2.160   3.463  0.00  0.00    -0.216 NA
ATOM     16  N   UNL     1       0.742  -2.251   5.890  0.00  0.00    -0.275 N 
ATOM     17  C   UNL     1       0.630  -3.282   6.790  0.00  0.00    +0.208 C 
ATOM     18  N   UNL     1       0.274  -4.358   6.166  0.00  0.00    -0.169 NA
ATOM     19  H   UNL     1       0.995  -1.338   6.099  0.00  0.00    +0.156 HD
ENDROOT
BRANCH  10  20
ATOM     20  C   UNL     1      -2.106  -4.689   0.810  0.00  0.00    -0.003 A 
ATOM     21  C   UNL     1      -2.647  -3.501   0.358  0.00  0.00    +0.007 A 
ATOM     22  C   UNL     1      -4.011  -3.396   0.155  0.00  0.00    +0.000 A 
ATOM     23  C   UNL     1      -4.832  -4.479   0.404  0.00  0.00    +0.000 A 
ATOM     24  C   UNL     1      -4.290  -5.668   0.855  0.00  0.00    +0.000 A 
ATOM     25  C   UNL     1      -2.927  -5.774   1.054  0.00  0.00    +0.007 A 
ENDBRANCH  10  20
BRANCH  12  26
ATOM     26  C   UNL     1       0.735  -5.997   3.513  0.00  0.00    +0.016 A 
ATOM     27  C   UNL     1       0.482  -7.308   3.280  0.00  0.00    +0.013 A 
ATOM     28  C   UNL     1       1.542  -8.193   3.211  0.00  0.00    +0.008 A 
ATOM     29  C   UNL     1       2.803  -7.723   3.378  0.00  0.00    +0.045 A 
ATOM     30  S   UNL     1       2.516  -5.980   3.637  0.00  0.00    -0.099 S 
ENDBRANCH  12  26
TORSDOF 2
