REMARK  Name = ZINC09875159
REMARK  3 active torsions:
REMARK  status: ('A' for Active; 'I' for Inactive)
REMARK    1  A    between atoms: C_15  and  N_18
REMARK    2  A    between atoms: N_21  and  C_24
REMARK    3  A    between atoms: C_27  and  C_29
REMARK                            x       y       z     vdW  Elec       q    Type
REMARK                         _______ _______ _______ _____ _____    ______ ____
ROOT
ATOM      1  C   UNL     1      -9.305   6.884  14.655  0.00  0.00    +0.002 A 
ATOM      2  C   UNL     1     -10.087   5.739  14.614  0.00  0.00    +0.002 A 
ATOM      3  C   UNL     1      -9.885   4.791  13.652  0.00  0.00    +0.030 A 
ATOM      4  C   UNL     1      -8.881   4.971  12.697  0.00  0.00    +0.091 A 
ATOM      5  C   UNL     1      -8.088   6.130  12.738  0.00  0.00    +0.068 A 
ATOM      6  C   UNL     1      -8.308   7.083  13.722  0.00  0.00    +0.028 A 
ATOM      7  N   UNL     1      -7.194   6.022  11.688  0.00  0.00    -0.322 N 
ATOM      8  H   UNL     1      -6.485   6.683  11.442  0.00  0.00    +0.169 HD
ATOM      9  C   UNL     1      -7.461   4.845  11.050  0.00  0.00    +0.233 A 
ATOM     10  N   UNL     1      -8.449   4.229  11.645  0.00  0.00    -0.211 NA
ATOM     11  N   UNL     1      -6.780   4.370   9.937  0.00  0.00    -0.161 N 
ATOM     12  C   UNL     1      -7.130   3.187   9.394  0.00  0.00    +0.295 A 
ATOM     13  O   UNL     1      -8.042   2.535   9.879  0.00  0.00    -0.264 OA
ATOM     14  C   UNL     1      -6.444   2.712   8.267  0.00  0.00    +0.130 A 
ATOM     15  C   UNL     1      -5.412   3.468   7.742  0.00  0.00    +0.074 A 
ATOM     16  C   UNL     1      -5.080   4.702   8.344  0.00  0.00    +0.158 A 
ATOM     17  N   UNL     1      -5.737   5.123   9.388  0.00  0.00    -0.167 NA
ATOM     18 CL   UNL     1      -6.881   1.195   7.545  0.00  0.00    -0.076 Cl
ENDROOT
BRANCH  15  19
ATOM     19  N   UNL     1      -4.713   3.022   6.633  0.00  0.00    -0.324 N 
ATOM     20  C   UNL     1      -4.848   3.962   5.512  0.00  0.00    +0.124 C 
ATOM     21  C   UNL     1      -4.130   3.396   4.285  0.00  0.00    +0.125 C 
ATOM     22  N   UNL     1      -2.715   3.169   4.610  0.00  0.00    -0.314 N 
ATOM     23  C   UNL     1      -2.579   2.229   5.731  0.00  0.00    +0.125 C 
ATOM     24  C   UNL     1      -3.298   2.795   6.958  0.00  0.00    +0.124 C 
BRANCH  22  25
ATOM     25  C   UNL     1      -2.013   2.721   3.497  0.00  0.00    +0.099 A 
ATOM     26  C   UNL     1      -0.653   2.449   3.603  0.00  0.00    +0.042 A 
ATOM     27  C   UNL     1       0.032   2.004   2.487  0.00  0.00    +0.017 A 
ATOM     28  C   UNL     1      -0.668   1.846   1.298  0.00  0.00    +0.071 A 
ATOM     29  C   UNL     1      -2.016   2.140   1.263  0.00  0.00    +0.096 A 
ATOM     30  N   UNL     1      -2.723   2.573   2.341  0.00  0.00    -0.349 N 
ATOM     31  H   UNL     1      -3.728   2.776   2.288  0.00  0.00    +0.167 HD
BRANCH  28  32
ATOM     32  C   UNL     1       0.038   1.364   0.057  0.00  0.00    +0.419 C 
ATOM     33  F   UNL     1      -0.018  -0.033   0.001  0.00  0.00    -0.166 F 
ATOM     34  F   UNL     1       1.375   1.775   0.091  0.00  0.00    -0.166 F 
ATOM     35  F   UNL     1      -0.586   1.902  -1.073  0.00  0.00    -0.166 F 
ENDBRANCH  28  32
ENDBRANCH  22  25
ENDBRANCH  15  19
TORSDOF 3
