REMARK  Name = ZINC17242384
REMARK  7 active torsions:
REMARK  status: ('A' for Active; 'I' for Inactive)
REMARK    1  A    between atoms: C_1  and  C_2
REMARK    2  A    between atoms: C_2  and  C_34
REMARK    3  A    between atoms: C_6  and  C_26
REMARK    4  A    between atoms: C_11  and  S_15
REMARK    5  A    between atoms: S_15  and  C_16
REMARK    6  A    between atoms: C_16  and  C_17
REMARK    7  A    between atoms: C_30  and  O_32
REMARK                            x       y       z     vdW  Elec       q    Type
REMARK                         _______ _______ _______ _____ _____    ______ ____
ROOT
ATOM      1  C   UNL     1      -0.019   1.526   0.010  0.00  0.00    +0.011 C 
ATOM      2  C   UNL     1       0.002  -0.004   0.002  0.00  0.00    -0.023 C 
ATOM      3  C   UNL     1       0.742  -0.503  -1.244  0.00  0.00    +0.086 C 
ATOM      4  C   UNL     1       2.171  -0.042  -1.180  0.00  0.00    +0.162 C 
ATOM      5  C   UNL     1       2.812   0.186   0.050  0.00  0.00    +0.024 C 
ATOM      6  C   UNL     1       4.238   0.675   0.017  0.00  0.00    +0.093 C 
ATOM      7  C   UNL     1       4.914   0.483   1.341  0.00  0.00    +0.071 A 
ATOM      8  C   UNL     1       4.171   0.256   2.492  0.00  0.00    +0.135 A 
ATOM      9  N   UNL     1       4.799   0.094   3.652  0.00  0.00    -0.206 NA
ATOM     10  C   UNL     1       6.123   0.145   3.714  0.00  0.00    +0.194 A 
ATOM     11  N   UNL     1       6.863   0.357   2.635  0.00  0.00    -0.183 NA
ATOM     12  C   UNL     1       6.300   0.529   1.443  0.00  0.00    +0.280 A 
ATOM     13  O   UNL     1       7.064   0.747   0.345  0.00  0.00    -0.265 OA
ATOM     14  N   UNL     1       2.790   0.197   2.416  0.00  0.00    -0.302 N 
ATOM     15  C   UNL     1       2.169  -0.025   1.218  0.00  0.00    +0.017 C 
ATOM     16  C   UNL     1       0.741  -0.516   1.240  0.00  0.00    +0.058 C 
ATOM     17  O   UNL     1       2.785   0.138  -2.214  0.00  0.00    -0.292 OA
ATOM     18  C   UNL     1      -1.431  -0.539   0.000  0.00  0.00    +0.011 C 
ATOM     19  H   UNL     1       2.259   0.314   3.220  0.00  0.00    +0.153 HD
ENDROOT
BRANCH   6  20
ATOM     20  C   UNL     1       4.249   2.142  -0.331  0.00  0.00    -0.032 A 
ATOM     21  C   UNL     1       3.601   3.050   0.486  0.00  0.00    +0.005 A 
ATOM     22  C   UNL     1       3.609   4.396   0.169  0.00  0.00    +0.004 A 
ATOM     23  C   UNL     1       4.263   4.836  -0.966  0.00  0.00    +0.045 A 
ATOM     24  C   UNL     1       4.913   3.927  -1.787  0.00  0.00    +0.117 A 
ATOM     25  C   UNL     1       4.909   2.577  -1.463  0.00  0.00    +0.050 A 
BRANCH  24  26
ATOM     26  O   UNL     1       5.557   4.357  -2.903  0.00  0.00    -0.507 OA
ATOM     27  H   UNL     1       6.485   4.588  -2.758  0.00  0.00    +0.292 HD
ENDBRANCH  24  26
ENDBRANCH   6  20
BRANCH  10  28
ATOM     28  S   UNL     1       6.918  -0.074   5.271  0.00  0.00    -0.081 S 
BRANCH  28  29
ATOM     29  C   UNL     1       8.684   0.072   4.886  0.00  0.00    +0.112 C 
BRANCH  29  30
ATOM     30  C   UNL     1       9.490  -0.098   6.148  0.00  0.00    -0.037 A 
ATOM     31  C   UNL     1       9.799   1.003   6.925  0.00  0.00    +0.004 A 
ATOM     32  C   UNL     1      10.537   0.846   8.082  0.00  0.00    +0.000 A 
ATOM     33  C   UNL     1      10.966  -0.411   8.464  0.00  0.00    +0.000 A 
ATOM     34  C   UNL     1      10.656  -1.512   7.688  0.00  0.00    +0.000 A 
ATOM     35  C   UNL     1       9.914  -1.356   6.532  0.00  0.00    +0.004 A 
ENDBRANCH  29  30
ENDBRANCH  28  29
ENDBRANCH  10  28
TORSDOF 5
