REMARK  Name = ZINC16010183
REMARK  3 active torsions:
REMARK  status: ('A' for Active; 'I' for Inactive)
REMARK    1  A    between atoms: C_7  and  C_11
REMARK    2  A    between atoms: C_11  and  C_12
REMARK    3  A    between atoms: N_20  and  C_23
REMARK                            x       y       z     vdW  Elec       q    Type
REMARK                         _______ _______ _______ _____ _____    ______ ____
ROOT
ATOM      1  C   UNL     1       0.059  -3.674  -1.129  0.00  0.00    +0.072 C 
ATOM      2  C   UNL     1      -0.859  -4.881  -1.415  0.00  0.00    +0.108 C 
ATOM      3  C   UNL     1      -0.379  -5.428  -2.789  0.00  0.00    +0.123 C 
ATOM      4  C   UNL     1      -1.557  -5.166  -3.699  0.00  0.00    +0.233 C 
ATOM      5  O   UNL     1      -1.604  -5.438  -4.880  0.00  0.00    -0.274 OA
ATOM      6  N   UNL     1      -2.540  -4.588  -2.999  0.00  0.00    -0.210 N 
ATOM      7  C   UNL     1      -2.260  -4.385  -1.691  0.00  0.00    +0.232 C 
ATOM      8  O   UNL     1      -3.000  -3.886  -0.870  0.00  0.00    -0.274 OA
ATOM      9  C   UNL     1       0.802  -4.530  -3.173  0.00  0.00    +0.136 C 
ATOM     10  N   UNL     1       1.290  -3.931  -1.922  0.00  0.00    -0.295 NA
ATOM     11  C   UNL     1       1.875  -5.305  -3.885  0.00  0.00    +0.003 A 
ATOM     12  C   UNL     1       2.645  -6.393  -3.540  0.00  0.00    +0.008 A 
ATOM     13  C   UNL     1       3.576  -6.893  -4.433  0.00  0.00    +0.000 A 
ATOM     14  C   UNL     1       3.730  -6.298  -5.672  0.00  0.00    +0.002 A 
ATOM     15  C   UNL     1       2.961  -5.208  -6.022  0.00  0.00    +0.023 A 
ATOM     16  C   UNL     1       2.021  -4.698  -5.129  0.00  0.00    +0.039 A 
ATOM     17  N   UNL     1       1.138  -3.622  -5.248  0.00  0.00    -0.283 N 
ATOM     18  C   UNL     1       0.386  -3.457  -4.142  0.00  0.00    +0.243 C 
ATOM     19  O   UNL     1      -0.462  -2.609  -3.963  0.00  0.00    -0.273 OA
ATOM     20  H   UNL     1       1.794  -3.074  -2.097  0.00  0.00    +0.124 HD
ATOM     21  H   UNL     1       1.073  -3.059  -6.035  0.00  0.00    +0.155 HD
ENDROOT
BRANCH   6  22
ATOM     22  C   UNL     1      -3.768  -4.227  -3.572  0.00  0.00    +0.045 A 
ATOM     23  C   UNL     1      -4.109  -2.887  -3.697  0.00  0.00    +0.027 A 
ATOM     24  C   UNL     1      -5.319  -2.532  -4.262  0.00  0.00    +0.041 A 
ATOM     25  C   UNL     1      -6.191  -3.512  -4.704  0.00  0.00    +0.142 A 
ATOM     26  C   UNL     1      -5.854  -4.850  -4.580  0.00  0.00    +0.078 A 
ATOM     27  C   UNL     1      -4.642  -5.208  -4.020  0.00  0.00    +0.046 A 
ATOM     28 CL   UNL     1      -6.950  -6.076  -5.135  0.00  0.00    -0.081 Cl
ATOM     29  F   UNL     1      -7.374  -3.163  -5.256  0.00  0.00    -0.204 F 
ENDBRANCH   6  22
BRANCH   1  30
ATOM     30  C   UNL     1       0.392  -3.599   0.362  0.00  0.00    +0.056 C 
BRANCH  30  37
ATOM     31  C   UNL     1      -0.711   0.880   1.194  0.00  0.00    +0.001 A 
ATOM     32  C   UNL     1       0.404   1.684   1.391  0.00  0.00    +0.002 A 
ATOM     33  C   UNL     1       1.673   1.151   1.334  0.00  0.00    +0.026 A 
ATOM     34  C   UNL     1       1.842  -0.205   1.076  0.00  0.00    +0.047 A 
ATOM     35  C   UNL     1       0.710  -1.015   0.877  0.00  0.00    +0.003 A 
ATOM     36  C   UNL     1      -0.568  -0.455   0.939  0.00  0.00    +0.010 A 
ATOM     37  C   UNL     1       1.217  -2.367   0.632  0.00  0.00    -0.021 A 
ATOM     38  C   UNL     1       2.556  -2.301   0.694  0.00  0.00    +0.087 A 
ATOM     39  N   UNL     1       2.948  -1.017   0.959  0.00  0.00    -0.360 N 
ATOM     40  H   UNL     1       3.868  -0.722   1.050  0.00  0.00    +0.165 HD
ENDBRANCH  30  37
ENDBRANCH   1  30
TORSDOF 3
