REMARK  Name = ZINC22735117
REMARK  10 active torsions:
REMARK  status: ('A' for Active; 'I' for Inactive)
REMARK    1  A    between atoms: C_1  and  N_2
REMARK    2  A    between atoms: N_5  and  C_8
REMARK    3  A    between atoms: C_8  and  C_10
REMARK    4  A    between atoms: C_8  and  C_25
REMARK    5  A    between atoms: C_10  and  N_11
REMARK    6  A    between atoms: C_12  and  C_14
REMARK    7  A    between atoms: N_16  and  C_17
REMARK    8  A    between atoms: C_17  and  C_18
REMARK    9  A    between atoms: C_18  and  C_19
REMARK   10  A    between atoms: N_34  and  C_35
REMARK                            x       y       z     vdW  Elec       q    Type
REMARK                         _______ _______ _______ _____ _____    ______ ____
ROOT
ATOM      1  C   UNL     1       3.096  -2.179   4.332  0.00  0.00    +0.104 C 
ENDROOT
BRANCH   1   2
ATOM      2  C   UNL     1       1.649  -2.054   3.931  0.00  0.00    -0.028 A 
ATOM      3  C   UNL     1       0.676  -2.756   4.618  0.00  0.00    +0.007 A 
ATOM      4  C   UNL     1      -0.646  -2.643   4.247  0.00  0.00    +0.024 A 
ATOM      5  C   UNL     1      -1.012  -1.822   3.178  0.00  0.00    +0.033 A 
ATOM      6  C   UNL     1      -0.036  -1.118   2.497  0.00  0.00    -0.026 A 
ATOM      7  C   UNL     1       1.293  -1.238   2.875  0.00  0.00    +0.010 A 
ATOM      8  C   UNL     1      -0.367  -0.202   1.346  0.00  0.00    +0.038 C 
ATOM      9  C   UNL     1      -1.783  -0.494   0.847  0.00  0.00    +0.024 C 
ATOM     10  C   UNL     1      -2.709  -0.566   2.067  0.00  0.00    +0.105 C 
ATOM     11  N   UNL     1      -2.365  -1.756   2.847  0.00  0.00    -0.333 N 
ATOM     12  C   UNL     1      -3.206  -1.861   4.047  0.00  0.00    +0.129 C 
ENDBRANCH   1   2
BRANCH   1  17
ATOM     13  C   UNL     1       4.012  -7.306   2.147  0.00  0.00    -0.096 C 
ATOM     14  N   UNL     1       3.500  -5.993   2.563  0.00  0.00    +0.379 N 
ATOM     15  C   UNL     1       3.352  -5.924   4.023  0.00  0.00    -0.064 C 
ATOM     16  C   UNL     1       2.743  -4.573   4.408  0.00  0.00    +0.066 C 
ATOM     17  N   UNL     1       3.608  -3.491   3.917  0.00  0.00    -0.297 NA
ATOM     18  C   UNL     1       3.757  -3.561   2.457  0.00  0.00    +0.066 C 
ATOM     19  C   UNL     1       4.365  -4.912   2.072  0.00  0.00    -0.064 C 
ATOM     20  H   UNL     1       2.505  -5.862   2.113  0.00  0.00    -0.082 HD
ENDBRANCH   1  17
BRANCH   1  21
ATOM     21  C   UNL     1       3.218  -2.041   5.851  0.00  0.00    +0.128 C 
BRANCH  21  22
ATOM     22  N   UNL     1       4.612  -2.249   6.251  0.00  0.00    -0.306 N 
ATOM     23  C   UNL     1       4.942  -2.273   7.557  0.00  0.00    +0.299 C 
ATOM     24  O   UNL     1       4.085  -2.123   8.403  0.00  0.00    -0.265 OA
ATOM     25  H   UNL     1       5.389  -2.385   5.484  0.00  0.00    +0.149 HD
BRANCH  23  26
ATOM     26  C   UNL     1       6.364  -2.485   7.965  0.00  0.00    +0.299 C 
ATOM     27  O   UNL     1       7.222  -2.635   7.119  0.00  0.00    -0.265 OA
ATOM     28  N   UNL     1       6.694  -2.509   9.271  0.00  0.00    -0.307 N 
ATOM     29  H   UNL     1       5.917  -2.373  10.037  0.00  0.00    +0.149 HD
BRANCH  28  30
ATOM     30  C   UNL     1       8.089  -2.717   9.670  0.00  0.00    +0.109 C 
BRANCH  30  31
ATOM     31  C   UNL     1       8.190  -2.701  11.197  0.00  0.00    +0.049 C 
BRANCH  31  32
ATOM     32  C   UNL     1       9.624  -2.915  11.608  0.00  0.00    -0.072 C 
ATOM     33  C   UNL     1      10.349  -1.869  11.846  0.00  0.00    -0.028 C 
ATOM     34  C   UNL     1      11.792  -1.923  12.254  0.00  0.00    +0.027 C 
ATOM     35  C   UNL     1      12.148  -3.325  12.751  0.00  0.00    +0.004 C 
ATOM     36  C   UNL     1      11.652  -4.346  11.719  0.00  0.00    +0.005 C 
ATOM     37  C   UNL     1      10.120  -4.326  11.721  0.00  0.00    +0.030 C 
ENDBRANCH  31  32
ENDBRANCH  30  31
ENDBRANCH  28  30
ENDBRANCH  23  26
ENDBRANCH  21  22
ENDBRANCH   1  21
TORSDOF 8
