REMARK  Name = ZINC46899977
REMARK  8 active torsions:
REMARK  status: ('A' for Active; 'I' for Inactive)
REMARK    1  A    between atoms: C_4  and  C_7
REMARK    2  A    between atoms: C_7  and  N_8
REMARK    3  A    between atoms: N_8  and  S_9
REMARK    4  A    between atoms: S_9  and  C_12
REMARK    5  A    between atoms: C_16  and  C_18
REMARK    6  A    between atoms: N_20  and  N_21
REMARK    7  A    between atoms: C_22  and  C_24
REMARK    8  A    between atoms: C_27  and  C_30
REMARK                            x       y       z     vdW  Elec       q    Type
REMARK                         _______ _______ _______ _____ _____    ______ ____
ROOT
ATOM      1  C   UNL     1       9.750   0.748   1.817  0.00  0.00    +0.260 C 
ATOM      2  O   UNL     1       9.484   1.034   2.968  0.00  0.00    -0.269 OA
ATOM      3  N   UNL     1      10.875   1.222   1.248  0.00  0.00    -0.230 N 
ATOM      4  H   UNL     1      11.088   0.994   0.329  0.00  0.00    +0.173 HD
ENDROOT
BRANCH   1   9
ATOM      5  C   UNL     1       6.827  -1.425   0.900  0.00  0.00    +0.106 A 
ATOM      6  C   UNL     1       7.133  -1.749  -0.410  0.00  0.00    +0.028 A 
ATOM      7  C   UNL     1       8.287  -1.263  -0.998  0.00  0.00    +0.003 A 
ATOM      8  C   UNL     1       9.141  -0.451  -0.280  0.00  0.00    +0.013 A 
ATOM      9  C   UNL     1       8.839  -0.121   1.042  0.00  0.00    +0.040 A 
ATOM     10  C   UNL     1       7.669  -0.610   1.627  0.00  0.00    +0.041 A 
BRANCH   5  11
ATOM     11  S   UNL     1       5.355  -2.050   1.639  0.00  0.00    +0.059 S 
ATOM     12  O   UNL     1       5.570  -2.042   3.043  0.00  0.00    -0.153 OA
ATOM     13  O   UNL     1       5.013  -3.232   0.927  0.00  0.00    -0.153 OA
BRANCH  11  14
ATOM     14  N   UNL     1       4.152  -0.952   1.338  0.00  0.00    -0.186 NA
ATOM     15  H   UNL     1       3.739  -0.472   2.072  0.00  0.00    +0.148 HD
BRANCH  14  16
ATOM     16  C   UNL     1       3.711  -0.707  -0.038  0.00  0.00    +0.141 C 
BRANCH  16  20
ATOM     17  C   UNL     1      -0.017   1.378   0.010  0.00  0.00    +0.000 A 
ATOM     18  C   UNL     1       1.171   2.086   0.002  0.00  0.00    +0.000 A 
ATOM     19  C   UNL     1       2.377   1.411  -0.013  0.00  0.00    +0.005 A 
ATOM     20  C   UNL     1       2.396   0.029  -0.020  0.00  0.00    -0.032 A 
ATOM     21  C   UNL     1       1.208  -0.679  -0.012  0.00  0.00    +0.005 A 
ATOM     22  C   UNL     1       0.002  -0.004   0.002  0.00  0.00    +0.000 A 
ENDBRANCH  16  20
ENDBRANCH  14  16
ENDBRANCH  11  14
ENDBRANCH   5  11
ENDBRANCH   1   9
BRANCH   3  23
ATOM     23  N   UNL     1      11.739   2.046   1.983  0.00  0.00    -0.231 N 
ATOM     24  C   UNL     1      12.864   2.520   1.413  0.00  0.00    +0.273 C 
ATOM     25  O   UNL     1      13.130   2.235   0.265  0.00  0.00    -0.270 OA
ATOM     26  H   UNL     1      11.526   2.274   2.901  0.00  0.00    +0.173 HD
BRANCH  24  27
ATOM     27  C   UNL     1      13.793   3.406   2.204  0.00  0.00    +0.297 C 
ATOM     28  C   UNL     1      14.476   2.614   3.344  0.00  0.00    +0.116 C 
ATOM     29  C   UNL     1      15.781   2.176   2.705  0.00  0.00    +0.091 C 
ATOM     30  N   UNL     1      15.963   2.876   1.636  0.00  0.00    -0.088 NA
ATOM     31  O   UNL     1      14.924   3.809   1.406  0.00  0.00    -0.380 OA
BRANCH  29  32
ATOM     32  C   UNL     1      16.687   1.129   3.218  0.00  0.00    +0.002 A 
ATOM     33  C   UNL     1      16.369   0.439   4.390  0.00  0.00    +0.010 A 
ATOM     34  C   UNL     1      17.219  -0.538   4.865  0.00  0.00    +0.003 A 
ATOM     35  C   UNL     1      18.386  -0.835   4.184  0.00  0.00    +0.038 A 
ATOM     36  C   UNL     1      18.709  -0.155   3.021  0.00  0.00    +0.124 A 
ATOM     37  C   UNL     1      17.862   0.822   2.531  0.00  0.00    +0.048 A 
ATOM     38  F   UNL     1      19.851  -0.450   2.362  0.00  0.00    -0.205 F 
ENDBRANCH  29  32
ENDBRANCH  24  27
ENDBRANCH   3  23
TORSDOF 8
