REMARK  Name = ZINC08757778
REMARK  10 active torsions:
REMARK  status: ('A' for Active; 'I' for Inactive)
REMARK    1  A    between atoms: C_1  and  C_2
REMARK    2  A    between atoms: C_2  and  N_3
REMARK    3  A    between atoms: C_5  and  C_12
REMARK    4  A    between atoms: C_13  and  C_14
REMARK    5  A    between atoms: C_13  and  N_30
REMARK    6  A    between atoms: N_16  and  C_17
REMARK    7  A    between atoms: C_17  and  C_18
REMARK    8  A    between atoms: C_18  and  C_19
REMARK    9  A    between atoms: C_26  and  C_29
REMARK   10  A    between atoms: C_31  and  C_33
REMARK                            x       y       z     vdW  Elec       q    Type
REMARK                         _______ _______ _______ _____ _____    ______ ____
ROOT
ATOM      1  C   UNL     1       9.604   1.618  -3.910  0.00  0.00    +0.038 C 
ATOM      2  C   UNL     1       8.951   1.368  -2.746  0.00  0.00    +0.097 C 
ENDROOT
BRANCH   1   5
ATOM      3  N   UNL     1      13.153   2.083  -3.208  0.00  0.00    -0.346 N 
ATOM      4  C   UNL     1      11.877   1.825  -2.817  0.00  0.00    +0.094 A 
ATOM      5  C   UNL     1      11.051   1.847  -3.904  0.00  0.00    +0.002 A 
ATOM      6  C   UNL     1      11.903   2.139  -5.072  0.00  0.00    +0.007 A 
ATOM      7  C   UNL     1      13.207   2.283  -4.572  0.00  0.00    +0.050 A 
ATOM      8  C   UNL     1      14.247   2.571  -5.450  0.00  0.00    +0.026 A 
ATOM      9  C   UNL     1      13.989   2.719  -6.795  0.00  0.00    +0.002 A 
ATOM     10  C   UNL     1      12.699   2.582  -7.287  0.00  0.00    +0.001 A 
ATOM     11  C   UNL     1      11.656   2.297  -6.433  0.00  0.00    +0.010 A 
BRANCH   3  13
ATOM     12  C   UNL     1      14.562   3.590  -1.894  0.00  0.00    +0.027 C 
ATOM     13  C   UNL     1      14.308   2.139  -2.307  0.00  0.00    +0.118 C 
ENDBRANCH   3  13
ENDBRANCH   1   5
BRANCH   2  14
ATOM     14  C   UNL     1       7.492   1.258  -2.734  0.00  0.00    +0.258 C 
ATOM     15  O   UNL     1       6.863   1.391  -3.768  0.00  0.00    -0.269 OA
ATOM     16  N   UNL     1       6.844   1.008  -1.579  0.00  0.00    -0.310 N 
ATOM     17  H   UNL     1       7.348   0.837  -0.768  0.00  0.00    +0.149 HD
BRANCH  16  18
ATOM     18  C   UNL     1       5.379   0.995  -1.548  0.00  0.00    +0.109 C 
BRANCH  18  19
ATOM     19  C   UNL     1       4.902   0.689  -0.127  0.00  0.00    +0.056 C 
BRANCH  19  20
ATOM     20  C   UNL     1       3.395   0.676  -0.096  0.00  0.00    -0.021 A 
ATOM     21  C   UNL     1       2.595   1.701   0.238  0.00  0.00    +0.087 A 
ATOM     22  N   UNL     1       1.284   1.316   0.151  0.00  0.00    -0.360 N 
ATOM     23  H   UNL     1       0.522   1.885   0.344  0.00  0.00    +0.165 HD
ATOM     24  C   UNL     1       1.208   0.002  -0.251  0.00  0.00    +0.047 A 
ATOM     25  C   UNL     1       2.526  -0.457  -0.423  0.00  0.00    +0.003 A 
ATOM     26  C   UNL     1       2.759  -1.771  -0.832  0.00  0.00    +0.013 A 
ATOM     27  C   UNL     1       1.702  -2.607  -1.063  0.00  0.00    -0.050 A 
ATOM     28  C   UNL     1       0.400  -2.159  -0.894  0.00  0.00    +0.005 A 
ATOM     29  C   UNL     1       0.147  -0.866  -0.491  0.00  0.00    +0.026 A 
ATOM     30  C   UNL     1       1.954  -4.026  -1.503  0.00  0.00    +0.044 C 
ENDBRANCH  19  20
ENDBRANCH  18  19
ENDBRANCH  16  18
ENDBRANCH   2  14
BRANCH   2  31
ATOM     31  N   UNL     1       9.676   1.214  -1.555  0.00  0.00    -0.275 N 
ATOM     32  C   UNL     1       9.451   2.046  -0.518  0.00  0.00    +0.284 C 
ATOM     33  O   UNL     1       8.562   2.875  -0.585  0.00  0.00    -0.266 OA
ATOM     34  H   UNL     1      10.338   0.510  -1.478  0.00  0.00    +0.155 HD
BRANCH  32  35
ATOM     35  C   UNL     1      10.278   1.951   0.689  0.00  0.00    +0.189 A 
ATOM     36  C   UNL     1      10.158   2.728   1.806  0.00  0.00    +0.054 A 
ATOM     37  C   UNL     1      11.144   2.295   2.706  0.00  0.00    +0.042 A 
ATOM     38  C   UNL     1      11.815   1.286   2.107  0.00  0.00    +0.196 A 
ATOM     39  O   UNL     1      11.286   1.078   0.894  0.00  0.00    -0.458 OA
ENDBRANCH  32  35
ENDBRANCH   2  31
TORSDOF 8
