REMARK  Name = ZINC43704437
REMARK  3 active torsions:
REMARK  status: ('A' for Active; 'I' for Inactive)
REMARK    1  A    between atoms: C_5  and  C_6
REMARK    2  A    between atoms: C_6  and  N_7
REMARK    3  A    between atoms: C_11  and  C_14
REMARK                            x       y       z     vdW  Elec       q    Type
REMARK                         _______ _______ _______ _____ _____    ______ ____
ROOT
ATOM      1  N   UNL     1      -1.615  -1.186  -1.373  0.00  0.00    +0.388 N 
ATOM      2  C   UNL     1      -2.059   0.057  -2.019  0.00  0.00    -0.050 C 
ATOM      3  C   UNL     1      -2.482  -0.241  -3.459  0.00  0.00    +0.142 C 
ATOM      4  O   UNL     1      -3.518  -1.228  -3.452  0.00  0.00    -0.369 OA
ATOM      5  C   UNL     1      -3.142  -2.450  -2.811  0.00  0.00    +0.214 C 
ATOM      6  C   UNL     1      -2.720  -2.155  -1.370  0.00  0.00    -0.034 C 
ATOM      7  H   UNL     1      -0.833  -1.569  -1.882  0.00  0.00    -0.081 HD
ENDROOT
BRANCH   5   8
ATOM      8  C   UNL     1      -4.313  -3.398  -2.810  0.00  0.00    +0.382 C 
ATOM      9  O   UNL     1      -5.372  -3.060  -3.310  0.00  0.00    -0.244 OA
ATOM     10  O   UNL     1      -4.201  -4.504  -2.308  0.00  0.00    -0.244 OA
ENDBRANCH   5   8
BRANCH   1  11
ATOM     11  C   UNL     1      -1.208  -0.902   0.009  0.00  0.00    -0.003 C 
BRANCH  11  16
ATOM     12  C   UNL     1      -0.016   1.341   0.009  0.00  0.00    +0.044 A 
ATOM     13  C   UNL     1       1.331   1.769  -0.001  0.00  0.00    +0.057 A 
ATOM     14  C   UNL     1       2.093   0.659  -0.014  0.00  0.00    +0.170 A 
ATOM     15  O   UNL     1       1.282  -0.412  -0.012  0.00  0.00    -0.455 OA
ATOM     16  C   UNL     1       0.002  -0.004   0.002  0.00  0.00    +0.090 A 
ATOM     17 BR   UNL     1       3.983   0.615  -0.034  0.00  0.00    -0.008 Br
ENDBRANCH  11  16
ENDBRANCH   1  11
TORSDOF 3
