REMARK  Name = ZINC08856530
REMARK  10 active torsions:
REMARK  status: ('A' for Active; 'I' for Inactive)
REMARK    1  A    between atoms: C_1  and  C_2
REMARK    2  A    between atoms: C_3  and  C_12
REMARK    3  A    between atoms: C_12  and  C_13
REMARK    4  A    between atoms: C_13  and  N_58
REMARK    5  A    between atoms: C_14  and  C_16
REMARK    6  A    between atoms: C_14  and  C_24
REMARK    7  A    between atoms: C_14  and  N_58
REMARK    8  A    between atoms: N_28  and  C_29
REMARK    9  A    between atoms: C_32  and  O_35
REMARK   10  A    between atoms: O_35  and  C_36
REMARK                            x       y       z     vdW  Elec       q    Type
REMARK                         _______ _______ _______ _____ _____    ______ ____
ROOT
ATOM      1  C   UNL     1      -3.751   2.482   1.653  0.00  0.00    +0.032 C 
ENDROOT
BRANCH   1   2
ATOM      2  C   UNL     1      -3.703   2.376   3.156  0.00  0.00    -0.036 A 
ATOM      3  C   UNL     1      -4.875   2.385   3.888  0.00  0.00    +0.005 A 
ATOM      4  C   UNL     1      -4.831   2.287   5.266  0.00  0.00    +0.020 A 
ATOM      5  C   UNL     1      -3.613   2.181   5.914  0.00  0.00    +0.042 A 
ATOM      6  C   UNL     1      -2.439   2.172   5.182  0.00  0.00    +0.040 A 
ATOM      7  C   UNL     1      -2.484   2.263   3.802  0.00  0.00    +0.044 A 
ATOM      8 CL   UNL     1      -1.012   2.244   2.882  0.00  0.00    -0.083 Cl
ATOM      9 CL   UNL     1      -3.558   2.058   7.644  0.00  0.00    -0.083 Cl
ENDBRANCH   1   2
BRANCH   1  10
ATOM     10  C   UNL     1      -3.771   1.100   1.052  0.00  0.00    +0.147 A 
ATOM     11  N   UNL     1      -4.728   0.217   1.170  0.00  0.00    -0.114 NA
ATOM     12  N   UNL     1      -4.431  -0.859   0.536  0.00  0.00    -0.023 NA
ATOM     13  N   UNL     1      -3.279  -0.739  -0.030  0.00  0.00    -0.039 NA
ATOM     14  N   UNL     1      -2.803   0.544   0.293  0.00  0.00    -0.198 N 
BRANCH  14  15
ATOM     15  C   UNL     1      -1.586   1.124  -0.096  0.00  0.00    +0.069 A 
ATOM     16  C   UNL     1      -1.553   2.442  -0.531  0.00  0.00    +0.031 A 
ATOM     17  C   UNL     1      -0.354   3.014  -0.908  0.00  0.00    +0.048 A 
ATOM     18  C   UNL     1       0.816   2.271  -0.859  0.00  0.00    +0.120 A 
ATOM     19  C   UNL     1       0.782   0.952  -0.429  0.00  0.00    +0.048 A 
ATOM     20  C   UNL     1      -0.416   0.379  -0.051  0.00  0.00    +0.031 A 
BRANCH  18  21
ATOM     21  O   UNL     1       1.996   2.834  -1.230  0.00  0.00    -0.495 OA
ATOM     22  C   UNL     1       3.161   2.010  -1.154  0.00  0.00    +0.277 C 
ENDBRANCH  18  21
ENDBRANCH  14  15
ENDBRANCH   1  10
BRANCH   1  23
ATOM     23  N   UNL     1      -4.973   3.203   1.250  0.00  0.00    +0.389 N 
ATOM     24  H   UNL     1      -5.172   3.006   0.262  0.00  0.00    -0.084 HD
ATOM     25  H   UNL     1      -5.761   2.885   1.827  0.00  0.00    -0.084 HD
BRANCH  23  26
ATOM     26  C   UNL     1      -4.794   4.656   1.430  0.00  0.00    -0.076 C 
BRANCH  26  27
ATOM     27  C   UNL     1      -6.075   5.376   1.003  0.00  0.00    +0.018 C 
BRANCH  27  30
ATOM     28  C   UNL     1      -6.757   6.999   3.560  0.00  0.00    +0.063 C 
ATOM     29  C   UNL     1      -6.192   7.572   2.285  0.00  0.00    +0.017 A 
ATOM     30  C   UNL     1      -5.900   6.862   1.184  0.00  0.00    -0.021 A 
ATOM     31  C   UNL     1      -5.385   7.806   0.190  0.00  0.00    +0.003 A 
ATOM     32  C   UNL     1      -4.928   7.679  -1.123  0.00  0.00    +0.010 A 
ATOM     33  C   UNL     1      -4.503   8.785  -1.803  0.00  0.00    +0.001 A 
ATOM     34  C   UNL     1      -4.521  10.035  -1.199  0.00  0.00    +0.002 A 
ATOM     35  C   UNL     1      -4.968  10.183   0.096  0.00  0.00    +0.026 A 
ATOM     36  C   UNL     1      -5.406   9.070   0.807  0.00  0.00    +0.047 A 
ATOM     37  N   UNL     1      -5.898   8.892   2.080  0.00  0.00    -0.358 N 
ATOM     38  H   UNL     1      -6.022   9.599   2.734  0.00  0.00    +0.166 HD
ENDBRANCH  27  30
ENDBRANCH  26  27
ENDBRANCH  23  26
ENDBRANCH   1  23
TORSDOF 8
