REMARK  Name = ZINC12135635
REMARK  8 active torsions:
REMARK  status: ('A' for Active; 'I' for Inactive)
REMARK    1  A    between atoms: C_1  and  C_2
REMARK    2  A    between atoms: C_8  and  N_10
REMARK    3  A    between atoms: C_14  and  C_16
REMARK    4  A    between atoms: C_16  and  S_17
REMARK    5  A    between atoms: S_17  and  C_18
REMARK    6  A    between atoms: C_21  and  C_29
REMARK    7  A    between atoms: N_22  and  C_23
REMARK    8  A    between atoms: C_29  and  N_67
REMARK                            x       y       z     vdW  Elec       q    Type
REMARK                         _______ _______ _______ _____ _____    ______ ____
ROOT
ATOM      1  C   UNL     1       0.002  -0.004   0.002  0.00  0.00    +0.197 A 
ATOM      2  N   UNL     1      -0.016   1.309   0.009  0.00  0.00    -0.122 NA
ATOM      3  N   UNL     1       1.186   1.763   0.000  0.00  0.00    -0.135 NA
ATOM      4  C   UNL     1       2.039   0.777  -0.013  0.00  0.00    +0.122 A 
ATOM      5  N   UNL     1       1.315  -0.386  -0.013  0.00  0.00    -0.276 N 
ENDROOT
BRANCH   5   6
ATOM      6  C   UNL     1       1.817  -1.696  -0.024  0.00  0.00    +0.050 A 
ATOM      7  C   UNL     1       2.555  -2.167   1.053  0.00  0.00    +0.026 A 
ATOM      8  C   UNL     1       3.042  -3.460   1.042  0.00  0.00    +0.002 A 
ATOM      9  C   UNL     1       2.806  -4.279  -0.046  0.00  0.00    +0.000 A 
ATOM     10  C   UNL     1       2.077  -3.811  -1.123  0.00  0.00    +0.002 A 
ATOM     11  C   UNL     1       1.582  -2.521  -1.115  0.00  0.00    +0.026 A 
ENDBRANCH   5   6
BRANCH   1  12
ATOM     12  S   UNL     1      -1.400  -1.071   0.010  0.00  0.00    -0.076 S 
BRANCH  12  13
ATOM     13  C   UNL     1      -2.730   0.157   0.028  0.00  0.00    +0.173 C 
BRANCH  13  18
ATOM     14  N   UNL     1      -7.536   0.261   0.073  0.00  0.00    -0.296 N 
ATOM     15  C   UNL     1      -6.395  -0.457   0.059  0.00  0.00    +0.306 C 
ATOM     16  O   UNL     1      -6.442  -1.672   0.053  0.00  0.00    -0.252 OA
ATOM     17  N   UNL     1      -5.203   0.172   0.051  0.00  0.00    -0.239 N 
ATOM     18  C   UNL     1      -4.062  -0.546   0.037  0.00  0.00    +0.231 C 
ATOM     19  O   UNL     1      -4.109  -1.758   0.031  0.00  0.00    -0.274 OA
ATOM     20  H   UNL     1      -7.498   1.230   0.078  0.00  0.00    +0.151 HD
ATOM     21  H   UNL     1      -5.166   1.141   0.056  0.00  0.00    +0.159 HD
BRANCH  14  28
ATOM     22  C   UNL     1      -9.519   0.855  -1.952  0.00  0.00    +0.009 C 
ATOM     23  C   UNL     1      -9.898   0.499  -0.513  0.00  0.00    +0.006 C 
ATOM     24  C   UNL     1     -11.251  -0.215  -0.504  0.00  0.00    +0.005 C 
ATOM     25  C   UNL     1     -11.630  -0.572   0.935  0.00  0.00    +0.000 C 
ATOM     26  C   UNL     1     -10.564  -1.493   1.530  0.00  0.00    +0.002 C 
ATOM     27  C   UNL     1      -9.210  -0.779   1.521  0.00  0.00    +0.022 C 
ATOM     28  C   UNL     1      -8.831  -0.423   0.082  0.00  0.00    +0.077 C 
ENDBRANCH  14  28
ENDBRANCH  13  18
ENDBRANCH  12  13
ENDBRANCH   1  12
BRANCH   4  29
ATOM     29  C   UNL     1       3.541   0.895  -0.027  0.00  0.00    -0.001 C 
BRANCH  29  35
ATOM     30  C   UNL     1       3.754  -0.330  -2.104  0.00  0.00    -0.078 C 
ATOM     31  C   UNL     1       4.127  -0.197  -3.583  0.00  0.00    -0.019 C 
ATOM     32  C   UNL     1       5.608   0.172  -3.699  0.00  0.00    -0.004 C 
ATOM     33  C   UNL     1       5.864   1.473  -2.934  0.00  0.00    -0.019 C 
ATOM     34  C   UNL     1       5.441   1.292  -1.474  0.00  0.00    -0.078 C 
ATOM     35  N   UNL     1       4.000   0.963  -1.430  0.00  0.00    +0.384 N 
ATOM     36  H   UNL     1       3.475   1.698  -1.917  0.00  0.00    -0.081 HD
ENDBRANCH  29  35
ENDBRANCH   4  29
TORSDOF 7
