REMARK  Name = ZINC00792592
REMARK  9 active torsions:
REMARK  status: ('A' for Active; 'I' for Inactive)
REMARK    1  A    between atoms: C_1  and  C_2
REMARK    2  A    between atoms: C_2  and  O_3
REMARK    3  A    between atoms: O_3  and  C_4
REMARK    4  A    between atoms: C_4  and  C_6
REMARK    5  A    between atoms: C_7  and  N_27
REMARK    6  A    between atoms: C_11  and  C_13
REMARK    7  A    between atoms: C_16  and  C_18
REMARK    8  A    between atoms: C_23  and  C_25
REMARK    9  A    between atoms: C_23  and  C_26
REMARK                            x       y       z     vdW  Elec       q    Type
REMARK                         _______ _______ _______ _____ _____    ______ ____
ROOT
ATOM      1  C   UNL     1       0.004  -0.019   0.027  0.00  0.00    +0.106 C 
ATOM      2  C   UNL     1       1.163  -0.675   0.296  0.00  0.00    +0.195 C 
ATOM      3  O   UNL     1       2.276  -0.010   0.639  0.00  0.00    -0.446 OA
ATOM      4  C   UNL     1       2.409   1.288   0.309  0.00  0.00    +0.115 C 
ATOM      5  C   UNL     1       1.338   2.058   0.048  0.00  0.00    +0.046 C 
ATOM      6  C   UNL     1      -0.056   1.481   0.103  0.00  0.00    +0.104 C 
ATOM      7  C   UNL     1       1.478   3.421  -0.282  0.00  0.00    +0.164 C 
ATOM      8  O   UNL     1       0.487   4.080  -0.524  0.00  0.00    -0.292 OA
ATOM      9  C   UNL     1       2.832   4.073  -0.341  0.00  0.00    +0.086 C 
ATOM     10  C   UNL     1       3.777   3.341   0.617  0.00  0.00    -0.021 C 
ATOM     11  C   UNL     1       3.806   1.860   0.233  0.00  0.00    +0.081 C 
ATOM     12  C   UNL     1       3.270   3.490   2.053  0.00  0.00    +0.012 C 
ATOM     13  C   UNL     1       5.186   3.928   0.506  0.00  0.00    +0.012 C 
ENDROOT
BRANCH   6  14
ATOM     14  C   UNL     1      -0.715   1.890   1.395  0.00  0.00    +0.003 A 
ATOM     15  C   UNL     1      -1.840   2.622   1.585  0.00  0.00    +0.027 A 
ATOM     16  C   UNL     1      -2.265   2.875   2.876  0.00  0.00    +0.028 A 
ATOM     17  C   UNL     1      -1.539   2.391   3.914  0.00  0.00    +0.001 A 
ATOM     18  S   UNL     1      -0.212   1.543   3.073  0.00  0.00    -0.096 S 
ATOM     19  C   UNL     1      -1.787   2.533   5.394  0.00  0.00    +0.053 C 
ATOM     20 BR   UNL     1      -3.833   3.885   3.190  0.00  0.00    -0.049 Br
ENDBRANCH   6  14
BRANCH   2  21
ATOM     21  N   UNL     1       1.195  -2.041   0.215  0.00  0.00    -0.329 N 
ATOM     22  H   UNL     1       0.424  -2.525  -0.119  0.00  0.00    +0.145 HD
ATOM     23  H   UNL     1       1.988  -2.525   0.493  0.00  0.00    +0.145 HD
ENDBRANCH   2  21
BRANCH   1  24
ATOM     24  C   UNL     1      -1.145  -0.746  -0.324  0.00  0.00    +0.341 C 
ATOM     25  O   UNL     1      -1.487  -0.817  -1.491  0.00  0.00    -0.245 OA
BRANCH  24  26
ATOM     26  O   UNL     1      -1.869  -1.368   0.631  0.00  0.00    -0.462 OA
BRANCH  26  28
ATOM     27  C   UNL     1      -3.712  -2.721   1.415  0.00  0.00    +0.048 C 
ATOM     28  C   UNL     1      -3.025  -2.090   0.202  0.00  0.00    +0.229 C 
ENDBRANCH  26  28
ENDBRANCH  24  26
ENDBRANCH   1  24
TORSDOF 5
