REMARK  Name = ZINC39758848
REMARK  7 active torsions:
REMARK  status: ('A' for Active; 'I' for Inactive)
REMARK    1  A    between atoms: C_8  and  C_10
REMARK    2  A    between atoms: C_13  and  N_16
REMARK    3  A    between atoms: C_17  and  C_19
REMARK    4  A    between atoms: C_19  and  S_20
REMARK    5  A    between atoms: S_20  and  C_21
REMARK    6  A    between atoms: C_24  and  C_27
REMARK    7  A    between atoms: C_31  and  N_33
REMARK                            x       y       z     vdW  Elec       q    Type
REMARK                         _______ _______ _______ _____ _____    ______ ____
ROOT
ATOM      1  N   UNL     1       6.144  -6.777  -0.096  0.00  0.00    -0.285 N 
ATOM      2  C   UNL     1       7.484  -6.678  -0.205  0.00  0.00    +0.227 C 
ATOM      3  O   UNL     1       8.014  -5.587  -0.199  0.00  0.00    -0.275 OA
ATOM      4  H   UNL     1       5.726  -7.649  -0.023  0.00  0.00    +0.155 HD
ENDROOT
BRANCH   1   8
ATOM      5  C   UNL     1       3.795  -3.333  -0.072  0.00  0.00    +0.017 A 
ATOM      6  C   UNL     1       4.967  -3.375  -0.830  0.00  0.00    +0.013 A 
ATOM      7  C   UNL     1       5.741  -4.515  -0.835  0.00  0.00    +0.024 A 
ATOM      8  C   UNL     1       5.356  -5.622  -0.088  0.00  0.00    +0.033 A 
ATOM      9  C   UNL     1       4.190  -5.584   0.668  0.00  0.00    +0.024 A 
ATOM     10  C   UNL     1       3.414  -4.445   0.683  0.00  0.00    +0.013 A 
BRANCH   5  18
ATOM     11  C   UNL     1       0.723   1.870  -0.354  0.00  0.00    +0.001 A 
ATOM     12  C   UNL     1      -0.123   1.196   0.515  0.00  0.00    +0.004 A 
ATOM     13  C   UNL     1       0.155  -0.096   0.909  0.00  0.00    +0.047 A 
ATOM     14  C   UNL     1       1.294  -0.734   0.433  0.00  0.00    +0.136 A 
ATOM     15  C   UNL     1       2.148  -0.046  -0.447  0.00  0.00    +0.021 A 
ATOM     16  C   UNL     1       1.849   1.261  -0.834  0.00  0.00    +0.011 A 
ATOM     17  C   UNL     1       3.234  -0.979  -0.754  0.00  0.00    +0.058 A 
ATOM     18  C   UNL     1       2.962  -2.112  -0.063  0.00  0.00    +0.136 A 
ATOM     19  O   UNL     1       1.819  -1.960   0.633  0.00  0.00    -0.455 OA
ENDBRANCH   5  18
ENDBRANCH   1   8
BRANCH   2  20
ATOM     20  C   UNL     1       8.323  -7.923  -0.333  0.00  0.00    +0.173 C 
BRANCH  20  21
ATOM     21  S   UNL     1      10.073  -7.462  -0.460  0.00  0.00    -0.077 S 
BRANCH  21  22
ATOM     22  C   UNL     1      10.911  -9.005  -0.602  0.00  0.00    +0.185 A 
ATOM     23  N   UNL     1      10.347 -10.193  -0.610  0.00  0.00    -0.201 NA
ATOM     24  H   UNL     1      12.920  -8.478  -0.757  0.00  0.00    +0.191 HD
ATOM     25  C   UNL     1      11.290 -11.139  -0.734  0.00  0.00    +0.182 A 
ATOM     26  N   UNL     1      12.466 -10.560  -0.807  0.00  0.00    -0.152 NA
ATOM     27  N   UNL     1      12.246  -9.175  -0.729  0.00  0.00    -0.253 N 
BRANCH  25  28
ATOM     28  C   UNL     1      11.043 -12.602  -0.781  0.00  0.00    +0.023 A 
ATOM     29  C   UNL     1       9.742 -13.095  -0.699  0.00  0.00    +0.012 A 
ATOM     30  C   UNL     1       9.519 -14.456  -0.744  0.00  0.00    +0.003 A 
ATOM     31  C   UNL     1      10.583 -15.330  -0.870  0.00  0.00    +0.033 A 
ATOM     32  C   UNL     1      11.877 -14.846  -0.951  0.00  0.00    +0.127 A 
ATOM     33  C   UNL     1      12.111 -13.487  -0.913  0.00  0.00    +0.044 A 
BRANCH  32  34
ATOM     34  N   UNL     1      13.011 -15.788  -1.084  0.00  0.00    +0.056 N 
ATOM     35  O   UNL     1      12.806 -16.979  -1.121  0.00  0.00    -0.126 OA
ATOM     36  O   UNL     1      14.141 -15.367  -1.155  0.00  0.00    -0.126 OA
ENDBRANCH  32  34
ENDBRANCH  25  28
ENDBRANCH  21  22
ENDBRANCH  20  21
ENDBRANCH   2  20
TORSDOF 7
