REMARK  Name = ZINC40437409
REMARK  3 active torsions:
REMARK  status: ('A' for Active; 'I' for Inactive)
REMARK    1  A    between atoms: C_1  and  O_2
REMARK    2  A    between atoms: O_2  and  C_3
REMARK    3  A    between atoms: C_8  and  N_9
REMARK                            x       y       z     vdW  Elec       q    Type
REMARK                         _______ _______ _______ _____ _____    ______ ____
ROOT
ATOM      1  N   UNL     1       0.094  -2.778  -0.110  0.00  0.00    -0.189 N 
ATOM      2  C   UNL     1      -1.182  -3.215  -0.111  0.00  0.00    +0.251 C 
ATOM      3  O   UNL     1      -2.026  -3.015  -0.959  0.00  0.00    -0.272 OA
ATOM      4  C   UNL     1      -1.339  -4.006   1.167  0.00  0.00    +0.113 C 
ATOM      5  C   UNL     1      -1.690  -5.457   0.855  0.00  0.00    +0.035 C 
ATOM      6  C   UNL     1      -1.814  -6.246   2.161  0.00  0.00    +0.003 C 
ATOM      7  C   UNL     1      -2.902  -5.617   3.034  0.00  0.00    +0.000 C 
ATOM      8  C   UNL     1      -2.525  -4.170   3.358  0.00  0.00    +0.003 C 
ATOM      9  C   UNL     1      -2.403  -3.372   2.057  0.00  0.00    +0.035 C 
ATOM     10  N   UNL     1      -0.019  -3.921   1.804  0.00  0.00    -0.285 N 
ATOM     11  C   UNL     1       0.754  -3.187   0.980  0.00  0.00    +0.314 C 
ATOM     12  O   UNL     1       1.920  -2.924   1.204  0.00  0.00    -0.252 OA
ATOM     13  H   UNL     1       0.245  -4.317   2.649  0.00  0.00    +0.151 HD
ENDROOT
BRANCH   1  19
ATOM     14  C   UNL     1       0.606  -0.607  -1.056  0.00  0.00    +0.142 A 
ATOM     15  C   UNL     1       1.173   0.159  -2.062  0.00  0.00    +0.047 A 
ATOM     16  C   UNL     1       1.786  -0.456  -3.137  0.00  0.00    +0.004 A 
ATOM     17  C   UNL     1       1.837  -1.836  -3.213  0.00  0.00    +0.002 A 
ATOM     18  C   UNL     1       1.274  -2.607  -2.214  0.00  0.00    +0.028 A 
ATOM     19  C   UNL     1       0.662  -1.997  -1.129  0.00  0.00    +0.087 A 
BRANCH  14  21
ATOM     20  C   UNL     1      -0.017   1.425   0.010  0.00  0.00    +0.277 C 
ATOM     21  O   UNL     1       0.002  -0.004   0.002  0.00  0.00    -0.493 OA
ENDBRANCH  14  21
ENDBRANCH   1  19
TORSDOF 2
