REMARK  Name = ZINC24434110
REMARK  5 active torsions:
REMARK  status: ('A' for Active; 'I' for Inactive)
REMARK    1  A    between atoms: C_1  and  C_2
REMARK    2  A    between atoms: C_5  and  C_22
REMARK    3  A    between atoms: C_7  and  N_8
REMARK    4  A    between atoms: N_8  and  S_9
REMARK    5  A    between atoms: S_9  and  C_12
REMARK                            x       y       z     vdW  Elec       q    Type
REMARK                         _______ _______ _______ _____ _____    ______ ____
ROOT
ATOM      1  C   UNL     1      -2.456   4.790  -4.198  0.00  0.00    +0.046 C 
ATOM      2  C   UNL     1      -3.079   3.515  -3.691  0.00  0.00    -0.028 A 
ATOM      3  C   UNL     1      -3.038   2.373  -4.468  0.00  0.00    +0.006 A 
ATOM      4  C   UNL     1      -3.612   1.203  -4.013  0.00  0.00    +0.012 A 
ATOM      5  C   UNL     1      -4.231   1.169  -2.763  0.00  0.00    +0.021 A 
ATOM      6  C   UNL     1      -4.267   2.319  -1.977  0.00  0.00    +0.036 A 
ATOM      7  C   UNL     1      -3.688   3.490  -2.442  0.00  0.00    +0.052 A 
ENDROOT
BRANCH   5   8
ATOM      8  C   UNL     1      -4.846  -0.085  -2.273  0.00  0.00    +0.164 A 
ATOM      9  N   UNL     1      -5.132  -0.382  -1.024  0.00  0.00    -0.129 NA
ATOM     10  N   UNL     1      -5.666  -1.552  -0.967  0.00  0.00    -0.134 NA
ATOM     11  C   UNL     1      -5.747  -2.063  -2.163  0.00  0.00    +0.134 A 
ATOM     12  N   UNL     1      -5.221  -1.157  -3.030  0.00  0.00    -0.311 N 
ATOM     13  C   UNL     1      -5.079  -1.315  -4.477  0.00  0.00    +0.125 C 
ATOM     14  C   UNL     1      -6.169  -2.259  -4.993  0.00  0.00    +0.022 C 
ATOM     15  C   UNL     1      -5.671  -3.702  -4.939  0.00  0.00    +0.002 C 
ATOM     16  C   UNL     1      -5.354  -4.106  -3.502  0.00  0.00    +0.008 C 
ATOM     17  C   UNL     1      -6.320  -3.403  -2.545  0.00  0.00    +0.076 C 
ENDBRANCH   5   8
BRANCH   7  18
ATOM     18  N   UNL     1      -3.721   4.646  -1.658  0.00  0.00    -0.216 N 
ATOM     19  H   UNL     1      -3.784   5.634  -2.137  0.00  0.00    +0.174 HD
BRANCH  18  20
ATOM     20  S   UNL     1      -3.667   4.528  -0.007  0.00  0.00    +0.072 S 
ATOM     21  O   UNL     1      -4.710   3.640   0.371  0.00  0.00    -0.150 OA
ATOM     22  O   UNL     1      -3.579   5.856   0.492  0.00  0.00    -0.150 OA
BRANCH  20  23
ATOM     23  C   UNL     1      -2.152   3.732   0.409  0.00  0.00    +0.109 A 
ATOM     24  C   UNL     1      -1.012   4.482   0.631  0.00  0.00    +0.029 A 
ATOM     25  C   UNL     1       0.171   3.851   0.954  0.00  0.00    +0.006 A 
ATOM     26  C   UNL     1       0.228   2.467   1.059  0.00  0.00    -0.044 A 
ATOM     27  C   UNL     1      -0.908   1.720   0.841  0.00  0.00    -0.042 A 
ATOM     28  C   UNL     1      -2.100   2.358   0.519  0.00  0.00    +0.032 A 
ATOM     29  C   UNL     1      -0.922   0.217   0.944  0.00  0.00    +0.035 C 
ATOM     30  C   UNL     1       0.498  -0.339   0.876  0.00  0.00    +0.005 C 
ATOM     31  C   UNL     1       1.360   0.410   1.899  0.00  0.00    +0.005 C 
ATOM     32  C   UNL     1       1.554   1.843   1.408  0.00  0.00    +0.035 C 
ENDBRANCH  20  23
ENDBRANCH  18  20
ENDBRANCH   7  18
TORSDOF 4
