REMARK  Name = ZINC66004611
REMARK  5 active torsions:
REMARK  status: ('A' for Active; 'I' for Inactive)
REMARK    1  A    between atoms: C_1  and  C_2
REMARK    2  A    between atoms: C_3  and  C_12
REMARK    3  A    between atoms: C_14  and  C_15
REMARK    4  A    between atoms: C_14  and  C_17
REMARK    5  A    between atoms: C_17  and  C_19
REMARK                            x       y       z     vdW  Elec       q    Type
REMARK                         _______ _______ _______ _____ _____    ______ ____
ROOT
ATOM      1  C   UNL     1      -0.006  -0.337  -2.517  0.00  0.00    +0.209 C 
ATOM      2  O   UNL     1       1.091  -0.491  -3.289  0.00  0.00    -0.286 OA
ATOM      3  C   UNL     1      -1.153   0.259  -3.046  0.00  0.00    +0.146 C 
ENDROOT
BRANCH   1   6
ATOM      4  C   UNL     1      -0.018   1.503   0.010  0.00  0.00    +0.064 C 
ATOM      5  C   UNL     1       0.002  -0.004   0.002  0.00  0.00    +0.025 A 
ATOM      6  C   UNL     1       0.008  -0.793  -1.128  0.00  0.00    +0.051 A 
ATOM      7  C   UNL     1       0.029  -2.191  -0.655  0.00  0.00    +0.011 A 
ATOM      8  C   UNL     1       0.042  -3.427  -1.296  0.00  0.00    +0.011 A 
ATOM      9  C   UNL     1       0.061  -4.584  -0.548  0.00  0.00    +0.001 A 
ATOM     10  C   UNL     1       0.066  -4.520   0.838  0.00  0.00    +0.002 A 
ATOM     11  C   UNL     1       0.053  -3.304   1.485  0.00  0.00    +0.026 A 
ATOM     12  C   UNL     1       0.034  -2.124   0.747  0.00  0.00    +0.047 A 
ATOM     13  N   UNL     1       0.024  -0.791   1.103  0.00  0.00    -0.358 N 
ATOM     14  H   UNL     1       0.028  -0.463   2.016  0.00  0.00    +0.166 HD
ENDBRANCH   1   6
BRANCH   3  15
ATOM     15  C   UNL     1      -1.166   0.706  -4.406  0.00  0.00    +0.107 C 
ATOM     16  N   UNL     1      -1.177   1.061  -5.485  0.00  0.00    -0.191 NA
ENDBRANCH   3  15
BRANCH   3  17
ATOM     17  C   UNL     1      -2.342   0.426  -2.209  0.00  0.00    +0.210 C 
ATOM     18  O   UNL     1      -2.331   0.046  -1.052  0.00  0.00    -0.286 OA
BRANCH  17  19
ATOM     19  C   UNL     1      -3.555   1.055  -2.768  0.00  0.00    +0.062 A 
ATOM     20  C   UNL     1      -4.826   1.305  -2.073  0.00  0.00    +0.068 A 
ATOM     21  C   UNL     1      -5.630   1.892  -2.974  0.00  0.00    +0.170 A 
ATOM     22  O   UNL     1      -4.969   2.018  -4.136  0.00  0.00    -0.456 OA
ATOM     23  C   UNL     1      -3.728   1.531  -4.034  0.00  0.00    +0.208 A 
ATOM     24 BR   UNL     1      -7.409   2.451  -2.658  0.00  0.00    -0.008 Br
ENDBRANCH  17  19
ENDBRANCH   3  17
TORSDOF 4
