REMARK  Name = ZINC39940574
REMARK  9 active torsions:
REMARK  status: ('A' for Active; 'I' for Inactive)
REMARK    1  A    between atoms: C_1  and  C_2
REMARK    2  A    between atoms: C_2  and  C_3
REMARK    3  A    between atoms: C_2  and  C_4
REMARK    4  A    between atoms: C_2  and  C_5
REMARK    5  A    between atoms: N_20  and  C_23
REMARK    6  A    between atoms: C_25  and  C_33
REMARK    7  A    between atoms: C_26  and  N_32
REMARK    8  A    between atoms: C_27  and  C_28
REMARK    9  A    between atoms: C_27  and  C_30
REMARK                            x       y       z     vdW  Elec       q    Type
REMARK                         _______ _______ _______ _____ _____    ______ ____
ROOT
ATOM      1  C   UNL     1       0.718  -0.497  -1.257  0.00  0.00    -0.001 C 
ATOM      2  C   UNL     1       0.755  -2.031  -1.264  0.00  0.00    +0.031 C 
ATOM      3  C   UNL     1       1.495  -2.474  -2.495  0.00  0.00    -0.024 C 
ATOM      4  C   UNL     1       2.428  -1.755  -3.044  0.00  0.00    -0.030 C 
ATOM      5  C   UNL     1       2.898  -0.427  -2.516  0.00  0.00    +0.042 C 
ATOM      6  C   UNL     1       2.156   0.016  -1.266  0.00  0.00    +0.014 C 
ATOM      7  C   UNL     1       4.393  -0.539  -2.198  0.00  0.00    +0.117 C 
ATOM      8  C   UNL     1       4.591  -1.237  -0.887  0.00  0.00    -0.004 A 
ATOM      9  C   UNL     1       4.278  -2.516  -0.479  0.00  0.00    +0.022 A 
ATOM     10  C   UNL     1       4.599  -2.857   0.831  0.00  0.00    +0.018 A 
ATOM     11  C   UNL     1       5.204  -1.952   1.681  0.00  0.00    +0.017 A 
ATOM     12  C   UNL     1       5.523  -0.665   1.276  0.00  0.00    +0.025 A 
ATOM     13  C   UNL     1       5.206  -0.311  -0.036  0.00  0.00    +0.041 A 
ATOM     14  N   UNL     1       5.409   0.888  -0.697  0.00  0.00    -0.273 N 
ATOM     15  C   UNL     1       4.965   0.846  -1.970  0.00  0.00    +0.236 C 
ATOM     16  O   UNL     1       5.014   1.747  -2.780  0.00  0.00    -0.274 OA
ATOM     17  C   UNL     1       6.032   2.064  -0.086  0.00  0.00    +0.138 C 
ATOM     18 BR   UNL     1       4.198  -4.594   1.461  0.00  0.00    -0.050 Br
ATOM     19  C   UNL     1       5.136  -1.231  -3.295  0.00  0.00    +0.069 C 
ATOM     20  C   UNL     1       4.576  -2.012  -4.218  0.00  0.00    +0.055 C 
ATOM     21  C   UNL     1       3.100  -2.274  -4.303  0.00  0.00    +0.202 C 
ENDROOT
BRANCH   1  23
ATOM     22  C   UNL     1      -0.019   1.526   0.010  0.00  0.00    +0.011 C 
ATOM     23  C   UNL     1       0.002  -0.004   0.002  0.00  0.00    -0.035 C 
ATOM     24  C   UNL     1       0.742  -0.511   1.242  0.00  0.00    +0.011 C 
ATOM     25  C   UNL     1      -1.433  -0.534   0.013  0.00  0.00    +0.011 C 
ENDBRANCH   1  23
BRANCH  20  26
ATOM     26  N   UNL     1       5.394  -2.610  -5.142  0.00  0.00    -0.358 N 
ATOM     27  H   UNL     1       6.351  -2.458  -5.112  0.00  0.00    +0.142 HD
ATOM     28  H   UNL     1       5.014  -3.183  -5.826  0.00  0.00    +0.142 HD
ENDBRANCH  20  26
BRANCH  21  29
ATOM     29  C   UNL     1       2.545  -1.582  -5.478  0.00  0.00    +0.095 C 
ATOM     30  N   UNL     1       2.116  -1.048  -6.384  0.00  0.00    -0.194 NA
ENDBRANCH  21  29
BRANCH  21  31
ATOM     31  C   UNL     1       2.863  -3.722  -4.426  0.00  0.00    +0.095 C 
ATOM     32  N   UNL     1       2.681  -4.839  -4.521  0.00  0.00    -0.194 NA
ENDBRANCH  21  31
BRANCH  19  33
ATOM     33  C   UNL     1       6.553  -1.040  -3.360  0.00  0.00    +0.098 C 
ATOM     34  N   UNL     1       7.678  -0.888  -3.411  0.00  0.00    -0.191 NA
ENDBRANCH  19  33
TORSDOF 5
