REMARK  Name = ZINC05643050
REMARK  9 active torsions:
REMARK  status: ('A' for Active; 'I' for Inactive)
REMARK    1  A    between atoms: C_1  and  C_2
REMARK    2  A    between atoms: C_2  and  C_3
REMARK    3  A    between atoms: C_3  and  C_4
REMARK    4  A    between atoms: C_4  and  C_6
REMARK    5  A    between atoms: C_4  and  N_7
REMARK    6  A    between atoms: C_10  and  O_12
REMARK    7  A    between atoms: C_13  and  C_20
REMARK    8  A    between atoms: C_17  and  O_19
REMARK    9  A    between atoms: C_23  and  C_26
REMARK                            x       y       z     vdW  Elec       q    Type
REMARK                         _______ _______ _______ _____ _____    ______ ____
ROOT
ATOM      1  N   UNL     1       1.365  -2.528   2.477  0.00  0.00    -0.240 N 
ATOM      2  C   UNL     1       0.752  -3.342   3.406  0.00  0.00    +0.163 A 
ATOM      3  C   UNL     1       1.661  -3.546   4.409  0.00  0.00    +0.076 A 
ATOM      4  C   UNL     1       2.839  -2.848   4.069  0.00  0.00    +0.238 A 
ATOM      5  N   UNL     1       2.658  -2.252   2.921  0.00  0.00    -0.131 NA
ATOM      6  C   UNL     1       1.531  -4.334   5.678  0.00  0.00    +0.115 C 
ATOM      7  S   UNL     1       0.483  -5.781   5.492  0.00  0.00    -0.138 S 
ATOM      8  C   UNL     1      -1.173  -5.152   5.182  0.00  0.00    +0.165 C 
ATOM      9  C   UNL     1      -1.311  -4.507   3.859  0.00  0.00    +0.199 C 
ATOM     10  N   UNL     1      -0.504  -3.786   3.229  0.00  0.00    -0.197 NA
ENDROOT
BRANCH   6  11
ATOM     11  C   UNL     1       2.901  -4.782   6.115  0.00  0.00    -0.030 A 
ATOM     12  C   UNL     1       3.665  -5.582   5.285  0.00  0.00    +0.005 A 
ATOM     13  C   UNL     1       4.922  -5.992   5.686  0.00  0.00    +0.003 A 
ATOM     14  C   UNL     1       5.417  -5.603   6.917  0.00  0.00    -0.050 A 
ATOM     15  C   UNL     1       4.654  -4.803   7.746  0.00  0.00    +0.003 A 
ATOM     16  C   UNL     1       3.398  -4.389   7.343  0.00  0.00    +0.005 A 
ATOM     17  C   UNL     1       6.787  -6.052   7.354  0.00  0.00    +0.044 C 
ENDBRANCH   6  11
BRANCH   1  18
ATOM     18  C   UNL     1       0.763  -2.041   1.233  0.00  0.00    +0.106 C 
ATOM     19  C   UNL     1       1.586  -2.533   0.041  0.00  0.00    +0.032 C 
BRANCH  18  20
ATOM     20  C   UNL     1       0.742  -0.511   1.242  0.00  0.00    +0.026 C 
BRANCH  20  22
ATOM     21  C   UNL     1      -0.019   1.526   0.010  0.00  0.00    +0.004 C 
ATOM     22  C   UNL     1       0.002  -0.004   0.002  0.00  0.00    -0.001 C 
ENDBRANCH  20  22
ENDBRANCH  18  20
ENDBRANCH   1  18
BRANCH   4  23
ATOM     23  O   UNL     1       3.977  -2.808   4.811  0.00  0.00    -0.491 OA
ATOM     24  H   UNL     1       4.608  -3.511   4.603  0.00  0.00    +0.294 HD
ENDBRANCH   4  23
BRANCH   9  25
ATOM     25  O   UNL     1      -2.485  -4.730   3.235  0.00  0.00    -0.495 OA
ATOM     26  H   UNL     1      -2.559  -4.302   2.371  0.00  0.00    +0.293 HD
ENDBRANCH   9  25
TORSDOF 6
