REMARK  Name = ZINC12482011
REMARK  8 active torsions:
REMARK  status: ('A' for Active; 'I' for Inactive)
REMARK    1  A    between atoms: C_4  and  S_7
REMARK    2  A    between atoms: S_7  and  C_8
REMARK    3  A    between atoms: C_8  and  C_9
REMARK    4  A    between atoms: C_11  and  C_14
REMARK    5  A    between atoms: C_14  and  C_15
REMARK    6  A    between atoms: C_20  and  C_22
REMARK    7  A    between atoms: C_22  and  C_23
REMARK    8  A    between atoms: C_28  and  C_31
REMARK                            x       y       z     vdW  Elec       q    Type
REMARK                         _______ _______ _______ _____ _____    ______ ____
ROOT
ATOM      1  C   UNL     1      -2.301  -3.060   0.133  0.00  0.00    -0.019 C 
ATOM      2  C   UNL     1      -3.198  -2.756  -1.069  0.00  0.00    -0.079 C 
ATOM      3  C   UNL     1      -1.268  -2.360  -2.481  0.00  0.00    -0.082 C 
ATOM      4  C   UNL     1      -0.314  -2.652  -1.321  0.00  0.00    -0.015 C 
ATOM      5  C   UNL     1      -0.993  -2.276  -0.001  0.00  0.00    -0.002 C 
ATOM      6  N   UNL     1      -2.508  -3.143  -2.314  0.00  0.00    +0.379 N 
ATOM      7  H   UNL     1      -3.128  -2.968  -3.113  0.00  0.00    -0.086 HD
ATOM      8  H   UNL     1      -2.274  -4.142  -2.275  0.00  0.00    -0.086 HD
ENDROOT
BRANCH   1   9
ATOM      9  C   UNL     1      -3.015  -2.646   1.422  0.00  0.00    +0.061 C 
BRANCH   9  12
ATOM     10  C   UNL     1      -5.741  -4.856   2.436  0.00  0.00    +0.148 A 
ATOM     11  C   UNL     1      -4.553  -4.287   2.750  0.00  0.00    +0.071 A 
ATOM     12  C   UNL     1      -4.239  -3.504   1.616  0.00  0.00    +0.084 A 
ATOM     13  N   UNL     1      -5.213  -3.675   0.770  0.00  0.00    -0.083 NA
ATOM     14  O   UNL     1      -6.056  -4.423   1.208  0.00  0.00    -0.359 OA
BRANCH  10  15
ATOM     15  C   UNL     1      -6.546  -5.796   3.296  0.00  0.00    +0.151 C 
BRANCH  15  16
ATOM     16  S   UNL     1      -7.696  -4.841   4.324  0.00  0.00    -0.117 S 
BRANCH  16  20
ATOM     17  C   UNL     1      -9.896  -7.991   6.723  0.00  0.00    +0.000 A 
ATOM     18  C   UNL     1     -10.199  -6.653   6.899  0.00  0.00    +0.001 A 
ATOM     19  C   UNL     1      -9.530  -5.690   6.169  0.00  0.00    +0.015 A 
ATOM     20  C   UNL     1      -8.552  -6.066   5.257  0.00  0.00    +0.008 A 
ATOM     21  C   UNL     1      -8.254  -7.412   5.079  0.00  0.00    +0.015 A 
ATOM     22  C   UNL     1      -8.923  -8.369   5.816  0.00  0.00    +0.001 A 
ENDBRANCH  16  20
ENDBRANCH  15  16
ENDBRANCH  10  15
ENDBRANCH   9  12
ENDBRANCH   1   9
BRANCH   5  23
ATOM     23  C   UNL     1      -1.293  -0.775   0.010  0.00  0.00    +0.099 C 
BRANCH  23  24
ATOM     24  C   UNL     1       0.002  -0.004   0.002  0.00  0.00    +0.216 C 
ATOM     25  O   UNL     1       1.060  -0.596  -0.011  0.00  0.00    -0.276 OA
ATOM     26  N   UNL     1      -0.016   1.344   0.009  0.00  0.00    -0.301 N 
ATOM     27  C   UNL     1      -1.290   2.075   0.019  0.00  0.00    +0.108 C 
ATOM     28  C   UNL     1      -1.279   3.061   1.198  0.00  0.00    +0.032 C 
ATOM     29  C   UNL     1      -0.042   3.956   1.094  0.00  0.00    +0.078 C 
ATOM     30  C   UNL     1       1.221   3.095   1.174  0.00  0.00    +0.032 C 
ATOM     31  C   UNL     1       1.238   2.109   0.002  0.00  0.00    +0.108 C 
BRANCH  29  32
ATOM     32  C   UNL     1      -0.045   4.949   2.227  0.00  0.00    +0.214 C 
ATOM     33  O   UNL     1       0.872   4.967   3.020  0.00  0.00    -0.276 OA
ATOM     34  N   UNL     1      -1.067   5.818   2.358  0.00  0.00    -0.329 N 
ATOM     35  H   UNL     1      -1.800   5.804   1.724  0.00  0.00    +0.145 HD
ATOM     36  H   UNL     1      -1.069   6.458   3.088  0.00  0.00    +0.145 HD
ENDBRANCH  29  32
ENDBRANCH  23  24
ENDBRANCH   5  23
TORSDOF 8
