REMARK  Name = ZINC39359306
REMARK  3 active torsions:
REMARK  status: ('A' for Active; 'I' for Inactive)
REMARK    1  A    between atoms: C_1  and  C_2
REMARK    2  A    between atoms: C_2  and  C_26
REMARK    3  A    between atoms: C_6  and  C_18
REMARK                            x       y       z     vdW  Elec       q    Type
REMARK                         _______ _______ _______ _____ _____    ______ ____
ROOT
ATOM      1  C   UNL     1      -0.019   1.526   0.010  0.00  0.00    +0.011 C 
ATOM      2  C   UNL     1       0.002  -0.004   0.002  0.00  0.00    -0.023 C 
ATOM      3  C   UNL     1       0.740  -0.502  -1.242  0.00  0.00    +0.058 C 
ATOM      4  C   UNL     1       2.169  -0.017  -1.214  0.00  0.00    +0.016 C 
ATOM      5  C   UNL     1       2.815   0.179  -0.043  0.00  0.00    +0.023 C 
ATOM      6  C   UNL     1       4.243   0.659  -0.006  0.00  0.00    +0.102 C 
ATOM      7  C   UNL     1       4.931   0.442  -1.324  0.00  0.00    -0.011 A 
ATOM      8  C   UNL     1       6.313   0.450  -1.388  0.00  0.00    +0.055 A 
ATOM      9  C   UNL     1       6.956   0.254  -2.598  0.00  0.00    +0.167 A 
ATOM     10  C   UNL     1       6.211   0.050  -3.758  0.00  0.00    +0.168 A 
ATOM     11  C   UNL     1       4.828   0.040  -3.694  0.00  0.00    +0.073 A 
ATOM     12  C   UNL     1       4.189   0.234  -2.477  0.00  0.00    +0.039 A 
ATOM     13  N   UNL     1       2.794   0.213  -2.405  0.00  0.00    -0.317 N 
ATOM     14  O   UNL     1       7.070  -0.113  -4.806  0.00  0.00    -0.453 OA
ATOM     15  C   UNL     1       8.336   0.397  -4.349  0.00  0.00    +0.466 C 
ATOM     16  O   UNL     1       8.283   0.216  -2.922  0.00  0.00    -0.453 OA
ATOM     17  C   UNL     1       2.171  -0.053   1.184  0.00  0.00    +0.162 C 
ATOM     18  O   UNL     1       2.782   0.125   2.220  0.00  0.00    -0.292 OA
ATOM     19  C   UNL     1       0.742  -0.517   1.242  0.00  0.00    +0.086 C 
ATOM     20  C   UNL     1      -1.431  -0.539   0.000  0.00  0.00    +0.011 C 
ATOM     21  H   UNL     1       2.267   0.362  -3.206  0.00  0.00    +0.152 HD
ENDROOT
BRANCH   6  22
ATOM     22  C   UNL     1       4.260   2.153   0.325  0.00  0.00    +0.232 C 
ATOM     23  N   UNL     1       5.644   2.628   0.447  0.00  0.00    -0.263 NA
ATOM     24  C   UNL     1       5.790   3.072   1.650  0.00  0.00    +0.126 C 
ATOM     25  C   UNL     1       4.529   2.921   2.394  0.00  0.00    +0.126 C 
ATOM     26  N   UNL     1       3.634   2.389   1.632  0.00  0.00    -0.263 NA
ENDBRANCH   6  22
TORSDOF 1
