REMARK  Name = ZINC59165073
REMARK  6 active torsions:
REMARK  status: ('A' for Active; 'I' for Inactive)
REMARK    1  A    between atoms: C_12  and  C_14
REMARK    2  A    between atoms: N_15  and  N_16
REMARK    3  A    between atoms: C_17  and  C_19
REMARK    4  A    between atoms: C_19  and  C_20
REMARK    5  A    between atoms: C_20  and  C_21
REMARK    6  A    between atoms: C_26  and  O_27
REMARK                            x       y       z     vdW  Elec       q    Type
REMARK                         _______ _______ _______ _____ _____    ______ ____
ROOT
ATOM      1  C   UNL     1       6.223  -4.227  -0.080  0.00  0.00    +0.138 C 
ATOM      2  N   UNL     1       7.505  -4.021  -0.091  0.00  0.00    -0.188 NA
ENDROOT
BRANCH   1  14
ATOM      3  C   UNL     1      -0.017   1.379   0.010  0.00  0.00    +0.000 A 
ATOM      4  C   UNL     1       1.171   2.090   0.002  0.00  0.00    +0.001 A 
ATOM      5  C   UNL     1       2.378   1.424  -0.013  0.00  0.00    +0.009 A 
ATOM      6  C   UNL     1       2.405   0.028  -0.021  0.00  0.00    -0.014 A 
ATOM      7  C   UNL     1       1.205  -0.678  -0.013  0.00  0.00    -0.035 A 
ATOM      8  C   UNL     1       0.002  -0.004   0.002  0.00  0.00    +0.004 A 
ATOM      9  C   UNL     1       1.542  -2.149  -0.024  0.00  0.00    +0.071 C 
ATOM     10  C   UNL     1       3.049  -2.232  -0.039  0.00  0.00    -0.035 A 
ATOM     11  C   UNL     1       3.541  -0.927  -0.037  0.00  0.00    -0.014 A 
ATOM     12  C   UNL     1       4.921  -0.709  -0.048  0.00  0.00    +0.009 A 
ATOM     13  C   UNL     1       5.789  -1.776  -0.062  0.00  0.00    +0.010 A 
ATOM     14  C   UNL     1       5.293  -3.083  -0.065  0.00  0.00    -0.005 A 
ATOM     15  C   UNL     1       3.912  -3.301  -0.054  0.00  0.00    +0.014 A 
ENDBRANCH   1  14
BRANCH   2  16
ATOM     16  N   UNL     1       8.388  -5.108  -0.106  0.00  0.00    -0.207 N 
ATOM     17  C   UNL     1       9.719  -4.895  -0.118  0.00  0.00    +0.233 C 
ATOM     18  O   UNL     1      10.152  -3.762  -0.115  0.00  0.00    -0.274 OA
ATOM     19  H   UNL     1       8.042  -6.015  -0.108  0.00  0.00    +0.177 HD
BRANCH  17  20
ATOM     20  C   UNL     1      10.669  -6.065  -0.134  0.00  0.00    +0.102 C 
BRANCH  20  21
ATOM     21  C   UNL     1      12.110  -5.551  -0.144  0.00  0.00    +0.048 C 
BRANCH  21  22
ATOM     22  C   UNL     1      13.061  -6.720  -0.160  0.00  0.00    -0.005 A 
ATOM     23  C   UNL     1      13.585  -7.201   1.024  0.00  0.00    +0.007 A 
ATOM     24  C   UNL     1      14.457  -8.274   1.010  0.00  0.00    +0.000 A 
ATOM     25  C   UNL     1      14.807  -8.868  -0.188  0.00  0.00    +0.004 A 
ATOM     26  C   UNL     1      14.286  -8.391  -1.375  0.00  0.00    +0.045 A 
ATOM     27  C   UNL     1      13.406  -7.318  -1.363  0.00  0.00    +0.120 A 
BRANCH  27  28
ATOM     28  O   UNL     1      12.887  -6.850  -2.529  0.00  0.00    -0.506 OA
ATOM     29  H   UNL     1      13.419  -6.159  -2.947  0.00  0.00    +0.292 HD
ENDBRANCH  27  28
ENDBRANCH  21  22
ENDBRANCH  20  21
ENDBRANCH  17  20
ENDBRANCH   2  16
TORSDOF 6
