REMARK  Name = ZINC17186067
REMARK  7 active torsions:
REMARK  status: ('A' for Active; 'I' for Inactive)
REMARK    1  A    between atoms: C_4  and  N_7
REMARK    2  A    between atoms: N_7  and  S_8
REMARK    3  A    between atoms: S_8  and  C_11
REMARK    4  A    between atoms: C_14  and  C_17
REMARK    5  A    between atoms: N_19  and  N_20
REMARK    6  A    between atoms: C_21  and  C_23
REMARK    7  A    between atoms: C_23  and  C_24
REMARK                            x       y       z     vdW  Elec       q    Type
REMARK                         _______ _______ _______ _____ _____    ______ ____
ROOT
ATOM      1  C   UNL     1       0.308   2.284  -0.421  0.00  0.00    +0.260 C 
ATOM      2  O   UNL     1       0.535   1.091  -0.454  0.00  0.00    -0.269 OA
ATOM      3  N   UNL     1       1.325   3.166  -0.490  0.00  0.00    -0.230 N 
ATOM      4  H   UNL     1       1.143   4.119  -0.464  0.00  0.00    +0.173 HD
ENDROOT
BRANCH   1   8
ATOM      5  C   UNL     1      -3.693   3.676  -0.108  0.00  0.00    +0.109 A 
ATOM      6  C   UNL     1      -3.437   2.317  -0.145  0.00  0.00    +0.029 A 
ATOM      7  C   UNL     1      -2.140   1.858  -0.247  0.00  0.00    +0.015 A 
ATOM      8  C   UNL     1      -1.085   2.769  -0.313  0.00  0.00    +0.038 A 
ATOM      9  C   UNL     1      -1.349   4.139  -0.270  0.00  0.00    +0.015 A 
ATOM     10  C   UNL     1      -2.651   4.584  -0.173  0.00  0.00    +0.029 A 
BRANCH   5  11
ATOM     11  S   UNL     1      -5.352   4.254   0.022  0.00  0.00    +0.072 S 
ATOM     12  O   UNL     1      -5.344   5.612  -0.395  0.00  0.00    -0.150 OA
ATOM     13  O   UNL     1      -6.174   3.273  -0.596  0.00  0.00    -0.150 OA
BRANCH  11  14
ATOM     14  N   UNL     1      -5.745   4.255   1.631  0.00  0.00    -0.216 N 
ATOM     15  H   UNL     1      -6.454   3.678   1.957  0.00  0.00    +0.174 HD
BRANCH  14  19
ATOM     16  C   UNL     1      -3.693   6.732   4.275  0.00  0.00    +0.000 A 
ATOM     17  C   UNL     1      -4.619   7.272   3.401  0.00  0.00    +0.002 A 
ATOM     18  C   UNL     1      -5.301   6.453   2.523  0.00  0.00    +0.024 A 
ATOM     19  C   UNL     1      -5.057   5.086   2.518  0.00  0.00    +0.048 A 
ATOM     20  C   UNL     1      -4.130   4.546   3.400  0.00  0.00    +0.024 A 
ATOM     21  C   UNL     1      -3.447   5.371   4.272  0.00  0.00    +0.002 A 
ENDBRANCH  14  19
ENDBRANCH  11  14
ENDBRANCH   5  11
ENDBRANCH   1   8
BRANCH   3  22
ATOM     22  N   UNL     1       2.644   2.707  -0.599  0.00  0.00    -0.234 N 
ATOM     23  C   UNL     1       3.661   3.589  -0.667  0.00  0.00    +0.230 C 
ATOM     24  O   UNL     1       3.434   4.780  -0.635  0.00  0.00    -0.274 OA
ATOM     25  H   UNL     1       2.826   1.755  -0.625  0.00  0.00    +0.173 HD
BRANCH  23  26
ATOM     26  C   UNL     1       5.080   3.095  -0.784  0.00  0.00    +0.104 C 
BRANCH  26  27
ATOM     27  C   UNL     1       6.033   4.291  -0.844  0.00  0.00    -0.020 C 
ATOM     28  C   UNL     1       5.691   5.155  -2.060  0.00  0.00    +0.011 C 
ATOM     29  C   UNL     1       6.644   6.350  -2.120  0.00  0.00    -0.010 C 
ATOM     30  C   UNL     1       8.085   5.849  -2.239  0.00  0.00    +0.007 C 
ATOM     31  C   UNL     1       8.426   4.985  -1.023  0.00  0.00    -0.010 C 
ATOM     32  C   UNL     1       7.473   3.790  -0.963  0.00  0.00    +0.011 C 
ATOM     33  C   UNL     1       8.280   5.819   0.252  0.00  0.00    +0.007 C 
ATOM     34  C   UNL     1       6.839   6.320   0.371  0.00  0.00    -0.010 C 
ATOM     35  C   UNL     1       6.498   7.184  -0.845  0.00  0.00    +0.007 C 
ATOM     36  C   UNL     1       5.886   5.124   0.431  0.00  0.00    +0.011 C 
ENDBRANCH  26  27
ENDBRANCH  23  26
ENDBRANCH   3  22
TORSDOF 7
