REMARK  Name = ZINC08559410
REMARK  5 active torsions:
REMARK  status: ('A' for Active; 'I' for Inactive)
REMARK    1  A    between atoms: C_1  and  C_2
REMARK    2  A    between atoms: C_3  and  C_28
REMARK    3  A    between atoms: C_7  and  C_19
REMARK    4  A    between atoms: C_13  and  C_18
REMARK    5  A    between atoms: C_24  and  N_25
REMARK                            x       y       z     vdW  Elec       q    Type
REMARK                         _______ _______ _______ _____ _____    ______ ____
ROOT
ATOM      1  C   UNL     1       2.309   2.705   2.812  0.00  0.00    +0.068 C 
ATOM      2  C   UNL     1       1.850   1.476   2.072  0.00  0.00    +0.070 A 
ATOM      3  C   UNL     1       1.813   1.321   0.669  0.00  0.00    +0.044 A 
ATOM      4  C   UNL     1       1.333   0.061   0.415  0.00  0.00    +0.130 A 
ATOM      5  N   UNL     1       1.090  -0.536   1.612  0.00  0.00    -0.238 N 
ATOM      6  N   UNL     1       1.422   0.366   2.620  0.00  0.00    -0.173 NA
ATOM      7  C   UNL     1       0.577  -1.899   1.727  0.00  0.00    +0.176 C 
ATOM      8  C   UNL     1       0.051  -2.370   0.389  0.00  0.00    +0.041 C 
ATOM      9  C   UNL     1       0.332  -1.726  -0.764  0.00  0.00    +0.018 C 
ATOM     10  N   UNL     1       1.097  -0.587  -0.788  0.00  0.00    -0.302 N 
ATOM     11  C   UNL     1      -0.184  -2.241  -2.087  0.00  0.00    +0.055 C 
ATOM     12  C   UNL     1      -1.532  -2.934  -1.879  0.00  0.00    -0.001 C 
ATOM     13  C   UNL     1      -1.337  -4.077  -0.878  0.00  0.00    +0.083 C 
ATOM     14  C   UNL     1      -0.756  -3.522   0.392  0.00  0.00    +0.163 C 
ATOM     15  O   UNL     1      -0.989  -4.081   1.446  0.00  0.00    -0.292 OA
ATOM     16  C   UNL     1      -2.035  -3.494  -3.211  0.00  0.00    +0.008 C 
ATOM     17  H   UNL     1       1.461  -0.245  -1.620  0.00  0.00    +0.153 HD
ENDROOT
BRANCH   7  18
ATOM     18  C   UNL     1       1.686  -2.814   2.176  0.00  0.00    +0.012 A 
ATOM     19  C   UNL     1       2.773  -3.040   1.351  0.00  0.00    +0.008 A 
ATOM     20  C   UNL     1       3.790  -3.880   1.764  0.00  0.00    +0.000 A 
ATOM     21  C   UNL     1       3.722  -4.493   3.000  0.00  0.00    +0.002 A 
ATOM     22  C   UNL     1       2.636  -4.267   3.825  0.00  0.00    +0.033 A 
ATOM     23  C   UNL     1       1.620  -3.424   3.415  0.00  0.00    +0.132 A 
BRANCH  23  24
ATOM     24  N   UNL     1       0.460  -3.177   4.300  0.00  0.00    +0.057 N 
ATOM     25  O   UNL     1       0.627  -3.024   5.488  0.00  0.00    -0.126 OA
ATOM     26  O   UNL     1      -0.655  -3.128   3.836  0.00  0.00    -0.126 OA
ENDBRANCH  23  24
ENDBRANCH   7  18
BRANCH   3  27
ATOM     27  C   UNL     1       2.217   2.331  -0.340  0.00  0.00    -0.013 A 
ATOM     28  C   UNL     1       1.268   2.877  -1.201  0.00  0.00    +0.008 A 
ATOM     29  C   UNL     1       1.649   3.816  -2.138  0.00  0.00    +0.001 A 
ATOM     30  C   UNL     1       2.971   4.215  -2.223  0.00  0.00    +0.000 A 
ATOM     31  C   UNL     1       3.917   3.676  -1.371  0.00  0.00    +0.001 A 
ATOM     32  C   UNL     1       3.547   2.741  -0.426  0.00  0.00    +0.008 A 
ENDBRANCH   3  27
TORSDOF 3
