REMARK  Name = ZINC64015112
REMARK  11 active torsions:
REMARK  status: ('A' for Active; 'I' for Inactive)
REMARK    1  A    between atoms: C_1  and  C_2
REMARK    2  A    between atoms: C_7  and  C_39
REMARK    3  A    between atoms: C_8  and  C_12
REMARK    4  A    between atoms: C_12  and  N_13
REMARK    5  A    between atoms: C_25  and  N_33
REMARK    6  A    between atoms: C_27  and  O_29
REMARK    7  A    between atoms: O_29  and  C_30
REMARK    8  A    between atoms: C_30  and  C_31
REMARK    9  A    between atoms: C_34  and  C_36
REMARK   10  A    between atoms: C_36  and  O_37
REMARK   11  A    between atoms: O_37  and  C_38
REMARK                            x       y       z     vdW  Elec       q    Type
REMARK                         _______ _______ _______ _____ _____    ______ ____
ROOT
ATOM      1  N   UNL     1       1.327  -0.243   5.025  0.00  0.00    +0.381 N 
ATOM      2  C   UNL     1       0.196  -0.238   5.960  0.00  0.00    -0.078 C 
ATOM      3  C   UNL     1       0.172   1.086   6.729  0.00  0.00    -0.005 C 
ATOM      4  C   UNL     1       1.485   1.252   7.489  0.00  0.00    +0.021 C 
ATOM      5  C   UNL     1       2.669   1.149   6.530  0.00  0.00    -0.005 C 
ATOM      6  C   UNL     1       2.591  -0.177   5.769  0.00  0.00    -0.078 C 
ATOM      7  C   UNL     1       1.510   2.576   8.214  0.00  0.00    -0.034 A 
ATOM      8  C   UNL     1       1.745   3.857   7.743  0.00  0.00    +0.004 A 
ATOM      9  C   UNL     1       1.719   4.933   8.609  0.00  0.00    +0.000 A 
ATOM     10  C   UNL     1       1.457   4.731   9.951  0.00  0.00    +0.000 A 
ATOM     11  C   UNL     1       1.221   3.455  10.423  0.00  0.00    +0.006 A 
ATOM     12  C   UNL     1       1.246   2.375   9.557  0.00  0.00    -0.021 A 
ATOM     13  C   UNL     1       1.019   0.901   9.819  0.00  0.00    +0.133 C 
ATOM     14  C   UNL     1       1.600   0.177   8.585  0.00  0.00    +0.154 C 
ATOM     15  H   UNL     1       1.258   0.555   4.412  0.00  0.00    -0.082 HD
ENDROOT
BRANCH  13  16
ATOM     16  N   UNL     1      -0.413   0.622   9.948  0.00  0.00    -0.304 N 
ATOM     17  C   UNL     1      -1.021   0.758  11.143  0.00  0.00    +0.239 C 
ATOM     18  O   UNL     1      -0.383   1.111  12.112  0.00  0.00    -0.273 OA
ATOM     19  H   UNL     1      -0.924   0.340   9.173  0.00  0.00    +0.149 HD
BRANCH  17  20
ATOM     20  C   UNL     1      -2.495   0.470  11.275  0.00  0.00    +0.255 C 
BRANCH  20  21
ATOM     21  O   UNL     1      -2.902   0.684  12.628  0.00  0.00    -0.374 OA
ATOM     22  C   UNL     1      -4.290   0.438  12.863  0.00  0.00    +0.194 C 
ENDBRANCH  20  21
ENDBRANCH  17  20
ENDBRANCH  13  16
BRANCH   1  23
ATOM     23  C   UNL     1       1.295  -1.476   4.226  0.00  0.00    -0.050 C 
BRANCH  23  31
ATOM     24  C   UNL     1      -0.018   1.503   0.010  0.00  0.00    +0.046 C 
ATOM     25  C   UNL     1       0.002  -0.004   0.002  0.00  0.00    -0.027 A 
ATOM     26  C   UNL     1       0.006  -0.669  -1.173  0.00  0.00    +0.005 A 
ATOM     27  C   UNL     1       0.024  -2.068  -1.251  0.00  0.00    +0.001 A 
ATOM     28  C   UNL     1       0.040  -2.842  -0.142  0.00  0.00    +0.010 A 
ATOM     29  C   UNL     1       0.037  -2.197   1.177  0.00  0.00    -0.001 A 
ATOM     30  C   UNL     1       0.049  -2.688   2.437  0.00  0.00    -0.043 C 
ATOM     31  C   UNL     1       0.037  -1.486   3.355  0.00  0.00    +0.089 C 
ATOM     32  N   UNL     1       0.018  -0.310   2.478  0.00  0.00    -0.379 N 
ATOM     33  C   UNL     1       0.023  -0.718   1.232  0.00  0.00    +0.046 A 
ATOM     34  C   UNL     1       0.070  -4.139   2.844  0.00  0.00    +0.042 C 
ATOM     35  H   UNL     1       0.007   0.614   2.771  0.00  0.00    +0.160 HD
ENDBRANCH  23  31
ENDBRANCH   1  23
BRANCH  14  36
ATOM     36  O   UNL     1       2.965  -0.184   8.803  0.00  0.00    -0.370 OA
BRANCH  36  37
ATOM     37  C   UNL     1       3.148  -1.534   9.234  0.00  0.00    +0.187 C 
BRANCH  37  38
ATOM     38  C   UNL     1       4.618  -1.803   9.431  0.00  0.00    -0.007 C 
ATOM     39  C   UNL     1       5.029  -2.438  10.501  0.00  0.00    +0.006 C 
ENDBRANCH  37  38
ENDBRANCH  36  37
ENDBRANCH  14  36
TORSDOF 8
