REMARK  Name = ZINC10246896
REMARK  6 active torsions:
REMARK  status: ('A' for Active; 'I' for Inactive)
REMARK    1  A    between atoms: C_7  and  N_22
REMARK    2  A    between atoms: C_8  and  C_10
REMARK    3  A    between atoms: N_12  and  C_13
REMARK    4  A    between atoms: C_23  and  C_25
REMARK    5  A    between atoms: C_26  and  C_27
REMARK    6  A    between atoms: C_30  and  N_33
REMARK                            x       y       z     vdW  Elec       q    Type
REMARK                         _______ _______ _______ _____ _____    ______ ____
ROOT
ATOM      1  C   UNL     1       2.059   7.904   0.658  0.00  0.00    +0.001 A 
ATOM      2  C   UNL     1       3.414   8.183   0.558  0.00  0.00    +0.004 A 
ATOM      3  C   UNL     1       4.308   7.205   0.179  0.00  0.00    +0.047 A 
ATOM      4  C   UNL     1       3.852   5.923  -0.106  0.00  0.00    +0.138 A 
ATOM      5  C   UNL     1       2.477   5.648  -0.007  0.00  0.00    +0.042 A 
ATOM      6  C   UNL     1       1.588   6.650   0.382  0.00  0.00    +0.013 A 
ATOM      7  C   UNL     1       2.327   4.231  -0.362  0.00  0.00    +0.092 A 
ATOM      8  C   UNL     1       3.587   3.781  -0.646  0.00  0.00    +0.212 A 
ATOM      9  O   UNL     1       4.473   4.790  -0.491  0.00  0.00    -0.448 OA
ENDROOT
BRANCH   8  10
ATOM     10  C   UNL     1       3.924   2.419  -1.056  0.00  0.00    +0.285 C 
ATOM     11  O   UNL     1       3.038   1.619  -1.298  0.00  0.00    -0.266 OA
ATOM     12  N   UNL     1       5.215   2.048  -1.166  0.00  0.00    -0.279 N 
ATOM     13  H   UNL     1       5.920   2.705  -1.050  0.00  0.00    +0.155 HD
BRANCH  12  14
ATOM     14  C   UNL     1       5.539   0.716  -1.448  0.00  0.00    +0.037 A 
ATOM     15  C   UNL     1       6.656   0.420  -2.218  0.00  0.00    +0.027 A 
ATOM     16  C   UNL     1       6.979  -0.894  -2.493  0.00  0.00    +0.051 A 
ATOM     17  C   UNL     1       6.185  -1.922  -2.009  0.00  0.00    +0.166 A 
ATOM     18  C   UNL     1       5.061  -1.629  -1.240  0.00  0.00    +0.168 A 
ATOM     19  C   UNL     1       4.741  -0.311  -0.961  0.00  0.00    +0.072 A 
ATOM     20  O   UNL     1       4.455  -2.800  -0.890  0.00  0.00    -0.453 OA
ATOM     21  C   UNL     1       4.984  -3.792  -1.790  0.00  0.00    +0.466 C 
ATOM     22  O   UNL     1       6.282  -3.278  -2.140  0.00  0.00    -0.453 OA
ENDBRANCH  12  14
ENDBRANCH   8  10
BRANCH   7  23
ATOM     23  N   UNL     1       1.147   3.500  -0.406  0.00  0.00    -0.278 N 
ATOM     24  C   UNL     1       0.110   3.848   0.381  0.00  0.00    +0.241 C 
ATOM     25  O   UNL     1       0.230   4.757   1.181  0.00  0.00    -0.270 OA
ATOM     26  H   UNL     1       1.070   2.739  -1.002  0.00  0.00    +0.155 HD
BRANCH  24  27
ATOM     27  C   UNL     1      -1.162   3.131   0.273  0.00  0.00    +0.068 C 
ATOM     28  C   UNL     1      -2.201   3.479   1.060  0.00  0.00    +0.013 C 
BRANCH  28  29
ATOM     29  C   UNL     1      -3.480   2.759   0.952  0.00  0.00    -0.025 A 
ATOM     30  C   UNL     1      -3.624   1.717   0.030  0.00  0.00    +0.010 A 
ATOM     31  C   UNL     1      -4.824   1.044  -0.062  0.00  0.00    +0.033 A 
ATOM     32  C   UNL     1      -5.887   1.404   0.748  0.00  0.00    +0.126 A 
ATOM     33  C   UNL     1      -5.754   2.437   1.659  0.00  0.00    +0.033 A 
ATOM     34  C   UNL     1      -4.559   3.116   1.766  0.00  0.00    +0.010 A 
BRANCH  32  35
ATOM     35  N   UNL     1      -7.173   0.680   0.638  0.00  0.00    +0.056 N 
ATOM     36  O   UNL     1      -8.111   0.994   1.349  0.00  0.00    -0.126 OA
ATOM     37  O   UNL     1      -7.294  -0.230  -0.163  0.00  0.00    -0.126 OA
ENDBRANCH  32  35
ENDBRANCH  28  29
ENDBRANCH  24  27
ENDBRANCH   7  23
TORSDOF 6
