REMARK  Name = ZINC36342985
REMARK  12 active torsions:
REMARK  status: ('A' for Active; 'I' for Inactive)
REMARK    1  A    between atoms: C_1  and  C_2
REMARK    2  A    between atoms: C_2  and  O_3
REMARK    3  A    between atoms: O_3  and  C_4
REMARK    4  A    between atoms: C_4  and  C_6
REMARK    5  A    between atoms: N_12  and  C_13
REMARK    6  A    between atoms: C_13  and  C_14
REMARK    7  A    between atoms: C_17  and  C_30
REMARK    8  A    between atoms: C_20  and  C_22
REMARK    9  A    between atoms: C_25  and  C_29
REMARK   10  A    between atoms: C_27  and  C_28
REMARK   11  A    between atoms: C_35  and  O_36
REMARK   12  A    between atoms: O_36  and  C_37
REMARK                            x       y       z     vdW  Elec       q    Type
REMARK                         _______ _______ _______ _____ _____    ______ ____
ROOT
ATOM      1  C   UNL     1      -0.157  -5.726   2.274  0.00  0.00    +0.219 C 
ATOM      2  O   UNL     1       0.836  -6.422   2.247  0.00  0.00    -0.276 OA
ATOM      3  N   UNL     1      -1.379  -6.296   2.276  0.00  0.00    -0.187 N 
ATOM      4  C   UNL     1      -1.649  -7.742   2.254  0.00  0.00    +0.140 C 
ATOM      5  C   UNL     1      -3.189  -7.822   2.268  0.00  0.00    +0.087 C 
ATOM      6  C   UNL     1      -3.628  -6.376   2.297  0.00  0.00    +0.069 C 
ATOM      7  N   UNL     1      -2.592  -5.611   2.305  0.00  0.00    -0.181 NA
ENDROOT
BRANCH   6   8
ATOM      8  C   UNL     1      -5.029  -5.912   2.319  0.00  0.00    +0.001 A 
ATOM      9  C   UNL     1      -6.073  -6.837   2.397  0.00  0.00    +0.010 A 
ATOM     10  C   UNL     1      -7.380  -6.396   2.417  0.00  0.00    +0.004 A 
ATOM     11  C   UNL     1      -7.657  -5.041   2.358  0.00  0.00    -0.050 A 
ATOM     12  C   UNL     1      -6.628  -4.120   2.279  0.00  0.00    +0.007 A 
ATOM     13  C   UNL     1      -5.316  -4.546   2.266  0.00  0.00    -0.041 A 
ATOM     14  C   UNL     1      -4.196  -3.541   2.187  0.00  0.00    +0.044 C 
ATOM     15  C   UNL     1      -9.088  -4.568   2.379  0.00  0.00    +0.044 C 
ENDBRANCH   6   8
BRANCH   4  16
ATOM     16  C   UNL     1      -1.094  -8.367   1.000  0.00  0.00    +0.017 A 
ATOM     17  C   UNL     1      -0.784  -7.574  -0.088  0.00  0.00    +0.009 A 
ATOM     18  C   UNL     1      -0.275  -8.146  -1.239  0.00  0.00    +0.001 A 
ATOM     19  C   UNL     1      -0.074  -9.513  -1.304  0.00  0.00    +0.004 A 
ATOM     20  C   UNL     1      -0.382 -10.310  -0.218  0.00  0.00    +0.046 A 
ATOM     21  C   UNL     1      -0.888  -9.737   0.940  0.00  0.00    +0.125 A 
BRANCH  21  22
ATOM     22  O   UNL     1      -1.187 -10.518   2.011  0.00  0.00    -0.495 OA
ATOM     23  C   UNL     1      -0.949 -11.921   1.878  0.00  0.00    +0.277 C 
ENDBRANCH  21  22
ENDBRANCH   4  16
BRANCH   1  24
ATOM     24  C   UNL     1      -0.025  -4.226   2.304  0.00  0.00    +0.022 C 
BRANCH  24  30
ATOM     25  C   UNL     1       1.525  -2.403   2.156  0.00  0.00    +0.043 C 
ATOM     26  C   UNL     1       3.004  -2.024   2.064  0.00  0.00    -0.004 C 
ATOM     27  C   UNL     1       3.723  -2.482   3.337  0.00  0.00    -0.003 C 
ATOM     28  C   UNL     1       3.520  -3.989   3.512  0.00  0.00    -0.019 C 
ATOM     29  C   UNL     1       2.021  -4.296   3.550  0.00  0.00    -0.077 C 
ATOM     30  N   UNL     1       1.397  -3.859   2.295  0.00  0.00    +0.394 N 
ATOM     31  H   UNL     1       1.854  -4.311   1.518  0.00  0.00    -0.080 HD
BRANCH  25  32
ATOM     32  C   UNL     1       0.814  -1.955   0.905  0.00  0.00    +0.293 C 
ATOM     33  O   UNL     1       0.682  -2.718  -0.022  0.00  0.00    -0.253 OA
BRANCH  32  34
ATOM     34  O   UNL     1       0.326  -0.707   0.822  0.00  0.00    -0.466 OA
BRANCH  34  36
ATOM     35  C   UNL     1      -0.820   1.099  -0.303  0.00  0.00    +0.048 C 
ATOM     36  C   UNL     1      -0.336  -0.349  -0.393  0.00  0.00    +0.228 C 
ENDBRANCH  34  36
ENDBRANCH  32  34
ENDBRANCH  25  32
ENDBRANCH  24  30
ENDBRANCH   1  24
TORSDOF 8
