REMARK  Name = ZINC38862532
REMARK  6 active torsions:
REMARK  status: ('A' for Active; 'I' for Inactive)
REMARK    1  A    between atoms: C_1  and  C_2
REMARK    2  A    between atoms: C_4  and  N_18
REMARK    3  A    between atoms: C_9  and  C_12
REMARK    4  A    between atoms: C_19  and  C_21
REMARK    5  A    between atoms: C_21  and  C_23
REMARK    6  A    between atoms: C_24  and  C_33
REMARK                            x       y       z     vdW  Elec       q    Type
REMARK                         _______ _______ _______ _____ _____    ______ ____
ROOT
ATOM      1  C   UNL     1       0.010   1.522  -0.007  0.00  0.00    +0.067 C 
ATOM      2  C   UNL     1       0.020   0.015  -0.011  0.00  0.00    +0.062 A 
ATOM      3  C   UNL     1       0.024  -0.798  -1.147  0.00  0.00    +0.068 A 
ATOM      4  C   UNL     1       0.034  -2.096  -0.733  0.00  0.00    +0.131 A 
ATOM      5  N   UNL     1       0.036  -2.088   0.630  0.00  0.00    -0.194 N 
ATOM      6  N   UNL     1       0.032  -0.752   1.050  0.00  0.00    -0.168 NA
ATOM      7  C   UNL     1       0.045  -3.209   1.458  0.00  0.00    +0.196 A 
ATOM      8  N   UNL     1       0.042  -3.273   2.776  0.00  0.00    -0.221 NA
ATOM      9  C   UNL     1       0.052  -4.436   3.407  0.00  0.00    +0.080 A 
ATOM     10  C   UNL     1       0.066  -5.595   2.680  0.00  0.00    +0.077 A 
ATOM     11  S   UNL     1       0.056  -4.941   1.016  0.00  0.00    -0.056 S 
ENDROOT
BRANCH   9  12
ATOM     12  C   UNL     1       0.049  -4.483   4.890  0.00  0.00    +0.001 A 
ATOM     13  C   UNL     1       0.066  -5.710   5.551  0.00  0.00    +0.010 A 
ATOM     14  C   UNL     1       0.063  -5.747   6.931  0.00  0.00    +0.001 A 
ATOM     15  C   UNL     1       0.043  -4.570   7.657  0.00  0.00    +0.000 A 
ATOM     16  C   UNL     1       0.026  -3.350   7.006  0.00  0.00    +0.001 A 
ATOM     17  C   UNL     1       0.035  -3.300   5.627  0.00  0.00    +0.010 A 
ENDBRANCH   9  12
BRANCH   4  18
ATOM     18  N   UNL     1       0.040  -3.221  -1.550  0.00  0.00    -0.264 N 
ATOM     19  C   UNL     1       0.038  -3.081  -2.890  0.00  0.00    +0.290 C 
ATOM     20  O   UNL     1       0.030  -1.972  -3.385  0.00  0.00    -0.266 OA
ATOM     21  H   UNL     1       0.047  -4.107  -1.155  0.00  0.00    +0.157 HD
BRANCH  19  22
ATOM     22  C   UNL     1       0.045  -4.287  -3.766  0.00  0.00    +0.250 C 
ATOM     23  O   UNL     1       0.150  -5.394  -3.275  0.00  0.00    -0.282 OA
BRANCH  22  24
ATOM     24  C   UNL     1      -0.074  -4.139  -5.216  0.00  0.00    +0.055 A 
ATOM     25  C   UNL     1      -1.242  -4.026  -5.946  0.00  0.00    +0.025 A 
ATOM     26  N   UNL     1      -0.948  -3.905  -7.253  0.00  0.00    -0.358 N 
ATOM     27  H   UNL     1      -1.605  -3.812  -7.960  0.00  0.00    +0.166 HD
ATOM     28  C   UNL     1       0.419  -3.932  -7.451  0.00  0.00    +0.047 A 
ATOM     29  C   UNL     1       1.029  -4.073  -6.194  0.00  0.00    +0.011 A 
ATOM     30  C   UNL     1       2.416  -4.124  -6.092  0.00  0.00    +0.011 A 
ATOM     31  C   UNL     1       3.188  -4.032  -7.230  0.00  0.00    +0.001 A 
ATOM     32  C   UNL     1       2.588  -3.890  -8.472  0.00  0.00    +0.002 A 
ATOM     33  C   UNL     1       1.214  -3.846  -8.588  0.00  0.00    +0.026 A 
ATOM     34  C   UNL     1      -2.633  -4.036  -5.366  0.00  0.00    +0.064 C 
ENDBRANCH  22  24
ENDBRANCH  19  22
ENDBRANCH   4  18
TORSDOF 4
