REMARK  Name = ZINC59311821
REMARK  8 active torsions:
REMARK  status: ('A' for Active; 'I' for Inactive)
REMARK    1  A    between atoms: C_1  and  C_2
REMARK    2  A    between atoms: C_2  and  N_3
REMARK    3  A    between atoms: C_5  and  C_8
REMARK    4  A    between atoms: N_9  and  N_10
REMARK    5  A    between atoms: C_13  and  S_16
REMARK    6  A    between atoms: S_16  and  C_17
REMARK    7  A    between atoms: C_17  and  C_18
REMARK    8  A    between atoms: N_20  and  C_21
REMARK                            x       y       z     vdW  Elec       q    Type
REMARK                         _______ _______ _______ _____ _____    ______ ____
ROOT
ATOM      1  N   UNL     1       4.441  -3.229  -4.827  0.00  0.00    -0.205 N 
ATOM      2  C   UNL     1       4.664  -3.324  -6.187  0.00  0.00    +0.232 A 
ATOM      3  N   UNL     1       3.976  -2.713  -7.129  0.00  0.00    -0.186 NA
ATOM      4  C   UNL     1       4.471  -3.037  -8.329  0.00  0.00    +0.211 A 
ATOM      5  N   UNL     1       5.481  -3.858  -8.166  0.00  0.00    -0.144 NA
ATOM      6  N   UNL     1       5.630  -4.055  -6.784  0.00  0.00    -0.245 N 
ATOM      7  H   UNL     1       5.007  -3.716  -4.207  0.00  0.00    +0.177 HD
ATOM      8  H   UNL     1       6.294  -4.609  -6.345  0.00  0.00    +0.192 HD
ENDROOT
BRANCH   1  10
ATOM      9  C   UNL     1       3.188  -2.340  -3.065  0.00  0.00    +0.141 C 
ATOM     10  N   UNL     1       3.397  -2.430  -4.342  0.00  0.00    -0.187 NA
BRANCH   9  13
ATOM     11  N   UNL     1       0.693  -0.472  -1.202  0.00  0.00    -0.271 N 
ATOM     12  C   UNL     1       1.750  -1.309  -1.232  0.00  0.00    +0.117 A 
ATOM     13  C   UNL     1       2.088  -1.498  -2.555  0.00  0.00    +0.032 A 
ATOM     14  C   UNL     1       1.188  -0.736  -3.331  0.00  0.00    +0.143 A 
ATOM     15  N   UNL     1       0.360  -0.135  -2.519  0.00  0.00    -0.179 NA
BRANCH  11  17
ATOM     16  C   UNL     1      -0.024   1.529   0.007  0.00  0.00    +0.029 C 
ATOM     17  C   UNL     1       0.007  -0.001   0.003  0.00  0.00    +0.140 C 
ENDBRANCH  11  17
ENDBRANCH   9  13
ENDBRANCH   1  10
BRANCH   4  18
ATOM     18  S   UNL     1       3.865  -2.454  -9.877  0.00  0.00    -0.075 S 
BRANCH  18  19
ATOM     19  C   UNL     1       4.947  -3.247 -11.099  0.00  0.00    +0.173 C 
BRANCH  19  20
ATOM     20  C   UNL     1       4.530  -2.828 -12.485  0.00  0.00    +0.227 C 
ATOM     21  O   UNL     1       3.596  -2.069 -12.635  0.00  0.00    -0.275 OA
ATOM     22  N   UNL     1       5.197  -3.296 -13.559  0.00  0.00    -0.285 N 
ATOM     23  H   UNL     1       5.985  -3.849 -13.438  0.00  0.00    +0.155 HD
BRANCH  22  24
ATOM     24  C   UNL     1       4.752  -2.985 -14.849  0.00  0.00    +0.033 A 
ATOM     25  C   UNL     1       4.871  -3.919 -15.870  0.00  0.00    +0.024 A 
ATOM     26  C   UNL     1       4.430  -3.610 -17.142  0.00  0.00    +0.016 A 
ATOM     27  C   UNL     1       3.871  -2.370 -17.399  0.00  0.00    +0.013 A 
ATOM     28  C   UNL     1       3.752  -1.438 -16.384  0.00  0.00    +0.016 A 
ATOM     29  C   UNL     1       4.185  -1.744 -15.109  0.00  0.00    +0.024 A 
ATOM     30  I   UNL     1       3.206  -1.905 -19.330  0.00  0.00    -0.044 I 
ENDBRANCH  22  24
ENDBRANCH  19  20
ENDBRANCH  18  19
ENDBRANCH   4  18
TORSDOF 7
