REMARK  Name = ZINC24954478
REMARK  8 active torsions:
REMARK  status: ('A' for Active; 'I' for Inactive)
REMARK    1  A    between atoms: C_1  and  C_2
REMARK    2  A    between atoms: C_3  and  C_14
REMARK    3  A    between atoms: C_4  and  C_13
REMARK    4  A    between atoms: N_5  and  C_7
REMARK    5  A    between atoms: N_21  and  C_22
REMARK    6  A    between atoms: C_22  and  C_23
REMARK    7  A    between atoms: C_25  and  C_28
REMARK    8  A    between atoms: C_32  and  C_34
REMARK                            x       y       z     vdW  Elec       q    Type
REMARK                         _______ _______ _______ _____ _____    ______ ____
ROOT
ATOM      1  C   UNL     1       3.574   0.741  -0.028  0.00  0.00    +0.054 C 
ATOM      2  C   UNL     1       4.078   1.098   1.342  0.00  0.00    +0.204 C 
ATOM      3  O   UNL     1       3.551   0.586   2.307  0.00  0.00    -0.277 OA
ATOM      4  N   UNL     1       5.082   1.958   1.541  0.00  0.00    -0.318 N 
ATOM      5  C   UNL     1       5.758   2.656   0.451  0.00  0.00    +0.085 C 
ATOM      6  C   UNL     1       5.482   1.946  -0.876  0.00  0.00    -0.058 C 
ATOM      7  N   UNL     1       4.032   1.736  -1.007  0.00  0.00    +0.397 N 
ATOM      8  H   UNL     1       5.394   2.131   2.582  0.00  0.00    +0.149 HD
ATOM      9  H   UNL     1       3.519   2.687  -0.801  0.00  0.00    -0.079 HD
ENDROOT
BRANCH   1  12
ATOM     10  C   UNL     1       1.658   3.265   0.003  0.00  0.00    +0.068 C 
ATOM     11  C   UNL     1       1.220   1.823   0.000  0.00  0.00    +0.063 A 
ATOM     12  C   UNL     1       2.067   0.709  -0.014  0.00  0.00    -0.009 A 
ATOM     13  C   UNL     1       1.294  -0.402  -0.013  0.00  0.00    +0.044 A 
ATOM     14  N   UNL     1       0.002  -0.004   0.002  0.00  0.00    -0.237 N 
ATOM     15  N   UNL     1      -0.017   1.397   0.010  0.00  0.00    -0.171 NA
ATOM     16  C   UNL     1       1.786  -1.827  -0.024  0.00  0.00    +0.066 C 
BRANCH  14  17
ATOM     17  C   UNL     1      -1.120  -0.844   0.008  0.00  0.00    +0.066 A 
ATOM     18  C   UNL     1      -1.095  -2.043  -0.693  0.00  0.00    +0.028 A 
ATOM     19  C   UNL     1      -2.200  -2.871  -0.681  0.00  0.00    +0.002 A 
ATOM     20  C   UNL     1      -3.334  -2.503   0.020  0.00  0.00    +0.000 A 
ATOM     21  C   UNL     1      -3.364  -1.308   0.714  0.00  0.00    +0.002 A 
ATOM     22  C   UNL     1      -2.260  -0.478   0.710  0.00  0.00    +0.028 A 
ENDBRANCH  14  17
ENDBRANCH   1  12
BRANCH   7  23
ATOM     23  C   UNL     1       3.680   1.329  -2.374  0.00  0.00    +0.023 C 
BRANCH  23  24
ATOM     24  C   UNL     1       3.940   2.473  -3.320  0.00  0.00    +0.211 A 
ATOM     25  N   UNL     1       5.059   2.719  -3.954  0.00  0.00    -0.193 NA
ATOM     26  C   UNL     1       4.826   3.833  -4.684  0.00  0.00    +0.202 A 
ATOM     27  N   UNL     1       3.594   4.200  -4.445  0.00  0.00    -0.056 NA
ATOM     28  O   UNL     1       3.074   3.430  -3.666  0.00  0.00    -0.340 OA
BRANCH  26  29
ATOM     29  C   UNL     1       5.791   4.516  -5.582  0.00  0.00    +0.023 A 
ATOM     30  C   UNL     1       7.081   4.012  -5.736  0.00  0.00    +0.012 A 
ATOM     31  C   UNL     1       7.972   4.648  -6.576  0.00  0.00    +0.001 A 
ATOM     32  C   UNL     1       7.590   5.790  -7.257  0.00  0.00    +0.012 A 
ATOM     33  C   UNL     1       6.313   6.298  -7.103  0.00  0.00    +0.055 A 
ATOM     34  C   UNL     1       5.412   5.667  -6.270  0.00  0.00    +0.024 A 
BRANCH  33  35
ATOM     35  C   UNL     1       5.904   7.543  -7.848  0.00  0.00    +0.417 C 
ATOM     36  F   UNL     1       6.192   8.668  -7.069  0.00  0.00    -0.166 F 
ATOM     37  F   UNL     1       6.609   7.617  -9.054  0.00  0.00    -0.166 F 
ATOM     38  F   UNL     1       4.531   7.498  -8.113  0.00  0.00    -0.166 F 
ENDBRANCH  33  35
ENDBRANCH  26  29
ENDBRANCH  23  24
ENDBRANCH   7  23
TORSDOF 6
