REMARK  Name = ZINC11914097
REMARK  7 active torsions:
REMARK  status: ('A' for Active; 'I' for Inactive)
REMARK    1  A    between atoms: C_1  and  C_2
REMARK    2  A    between atoms: C_5  and  O_29
REMARK    3  A    between atoms: C_6  and  C_8
REMARK    4  A    between atoms: N_16  and  C_26
REMARK    5  A    between atoms: C_17  and  C_19
REMARK    6  A    between atoms: C_26  and  C_27
REMARK    7  A    between atoms: C_27  and  O_28
REMARK                            x       y       z     vdW  Elec       q    Type
REMARK                         _______ _______ _______ _____ _____    ______ ____
ROOT
ATOM      1  C   UNL     1      -0.010  -2.911   2.426  0.00  0.00    +0.075 A 
ATOM      2  C   UNL     1       1.073  -3.545   2.947  0.00  0.00    +0.035 A 
ATOM      3  C   UNL     1       0.583  -4.355   3.996  0.00  0.00    +0.153 A 
ATOM      4  N   UNL     1      -0.721  -4.169   4.046  0.00  0.00    -0.168 NA
ATOM      5  N   UNL     1      -1.092  -3.329   3.147  0.00  0.00    -0.276 N 
ATOM      6  H   UNL     1      -2.005  -3.037   3.001  0.00  0.00    +0.189 HD
ATOM      7  C   UNL     1       1.728  -5.064   4.593  0.00  0.00    +0.268 C 
ATOM      8  O   UNL     1       1.653  -5.845   5.522  0.00  0.00    -0.268 OA
ATOM      9  N   UNL     1       2.868  -4.728   3.965  0.00  0.00    -0.283 N 
ATOM     10  C   UNL     1       2.560  -3.765   2.901  0.00  0.00    +0.141 C 
ENDROOT
BRANCH   1  16
ATOM     11  C   UNL     1      -1.311  -1.742  -2.247  0.00  0.00    +0.044 C 
ATOM     12  C   UNL     1      -0.638  -1.382  -0.947  0.00  0.00    -0.050 A 
ATOM     13  C   UNL     1      -0.025  -0.149  -0.807  0.00  0.00    +0.007 A 
ATOM     14  C   UNL     1       0.595   0.191   0.381  0.00  0.00    +0.046 A 
ATOM     15  C   UNL     1       0.605  -0.702   1.440  0.00  0.00    +0.126 A 
ATOM     16  C   UNL     1      -0.015  -1.950   1.302  0.00  0.00    +0.042 A 
ATOM     17  C   UNL     1      -0.642  -2.280   0.101  0.00  0.00    +0.017 A 
BRANCH  15  18
ATOM     18  O   UNL     1       1.214  -0.369   2.607  0.00  0.00    -0.506 OA
ATOM     19  H   UNL     1       0.655   0.138   3.212  0.00  0.00    +0.292 HD
ENDBRANCH  15  18
ENDBRANCH   1  16
BRANCH  10  20
ATOM     20  C   UNL     1       2.958  -4.330   1.561  0.00  0.00    -0.022 A 
ATOM     21  C   UNL     1       2.420  -5.528   1.129  0.00  0.00    +0.008 A 
ATOM     22  C   UNL     1       2.784  -6.046  -0.099  0.00  0.00    +0.038 A 
ATOM     23  C   UNL     1       3.688  -5.366  -0.897  0.00  0.00    +0.123 A 
ATOM     24  C   UNL     1       4.226  -4.166  -0.463  0.00  0.00    +0.038 A 
ATOM     25  C   UNL     1       3.857  -3.647   0.763  0.00  0.00    +0.008 A 
ATOM     26  F   UNL     1       4.045  -5.872  -2.098  0.00  0.00    -0.205 F 
ENDBRANCH  10  20
BRANCH   9  27
ATOM     27  C   UNL     1       4.202  -5.238   4.291  0.00  0.00    +0.137 C 
BRANCH  27  28
ATOM     28  C   UNL     1       4.407  -6.596   3.617  0.00  0.00    +0.175 C 
BRANCH  28  29
ATOM     29  O   UNL     1       4.507  -6.416   2.203  0.00  0.00    -0.393 OA
ATOM     30  H   UNL     1       4.639  -7.237   1.710  0.00  0.00    +0.209 HD
ENDBRANCH  28  29
ENDBRANCH  27  28
ENDBRANCH   9  27
TORSDOF 6
