REMARK  Name = ZINC40512733
REMARK  8 active torsions:
REMARK  status: ('A' for Active; 'I' for Inactive)
REMARK    1  A    between atoms: C_1  and  C_2
REMARK    2  A    between atoms: C_2  and  O_3
REMARK    3  A    between atoms: O_3  and  C_4
REMARK    4  A    between atoms: C_4  and  C_6
REMARK    5  A    between atoms: C_7  and  N_35
REMARK    6  A    between atoms: C_11  and  C_34
REMARK    7  A    between atoms: N_24  and  C_27
REMARK    8  A    between atoms: C_27  and  C_28
REMARK                            x       y       z     vdW  Elec       q    Type
REMARK                         _______ _______ _______ _____ _____    ______ ____
ROOT
ATOM      1  C   UNL     1      -2.874  -2.159  -0.029  0.00  0.00    +0.117 C 
ATOM      2  C   UNL     1      -3.030  -3.508  -0.008  0.00  0.00    +0.196 C 
ATOM      3  O   UNL     1      -4.244  -4.081   0.015  0.00  0.00    -0.441 OA
ATOM      4  C   UNL     1      -5.335  -3.375  -0.350  0.00  0.00    +0.142 A 
ATOM      5  C   UNL     1      -6.525  -4.048  -0.699  0.00  0.00    +0.067 A 
ATOM      6  C   UNL     1      -7.615  -3.339  -1.062  0.00  0.00    +0.019 A 
ATOM      7  N   UNL     1      -7.584  -1.981  -1.099  0.00  0.00    -0.326 N 
ATOM      8  H   UNL     1      -8.379  -1.492  -1.362  0.00  0.00    +0.169 HD
ATOM      9  C   UNL     1      -6.467  -1.303  -0.774  0.00  0.00    +0.257 A 
ATOM     10  O   UNL     1      -6.460  -0.083  -0.815  0.00  0.00    -0.267 OA
ATOM     11  C   UNL     1      -5.312  -1.996  -0.391  0.00  0.00    +0.083 A 
ATOM     12  C   UNL     1      -4.064  -1.243  -0.022  0.00  0.00    +0.144 C 
ATOM     13  C   UNL     1      -4.215  -0.570   1.307  0.00  0.00    -0.002 A 
ATOM     14  C   UNL     1      -4.435  -1.081   2.568  0.00  0.00    +0.007 A 
ATOM     15  C   UNL     1      -4.529  -0.166   3.611  0.00  0.00    +0.000 A 
ATOM     16  C   UNL     1      -4.407   1.191   3.390  0.00  0.00    +0.002 A 
ATOM     17  C   UNL     1      -4.185   1.711   2.125  0.00  0.00    +0.024 A 
ATOM     18  C   UNL     1      -4.089   0.803   1.069  0.00  0.00    +0.041 A 
ATOM     19  N   UNL     1      -3.874   1.040  -0.277  0.00  0.00    -0.265 N 
ATOM     20  C   UNL     1      -3.845  -0.102  -0.994  0.00  0.00    +0.240 C 
ATOM     21  O   UNL     1      -3.674  -0.198  -2.191  0.00  0.00    -0.274 OA
ATOM     22  C   UNL     1      -8.883  -4.063  -1.433  0.00  0.00    +0.063 C 
ENDROOT
BRANCH   2  23
ATOM     23  N   UNL     1      -1.918  -4.306  -0.011  0.00  0.00    -0.329 N 
ATOM     24  H   UNL     1      -1.035  -3.909   0.052  0.00  0.00    +0.145 HD
ATOM     25  H   UNL     1      -2.012  -5.270  -0.075  0.00  0.00    +0.145 HD
ENDBRANCH   2  23
BRANCH   1  26
ATOM     26  C   UNL     1      -1.582  -1.613  -0.051  0.00  0.00    +0.342 C 
ATOM     27  O   UNL     1      -1.107  -1.129   0.962  0.00  0.00    -0.245 OA
BRANCH  26  28
ATOM     28  O   UNL     1      -0.864  -1.623  -1.194  0.00  0.00    -0.462 OA
BRANCH  28  30
ATOM     29  C   UNL     1       1.097  -1.133  -2.520  0.00  0.00    +0.048 C 
ATOM     30  C   UNL     1       0.486  -1.158  -1.118  0.00  0.00    +0.229 C 
ENDBRANCH  28  30
ENDBRANCH  26  28
ENDBRANCH   1  26
BRANCH  19  31
ATOM     31  C   UNL     1      -3.699   2.374  -0.856  0.00  0.00    +0.148 C 
BRANCH  31  32
ATOM     32  C   UNL     1      -2.229   2.686  -0.966  0.00  0.00    -0.030 A 
ATOM     33  C   UNL     1      -1.550   3.208   0.119  0.00  0.00    +0.005 A 
ATOM     34  C   UNL     1      -0.201   3.493   0.019  0.00  0.00    +0.000 A 
ATOM     35  C   UNL     1       0.469   3.256  -1.167  0.00  0.00    +0.000 A 
ATOM     36  C   UNL     1      -0.209   2.733  -2.252  0.00  0.00    +0.000 A 
ATOM     37  C   UNL     1      -1.557   2.444  -2.150  0.00  0.00    +0.005 A 
ENDBRANCH  31  32
ENDBRANCH  19  31
TORSDOF 6
