REMARK  Name = ZINC02625331
REMARK  7 active torsions:
REMARK  status: ('A' for Active; 'I' for Inactive)
REMARK    1  A    between atoms: C_4  and  N_7
REMARK    2  A    between atoms: C_8  and  C_25
REMARK    3  A    between atoms: C_11  and  S_12
REMARK    4  A    between atoms: S_12  and  C_13
REMARK    5  A    between atoms: C_13  and  C_14
REMARK    6  A    between atoms: N_16  and  C_17
REMARK    7  A    between atoms: C_20  and  C_23
REMARK                            x       y       z     vdW  Elec       q    Type
REMARK                         _______ _______ _______ _____ _____    ______ ____
ROOT
ATOM      1  N   UNL     1       4.798  -7.613  -0.607  0.00  0.00    -0.270 N 
ATOM      2  C   UNL     1       4.034  -8.758  -0.559  0.00  0.00    +0.169 A 
ATOM      3  N   UNL     1       2.776  -8.382  -0.573  0.00  0.00    -0.128 NA
ATOM      4  N   UNL     1       2.700  -7.100  -0.620  0.00  0.00    -0.122 NA
ATOM      5  C   UNL     1       3.905  -6.576  -0.640  0.00  0.00    +0.197 A 
ENDROOT
BRANCH   2   6
ATOM      6  C   UNL     1       4.535 -10.148  -0.508  0.00  0.00    +0.023 A 
ATOM      7  C   UNL     1       5.855 -10.402  -0.132  0.00  0.00    +0.015 A 
ATOM      8  C   UNL     1       6.321 -11.699  -0.086  0.00  0.00    +0.050 A 
ATOM      9  C   UNL     1       5.482 -12.755  -0.411  0.00  0.00    +0.166 A 
ATOM     10  C   UNL     1       4.162 -12.507  -0.788  0.00  0.00    +0.167 A 
ATOM     11  C   UNL     1       3.688 -11.209  -0.831  0.00  0.00    +0.061 A 
ATOM     12  O   UNL     1       3.554 -13.700  -1.055  0.00  0.00    -0.453 OA
ATOM     13  C   UNL     1       4.389 -14.702  -0.445  0.00  0.00    +0.466 C 
ATOM     14  O   UNL     1       5.698 -14.102  -0.443  0.00  0.00    -0.453 OA
ENDBRANCH   2   6
BRANCH   1  18
ATOM     15  C   UNL     1       8.959  -7.359  -0.640  0.00  0.00    +0.000 A 
ATOM     16  C   UNL     1       8.249  -6.905   0.456  0.00  0.00    +0.002 A 
ATOM     17  C   UNL     1       6.870  -6.988   0.470  0.00  0.00    +0.026 A 
ATOM     18  C   UNL     1       6.197  -7.527  -0.619  0.00  0.00    +0.051 A 
ATOM     19  C   UNL     1       6.914  -7.987  -1.716  0.00  0.00    +0.026 A 
ATOM     20  C   UNL     1       8.292  -7.897  -1.726  0.00  0.00    +0.002 A 
ENDBRANCH   1  18
BRANCH   5  21
ATOM     21  S   UNL     1       4.298  -4.859  -0.705  0.00  0.00    -0.076 S 
BRANCH  21  22
ATOM     22  C   UNL     1       2.630  -4.156  -0.730  0.00  0.00    +0.173 C 
BRANCH  22  23
ATOM     23  C   UNL     1       2.720  -2.653  -0.786  0.00  0.00    +0.227 C 
ATOM     24  O   UNL     1       3.804  -2.111  -0.807  0.00  0.00    -0.275 OA
ATOM     25  N   UNL     1       1.595  -1.912  -0.813  0.00  0.00    -0.285 N 
ATOM     26  H   UNL     1       0.729  -2.341  -0.726  0.00  0.00    +0.155 HD
BRANCH  25  27
ATOM     27  C   UNL     1       1.675  -0.527  -0.966  0.00  0.00    +0.033 A 
ATOM     28  C   UNL     1       2.688   0.028  -1.741  0.00  0.00    +0.024 A 
ATOM     29  C   UNL     1       2.770   1.394  -1.895  0.00  0.00    +0.020 A 
ATOM     30  C   UNL     1       1.834   2.223  -1.271  0.00  0.00    +0.052 A 
ATOM     31  C   UNL     1       0.817   1.662  -0.494  0.00  0.00    +0.020 A 
ATOM     32  C   UNL     1       0.741   0.295  -0.344  0.00  0.00    +0.024 A 
BRANCH  30  33
ATOM     33  C   UNL     1       1.916   3.644  -1.429  0.00  0.00    +0.099 C 
ATOM     34  N   UNL     1       1.981   4.771  -1.554  0.00  0.00    -0.191 NA
ENDBRANCH  30  33
ENDBRANCH  25  27
ENDBRANCH  22  23
ENDBRANCH  21  22
ENDBRANCH   5  21
TORSDOF 7
