REMARK  Name = ZINC36093703
REMARK  11 active torsions:
REMARK  status: ('A' for Active; 'I' for Inactive)
REMARK    1  A    between atoms: C_1  and  C_2
REMARK    2  A    between atoms: C_2  and  C_3
REMARK    3  A    between atoms: C_2  and  C_4
REMARK    4  A    between atoms: C_4  and  C_6
REMARK    5  A    between atoms: C_4  and  N_34
REMARK    6  A    between atoms: N_8  and  C_9
REMARK    7  A    between atoms: C_9  and  C_10
REMARK    8  A    between atoms: C_10  and  C_12
REMARK    9  A    between atoms: C_10  and  C_18
REMARK   10  A    between atoms: C_27  and  C_28
REMARK   11  A    between atoms: C_35  and  C_37
REMARK                            x       y       z     vdW  Elec       q    Type
REMARK                         _______ _______ _______ _____ _____    ______ ____
ROOT
ATOM      1  C   UNL     1      -2.804   2.988  -3.047  0.00  0.00    +0.069 C 
ENDROOT
BRANCH   1   2
ATOM      2  C   UNL     1      -3.487   3.384  -4.330  0.00  0.00    -0.006 A 
ATOM      3  C   UNL     1      -4.048   2.480  -5.332  0.00  0.00    +0.004 A 
ATOM      4  C   UNL     1      -4.137   1.089  -5.440  0.00  0.00    +0.010 A 
ATOM      5  C   UNL     1      -4.739   0.530  -6.531  0.00  0.00    +0.001 A 
ATOM      6  C   UNL     1      -5.263   1.332  -7.536  0.00  0.00    +0.002 A 
ATOM      7  C   UNL     1      -5.186   2.705  -7.452  0.00  0.00    +0.026 A 
ATOM      8  C   UNL     1      -4.579   3.297  -6.349  0.00  0.00    +0.047 A 
ATOM      9  N   UNL     1      -4.353   4.606  -5.985  0.00  0.00    -0.354 N 
ATOM     10  H   UNL     1      -4.616   5.383  -6.504  0.00  0.00    +0.166 HD
ATOM     11  C   UNL     1      -3.704   4.648  -4.773  0.00  0.00    +0.051 A 
BRANCH  11  12
ATOM     12  C   UNL     1      -3.300   5.881  -4.063  0.00  0.00    -0.001 A 
ATOM     13  C   UNL     1      -3.525   6.005  -2.691  0.00  0.00    +0.010 A 
ATOM     14  C   UNL     1      -3.146   7.158  -2.035  0.00  0.00    +0.001 A 
ATOM     15  C   UNL     1      -2.545   8.190  -2.733  0.00  0.00    +0.000 A 
ATOM     16  C   UNL     1      -2.320   8.073  -4.094  0.00  0.00    +0.001 A 
ATOM     17  C   UNL     1      -2.689   6.923  -4.761  0.00  0.00    +0.010 A 
ENDBRANCH  11  12
ENDBRANCH   1   2
BRANCH   1  18
ATOM     18  C   UNL     1      -1.361   3.418  -3.092  0.00  0.00    -0.038 A 
ATOM     19  C   UNL     1      -0.554   3.023  -4.143  0.00  0.00    +0.004 A 
ATOM     20  C   UNL     1       0.770   3.418  -4.185  0.00  0.00    +0.000 A 
ATOM     21  C   UNL     1       1.288   4.208  -3.176  0.00  0.00    +0.000 A 
ATOM     22  C   UNL     1       0.481   4.605  -2.126  0.00  0.00    +0.000 A 
ATOM     23  C   UNL     1      -0.844   4.213  -2.086  0.00  0.00    +0.004 A 
ENDBRANCH   1  18
BRANCH   1  24
ATOM     24  C   UNL     1      -2.878   1.469  -2.877  0.00  0.00    +0.117 C 
BRANCH  24  27
ATOM     25  C   UNL     1      -2.282  -0.200  -1.206  0.00  0.00    +0.234 C 
ATOM     26  O   UNL     1      -2.787  -1.047  -1.911  0.00  0.00    -0.274 OA
ATOM     27  N   UNL     1      -2.321   1.096  -1.575  0.00  0.00    -0.313 N 
ATOM     28  H   UNL     1      -1.981   1.780  -0.979  0.00  0.00    +0.149 HD
BRANCH  25  29
ATOM     29  C   UNL     1      -1.611  -0.596   0.085  0.00  0.00    +0.161 C 
BRANCH  29  30
ATOM     30  N   UNL     1      -2.053  -1.937   0.473  0.00  0.00    -0.304 N 
ATOM     31  C   UNL     1      -2.018  -2.309   1.768  0.00  0.00    +0.211 C 
ATOM     32  O   UNL     1      -1.620  -1.534   2.611  0.00  0.00    -0.276 OA
ATOM     33  C   UNL     1      -2.472  -3.689   2.168  0.00  0.00    +0.109 C 
ATOM     34  H   UNL     1      -2.371  -2.558  -0.201  0.00  0.00    +0.149 HD
ENDBRANCH  29  30
BRANCH  29  36
ATOM     35  C   UNL     1       0.591  -0.904   1.224  0.00  0.00    +0.009 C 
ATOM     36  C   UNL     1      -0.093  -0.595  -0.109  0.00  0.00    +0.012 C 
ATOM     37  C   UNL     1       0.290  -1.660  -1.138  0.00  0.00    +0.009 C 
ENDBRANCH  29  36
ENDBRANCH  25  29
ENDBRANCH  24  27
ENDBRANCH   1  24
TORSDOF 8
