REMARK  Name = ZINC13638780
REMARK  6 active torsions:
REMARK  status: ('A' for Active; 'I' for Inactive)
REMARK    1  A    between atoms: C_1  and  C_2
REMARK    2  A    between atoms: C_4  and  C_35
REMARK    3  A    between atoms: C_6  and  N_8
REMARK    4  A    between atoms: N_8  and  S_9
REMARK    5  A    between atoms: S_9  and  C_12
REMARK    6  A    between atoms: C_25  and  C_28
REMARK                            x       y       z     vdW  Elec       q    Type
REMARK                         _______ _______ _______ _____ _____    ______ ____
ROOT
ATOM      1  C   UNL     1       0.401  -2.818  -0.302  0.00  0.00    +0.109 A 
ATOM      2  C   UNL     1      -0.892  -2.386  -0.069  0.00  0.00    +0.030 A 
ATOM      3  C   UNL     1      -1.139  -1.058   0.213  0.00  0.00    +0.025 A 
ATOM      4  C   UNL     1      -0.092  -0.145   0.266  0.00  0.00    +0.031 A 
ATOM      5  C   UNL     1       1.216  -0.593   0.044  0.00  0.00    -0.018 A 
ATOM      6  C   UNL     1       1.451  -1.919  -0.245  0.00  0.00    +0.034 A 
ATOM      7  C   UNL     1       2.305   0.401   0.158  0.00  0.00    +0.049 C 
ATOM      8  C   UNL     1       3.586   0.252  -0.579  0.00  0.00    -0.023 C 
ATOM      9  C   UNL     1       4.059   1.462  -0.853  0.00  0.00    -0.030 C 
ATOM     10  C   UNL     1       3.093   2.531  -0.339  0.00  0.00    +0.033 C 
ATOM     11  C   UNL     1       1.768   1.764  -0.370  0.00  0.00    +0.029 C 
ATOM     12  C   UNL     1       0.716   2.201   0.633  0.00  0.00    +0.105 C 
ATOM     13  N   UNL     1      -0.368   1.200   0.536  0.00  0.00    -0.336 N 
ATOM     14  H   UNL     1      -1.288   1.482   0.659  0.00  0.00    +0.147 HD
ENDROOT
BRANCH  12  15
ATOM     15  C   UNL     1       1.295   2.209   2.025  0.00  0.00    -0.027 A 
ATOM     16  C   UNL     1       1.233   1.069   2.805  0.00  0.00    +0.006 A 
ATOM     17  C   UNL     1       1.768   1.074   4.079  0.00  0.00    +0.015 A 
ATOM     18  C   UNL     1       2.356   2.222   4.578  0.00  0.00    +0.018 A 
ATOM     19  C   UNL     1       2.413   3.364   3.799  0.00  0.00    +0.015 A 
ATOM     20  C   UNL     1       1.883   3.356   2.523  0.00  0.00    +0.006 A 
ATOM     21 BR   UNL     1       3.082   2.231   6.324  0.00  0.00    -0.050 Br
ENDBRANCH  12  15
BRANCH   1  22
ATOM     22  S   UNL     1       0.711  -4.512  -0.673  0.00  0.00    +0.072 S 
ATOM     23  O   UNL     1      -0.524  -5.065  -1.106  0.00  0.00    -0.150 OA
ATOM     24  O   UNL     1       1.883  -4.545  -1.475  0.00  0.00    -0.150 OA
BRANCH  22  25
ATOM     25  N   UNL     1       1.091  -5.264   0.753  0.00  0.00    -0.216 N 
ATOM     26  H   UNL     1       0.533  -5.984   1.086  0.00  0.00    +0.174 HD
BRANCH  25  32
ATOM     27  C   UNL     1       5.845  -4.020   0.836  0.00  0.00    +0.044 C 
ATOM     28  C   UNL     1       4.534  -4.250   1.543  0.00  0.00    -0.048 A 
ATOM     29  C   UNL     1       4.444  -4.062   2.910  0.00  0.00    +0.006 A 
ATOM     30  C   UNL     1       3.243  -4.272   3.562  0.00  0.00    -0.048 A 
ATOM     31  C   UNL     1       2.129  -4.670   2.850  0.00  0.00    +0.028 A 
ATOM     32  C   UNL     1       2.216  -4.860   1.476  0.00  0.00    +0.049 A 
ATOM     33  C   UNL     1       3.425  -4.653   0.825  0.00  0.00    +0.028 A 
ATOM     34  C   UNL     1       3.150  -4.066   5.052  0.00  0.00    +0.044 C 
ENDBRANCH  25  32
ENDBRANCH  22  25
ENDBRANCH   1  22
TORSDOF 4
