REMARK  Name = ZINC63589352
REMARK  9 active torsions:
REMARK  status: ('A' for Active; 'I' for Inactive)
REMARK    1  A    between atoms: C_1  and  C_2
REMARK    2  A    between atoms: C_6  and  N_9
REMARK    3  A    between atoms: C_7  and  C_8
REMARK    4  A    between atoms: C_10  and  N_11
REMARK    5  A    between atoms: N_11  and  C_12
REMARK    6  A    between atoms: C_12  and  C_13
REMARK    7  A    between atoms: C_13  and  C_14
REMARK    8  A    between atoms: N_23  and  C_24
REMARK    9  A    between atoms: C_24  and  C_26
REMARK                            x       y       z     vdW  Elec       q    Type
REMARK                         _______ _______ _______ _____ _____    ______ ____
ROOT
ATOM      1  N   UNL     1       0.287  -3.427   2.070  0.00  0.00    -0.326 N 
ATOM      2  C   UNL     1       0.092  -4.774   2.178  0.00  0.00    +0.216 C 
ATOM      3  N   UNL     1      -0.201  -5.489   1.103  0.00  0.00    -0.141 NA
ATOM      4  H   UNL     1      -0.321  -2.890   1.538  0.00  0.00    +0.169 HD
ENDROOT
BRANCH   1  10
ATOM      5  C   UNL     1       2.338   0.599   4.007  0.00  0.00    +0.044 C 
ATOM      6  C   UNL     1       2.384  -0.871   3.677  0.00  0.00    -0.046 A 
ATOM      7  C   UNL     1       3.493  -1.622   4.024  0.00  0.00    +0.004 A 
ATOM      8  C   UNL     1       3.539  -2.971   3.723  0.00  0.00    +0.002 A 
ATOM      9  C   UNL     1       2.478  -3.572   3.075  0.00  0.00    +0.026 A 
ATOM     10  C   UNL     1       1.364  -2.821   2.726  0.00  0.00    +0.045 A 
ATOM     11  C   UNL     1       1.318  -1.467   3.034  0.00  0.00    -0.024 A 
ATOM     12  C   UNL     1       0.108  -0.649   2.663  0.00  0.00    +0.046 C 
ENDBRANCH   1  10
BRANCH   3  13
ATOM     13  C   UNL     1      -0.355  -4.884  -0.083  0.00  0.00    +0.271 C 
ATOM     14  O   UNL     1      -0.142  -3.689  -0.189  0.00  0.00    -0.268 OA
BRANCH  13  15
ATOM     15  C   UNL     1      -0.784  -5.667  -1.264  0.00  0.00    +0.053 A 
ATOM     16  C   UNL     1      -1.141  -7.009  -1.122  0.00  0.00    +0.014 A 
ATOM     17  C   UNL     1      -1.540  -7.733  -2.226  0.00  0.00    +0.001 A 
ATOM     18  C   UNL     1      -1.588  -7.133  -3.472  0.00  0.00    +0.001 A 
ATOM     19  C   UNL     1      -1.235  -5.804  -3.620  0.00  0.00    +0.016 A 
ATOM     20  C   UNL     1      -0.839  -5.066  -2.522  0.00  0.00    +0.030 A 
ATOM     21 BR   UNL     1      -0.365  -3.246  -2.724  0.00  0.00    -0.050 Br
ENDBRANCH  13  15
ENDBRANCH   3  13
BRANCH   2  22
ATOM     22  N   UNL     1       0.200  -5.383   3.394  0.00  0.00    -0.252 NA
BRANCH  22  23
ATOM     23  C   UNL     1      -0.137  -4.646   4.614  0.00  0.00    +0.149 C 
BRANCH  23  24
ATOM     24  C   UNL     1       0.179  -5.512   5.836  0.00  0.00    +0.056 C 
BRANCH  24  25
ATOM     25  C   UNL     1      -0.281  -4.804   7.085  0.00  0.00    -0.040 C 
ATOM     26  C   UNL     1      -1.476  -4.941   7.704  0.00  0.00    -0.001 A 
ATOM     27  C   UNL     1      -2.660  -5.757   7.410  0.00  0.00    +0.010 A 
ATOM     28  C   UNL     1      -3.731  -5.678   8.232  0.00  0.00    +0.001 A 
ATOM     29  C   UNL     1      -3.739  -4.838   9.354  0.00  0.00    +0.002 A 
ATOM     30  C   UNL     1      -2.688  -4.059   9.689  0.00  0.00    +0.026 A 
ATOM     31  C   UNL     1      -1.508  -4.063   8.895  0.00  0.00    +0.043 A 
ATOM     32  N   UNL     1      -0.378  -3.409   9.008  0.00  0.00    -0.380 N 
ATOM     33  C   UNL     1       0.503  -3.803   7.903  0.00  0.00    +0.144 C 
ATOM     34  H   UNL     1      -0.159  -2.774   9.708  0.00  0.00    +0.160 HD
ENDBRANCH  24  25
ENDBRANCH  23  24
ENDBRANCH  22  23
ENDBRANCH   2  22
TORSDOF 7
