REMARK  Name = ZINC15943908
REMARK  11 active torsions:
REMARK  status: ('A' for Active; 'I' for Inactive)
REMARK    1  A    between atoms: C_1  and  C_2
REMARK    2  A    between atoms: C_7  and  C_38
REMARK    3  A    between atoms: N_9  and  C_10
REMARK    4  A    between atoms: C_10  and  C_11
REMARK    5  A    between atoms: C_11  and  C_12
REMARK    6  A    between atoms: C_12  and  N_13
REMARK    7  A    between atoms: C_14  and  C_16
REMARK    8  A    between atoms: C_16  and  N_17
REMARK    9  A    between atoms: C_20  and  S_28
REMARK   10  A    between atoms: S_28  and  N_31
REMARK   11  A    between atoms: C_34  and  C_37
REMARK                            x       y       z     vdW  Elec       q    Type
REMARK                         _______ _______ _______ _____ _____    ______ ____
ROOT
ATOM      1  N   UNL     1       8.337  -0.567   5.053  0.00  0.00    -0.256 N 
ATOM      2  C   UNL     1       9.373  -1.253   4.403  0.00  0.00    +0.081 A 
ATOM      3  C   UNL     1       9.093  -2.217   3.449  0.00  0.00    +0.055 A 
ATOM      4  C   UNL     1      10.130  -2.883   2.821  0.00  0.00    +0.107 A 
ATOM      5  C   UNL     1      11.442  -2.589   3.143  0.00  0.00    +0.032 A 
ATOM      6  C   UNL     1      11.727  -1.627   4.094  0.00  0.00    +0.049 A 
ATOM      7  C   UNL     1      10.695  -0.956   4.726  0.00  0.00    +0.143 A 
ATOM      8  O   UNL     1      10.957  -0.004   5.662  0.00  0.00    -0.481 OA
ATOM      9  C   UNL     1      10.040   1.089   5.742  0.00  0.00    +0.325 C 
ATOM     10  C   UNL     1       8.625   0.569   5.725  0.00  0.00    +0.258 C 
ATOM     11  O   UNL     1       7.750   1.165   6.316  0.00  0.00    -0.271 OA
ENDROOT
BRANCH   4  12
ATOM     12  S   UNL     1       9.777  -4.111   1.607  0.00  0.00    +0.061 S 
ATOM     13  O   UNL     1      10.906  -4.973   1.561  0.00  0.00    -0.153 OA
ATOM     14  O   UNL     1       8.466  -4.587   1.879  0.00  0.00    -0.153 OA
BRANCH  12  15
ATOM     15  N   UNL     1       9.707  -3.344   0.141  0.00  0.00    -0.177 NA
ATOM     16  C   UNL     1       8.438  -2.796  -0.357  0.00  0.00    +0.110 C 
ATOM     17  C   UNL     1       8.175  -3.357  -1.759  0.00  0.00    +0.020 C 
ATOM     18  C   UNL     1       9.381  -3.065  -2.655  0.00  0.00    -0.012 C 
ATOM     19  C   UNL     1      10.622  -3.754  -2.084  0.00  0.00    +0.020 C 
ATOM     20  C   UNL     1      10.914  -3.193  -0.684  0.00  0.00    +0.110 C 
ATOM     21  C   UNL     1       9.108  -3.593  -4.065  0.00  0.00    +0.007 C 
ENDBRANCH  12  15
ENDBRANCH   4  12
BRANCH   1  22
ATOM     22  C   UNL     1       6.962  -1.070   4.998  0.00  0.00    +0.209 C 
BRANCH  22  24
ATOM     23  N   UNL     1       4.977  -0.810   3.545  0.00  0.00    -0.314 N 
ATOM     24  C   UNL     1       6.261  -0.486   3.799  0.00  0.00    +0.231 C 
ATOM     25  O   UNL     1       6.851   0.276   3.063  0.00  0.00    -0.274 OA
ATOM     26  H   UNL     1       4.505  -1.419   4.134  0.00  0.00    +0.149 HD
BRANCH  23  27
ATOM     27  C   UNL     1       4.295  -0.242   2.380  0.00  0.00    +0.102 C 
BRANCH  27  28
ATOM     28  C   UNL     1       2.859  -0.768   2.322  0.00  0.00    +0.000 C 
BRANCH  28  29
ATOM     29  C   UNL     1       2.147  -0.174   1.105  0.00  0.00    -0.077 C 
BRANCH  29  36
ATOM     30  C   UNL     1       1.405  -2.630  -0.036  0.00  0.00    -0.013 C 
ATOM     31  C   UNL     1       0.648  -2.043   1.157  0.00  0.00    -0.071 C 
ATOM     32  C   UNL     1      -0.820  -2.472   1.089  0.00  0.00    -0.016 C 
ATOM     33  C   UNL     1      -1.574  -1.883   2.285  0.00  0.00    -0.003 C 
ATOM     34  C   UNL     1      -1.413  -0.360   2.277  0.00  0.00    -0.016 C 
ATOM     35  C   UNL     1       0.076  -0.010   2.301  0.00  0.00    -0.071 C 
ATOM     36  N   UNL     1       0.735  -0.579   1.119  0.00  0.00    +0.383 N 
ATOM     37  C   UNL     1       0.242   1.511   2.293  0.00  0.00    -0.013 C 
ATOM     38  H   UNL     1       0.281  -0.237   0.285  0.00  0.00    -0.081 HD
ENDBRANCH  29  36
ENDBRANCH  28  29
ENDBRANCH  27  28
ENDBRANCH  23  27
ENDBRANCH  22  24
ENDBRANCH   1  22
TORSDOF 8
