REMARK  Name = ZINC08588751
REMARK  4 active torsions:
REMARK  status: ('A' for Active; 'I' for Inactive)
REMARK    1  A    between atoms: C_1  and  C_2
REMARK    2  A    between atoms: C_7  and  S_8
REMARK    3  A    between atoms: S_8  and  N_11
REMARK    4  A    between atoms: C_14  and  C_17
REMARK                            x       y       z     vdW  Elec       q    Type
REMARK                         _______ _______ _______ _____ _____    ______ ____
ROOT
ATOM      1  C   UNL     1      -0.018   1.503   0.010  0.00  0.00    +0.046 C 
ATOM      2  C   UNL     1       0.002  -0.004   0.002  0.00  0.00    -0.022 A 
ATOM      3  C   UNL     1       0.006  -0.687  -1.201  0.00  0.00    +0.032 A 
ATOM      4  C   UNL     1       0.024  -2.071  -1.206  0.00  0.00    +0.076 A 
ATOM      5  C   UNL     1       0.039  -2.773  -0.002  0.00  0.00    +0.144 A 
ATOM      6  C   UNL     1       0.037  -2.083   1.198  0.00  0.00    +0.076 A 
ATOM      7  C   UNL     1       0.023  -0.700   1.196  0.00  0.00    +0.112 A 
ATOM      8  O   UNL     1       0.053  -4.133  -0.019  0.00  0.00    -0.481 OA
ATOM      9  C   UNL     1      -0.637  -4.769  -1.098  0.00  0.00    +0.325 C 
ATOM     10  C   UNL     1      -0.271  -4.101  -2.398  0.00  0.00    +0.255 C 
ATOM     11  O   UNL     1      -0.244  -4.744  -3.427  0.00  0.00    -0.272 OA
ATOM     12  N   UNL     1       0.028  -2.784  -2.414  0.00  0.00    -0.280 N 
ATOM     13  H   UNL     1       0.241  -2.337  -3.249  0.00  0.00    +0.155 HD
ENDROOT
BRANCH   7  14
ATOM     14  S   UNL     1       0.026   0.179   2.724  0.00  0.00    +0.061 S 
ATOM     15  O   UNL     1      -1.013   1.145   2.639  0.00  0.00    -0.153 OA
ATOM     16  O   UNL     1       0.076  -0.798   3.754  0.00  0.00    -0.153 OA
BRANCH  14  17
ATOM     17  N   UNL     1       1.449   1.022   2.801  0.00  0.00    -0.177 NA
ATOM     18  C   UNL     1       2.647   0.415   3.396  0.00  0.00    +0.110 C 
ATOM     19  C   UNL     1       3.188   1.352   4.481  0.00  0.00    +0.020 C 
ATOM     20  C   UNL     1       3.420   2.741   3.881  0.00  0.00    -0.012 C 
ATOM     21  C   UNL     1       2.091   3.306   3.372  0.00  0.00    +0.020 C 
ATOM     22  C   UNL     1       1.540   2.389   2.269  0.00  0.00    +0.110 C 
ATOM     23  C   UNL     1       3.992   3.670   4.952  0.00  0.00    +0.007 C 
ENDBRANCH  14  17
ENDBRANCH   7  14
TORSDOF 2
