REMARK  Name = ZINC12490901
REMARK  14 active torsions:
REMARK  status: ('A' for Active; 'I' for Inactive)
REMARK    1  A    between atoms: C_1  and  C_2
REMARK    2  A    between atoms: C_2  and  C_3
REMARK    3  A    between atoms: C_2  and  N_81
REMARK    4  A    between atoms: C_4  and  N_81
REMARK    5  A    between atoms: C_7  and  C_35
REMARK    6  A    between atoms: C_7  and  C_36
REMARK    7  A    between atoms: C_10  and  C_17
REMARK    8  A    between atoms: C_13  and  C_15
REMARK    9  A    between atoms: C_13  and  O_16
REMARK   10  A    between atoms: C_17  and  C_18
REMARK   11  A    between atoms: C_18  and  C_19
REMARK   12  A    between atoms: N_24  and  C_27
REMARK   13  A    between atoms: C_32  and  O_33
REMARK   14  A    between atoms: O_33  and  C_34
REMARK                            x       y       z     vdW  Elec       q    Type
REMARK                         _______ _______ _______ _____ _____    ______ ____
ROOT
ATOM      1  C   UNL     1       1.988   4.066  -2.757  0.00  0.00    -0.064 C 
ATOM      2  C   UNL     1       1.350   5.128  -1.833  0.00  0.00    -0.009 C 
ATOM      3  C   UNL     1       0.153   4.449  -1.142  0.00  0.00    -0.033 C 
ATOM      4  C   UNL     1       0.137   2.980  -1.643  0.00  0.00    +0.002 C 
ATOM      5  C   UNL     1       0.837   3.074  -3.011  0.00  0.00    -0.038 C 
ATOM      6  C   UNL     1       1.322   1.743  -3.532  0.00  0.00    +0.008 C 
ATOM      7  C   UNL     1       2.181   1.016  -2.499  0.00  0.00    +0.035 C 
ATOM      8  C   UNL     1       1.338   0.805  -1.236  0.00  0.00    +0.064 C 
ATOM      9  C   UNL     1       0.983   2.171  -0.656  0.00  0.00    +0.039 C 
ATOM     10  C   UNL     1       2.139  -0.001  -0.211  0.00  0.00    +0.041 C 
ATOM     11  C   UNL     1      -1.148   5.152  -1.534  0.00  0.00    +0.011 C 
ATOM     12  C   UNL     1       0.332   4.484   0.377  0.00  0.00    +0.011 C 
ENDROOT
BRANCH   1  13
ATOM     13  N   UNL     1       2.426   4.677  -4.026  0.00  0.00    +0.383 N 
ATOM     14  H   UNL     1       2.347   3.985  -4.781  0.00  0.00    -0.085 HD
ATOM     15  H   UNL     1       1.827   5.484  -4.238  0.00  0.00    -0.085 HD
BRANCH  13  17
ATOM     16  C   UNL     1       4.447   5.164  -5.320  0.00  0.00    -0.014 C 
ATOM     17  C   UNL     1       3.828   5.125  -3.922  0.00  0.00    -0.078 C 
ATOM     18  C   UNL     1       3.872   6.524  -3.305  0.00  0.00    -0.014 C 
ENDBRANCH  13  17
ENDBRANCH   1  13
BRANCH   8  19
ATOM     19  O   UNL     1       0.141   0.100  -1.571  0.00  0.00    -0.389 OA
ATOM     20  H   UNL     1       0.293  -0.773  -1.960  0.00  0.00    +0.210 HD
ENDBRANCH   8  19
BRANCH   5  21
ATOM     21  C   UNL     1      -0.126   3.693  -4.026  0.00  0.00    +0.015 C 
BRANCH  21  22
ATOM     22  C   UNL     1      -1.397   2.846  -4.106  0.00  0.00    +0.096 C 
BRANCH  22  23
ATOM     23  C   UNL     1      -2.316   3.417  -5.155  0.00  0.00    +0.216 C 
ATOM     24  O   UNL     1      -1.987   4.405  -5.777  0.00  0.00    -0.276 OA
ATOM     25  N   UNL     1      -3.505   2.831  -5.401  0.00  0.00    -0.298 N 
ATOM     26  C   UNL     1      -3.921   1.629  -4.662  0.00  0.00    +0.126 C 
ATOM     27  C   UNL     1      -5.329   1.874  -4.097  0.00  0.00    +0.124 C 
ATOM     28  N   UNL     1      -6.227   2.273  -5.189  0.00  0.00    -0.324 N 
ATOM     29  C   UNL     1      -5.803   3.545  -5.790  0.00  0.00    +0.124 C 
ATOM     30  C   UNL     1      -4.417   3.372  -6.420  0.00  0.00    +0.126 C 
BRANCH  28  31
ATOM     31  C   UNL     1      -7.553   2.344  -4.748  0.00  0.00    +0.072 A 
ATOM     32  C   UNL     1      -7.918   3.278  -3.789  0.00  0.00    +0.027 A 
ATOM     33  C   UNL     1      -9.228   3.346  -3.355  0.00  0.00    +0.002 A 
ATOM     34  C   UNL     1     -10.178   2.485  -3.874  0.00  0.00    +0.004 A 
ATOM     35  C   UNL     1      -9.821   1.552  -4.830  0.00  0.00    +0.047 A 
ATOM     36  C   UNL     1      -8.511   1.481  -5.275  0.00  0.00    +0.141 A 
BRANCH  36  37
ATOM     37  O   UNL     1      -8.161   0.568  -6.219  0.00  0.00    -0.493 OA
ATOM     38  C   UNL     1      -9.196  -0.284  -6.714  0.00  0.00    +0.277 C 
ENDBRANCH  36  37
ENDBRANCH  28  31
ENDBRANCH  22  23
ENDBRANCH  21  22
ENDBRANCH   5  21
TORSDOF 8
