REMARK  Name = ZINC02264891
REMARK  2 active torsions:
REMARK  status: ('A' for Active; 'I' for Inactive)
REMARK    1  A    between atoms: C_7  and  C_11
REMARK    2  A    between atoms: N_17  and  C_20
REMARK                            x       y       z     vdW  Elec       q    Type
REMARK                         _______ _______ _______ _____ _____    ______ ____
ROOT
ATOM      1  C   UNL     1       0.809  -3.327   0.619  0.00  0.00    +0.028 C 
ATOM      2  C   UNL     1       1.290  -4.556   0.177  0.00  0.00    +0.102 C 
ATOM      3  C   UNL     1       2.696  -4.737  -0.206  0.00  0.00    +0.274 C 
ATOM      4  O   UNL     1       3.568  -3.708  -0.140  0.00  0.00    -0.268 OA
ATOM      5  N   UNL     1       3.090  -5.931  -0.617  0.00  0.00    -0.153 NA
ATOM      6  C   UNL     1       2.254  -6.962  -0.693  0.00  0.00    +0.171 C 
ATOM      7  N   UNL     1       0.956  -6.890  -0.364  0.00  0.00    -0.216 N 
ATOM      8  C   UNL     1       0.412  -5.736   0.078  0.00  0.00    +0.262 C 
ATOM      9  O   UNL     1      -0.765  -5.670   0.381  0.00  0.00    -0.269 OA
ATOM     10  S   UNL     1       2.868  -8.464  -1.239  0.00  0.00    -0.016 S 
ENDROOT
BRANCH   1  17
ATOM     11  C   UNL     1       1.685   0.267   3.435  0.00  0.00    +0.001 A 
ATOM     12  C   UNL     1       2.539   1.186   2.844  0.00  0.00    +0.002 A 
ATOM     13  C   UNL     1       3.021   0.977   1.569  0.00  0.00    +0.026 A 
ATOM     14  C   UNL     1       2.651  -0.164   0.865  0.00  0.00    +0.047 A 
ATOM     15  C   UNL     1       1.788  -1.092   1.466  0.00  0.00    +0.007 A 
ATOM     16  C   UNL     1       1.308  -0.870   2.753  0.00  0.00    +0.010 A 
ATOM     17  C   UNL     1       1.597  -2.169   0.472  0.00  0.00    +0.001 A 
ATOM     18  C   UNL     1       2.351  -1.808  -0.633  0.00  0.00    +0.091 A 
ATOM     19  N   UNL     1       2.964  -0.635  -0.395  0.00  0.00    -0.360 N 
ATOM     20  H   UNL     1       3.546  -0.181  -1.024  0.00  0.00    +0.165 HD
ENDBRANCH   1  17
BRANCH   7  21
ATOM     21  C   UNL     1       0.152  -8.031  -0.476  0.00  0.00    +0.046 A 
ATOM     22  C   UNL     1      -0.652  -8.209  -1.595  0.00  0.00    +0.024 A 
ATOM     23  C   UNL     1      -1.443  -9.336  -1.704  0.00  0.00    +0.005 A 
ATOM     24  C   UNL     1      -1.438 -10.287  -0.701  0.00  0.00    +0.038 A 
ATOM     25  C   UNL     1      -0.638 -10.114   0.416  0.00  0.00    +0.125 A 
ATOM     26  C   UNL     1       0.161  -8.989   0.528  0.00  0.00    +0.062 A 
ATOM     27  F   UNL     1      -0.634 -11.045   1.395  0.00  0.00    -0.205 F 
ENDBRANCH   7  21
TORSDOF 2
