REMARK  Name = ZINC49682331
REMARK  5 active torsions:
REMARK  status: ('A' for Active; 'I' for Inactive)
REMARK    1  A    between atoms: C_1  and  C_2
REMARK    2  A    between atoms: C_4  and  N_9
REMARK    3  A    between atoms: C_10  and  C_12
REMARK    4  A    between atoms: C_12  and  C_13
REMARK    5  A    between atoms: C_13  and  C_14
REMARK                            x       y       z     vdW  Elec       q    Type
REMARK                         _______ _______ _______ _____ _____    ______ ____
ROOT
ATOM      1  C   UNL     1       0.265  -4.851  -3.737  0.00  0.00    +0.101 C 
ENDROOT
BRANCH   1   3
ATOM      2  N   UNL     1       0.028  -2.771  -2.420  0.00  0.00    -0.285 N 
ATOM      3  C   UNL     1       0.148  -4.113  -2.428  0.00  0.00    +0.218 C 
ATOM      4  O   UNL     1       0.162  -4.727  -1.382  0.00  0.00    -0.275 OA
ATOM      5  H   UNL     1      -0.060  -2.287  -3.256  0.00  0.00    +0.155 HD
BRANCH   2   9
ATOM      6  C   UNL     1       1.619  -2.350   2.213  0.00  0.00    +0.045 C 
ATOM      7  C   UNL     1       0.793  -1.849   1.057  0.00  0.00    -0.035 A 
ATOM      8  C   UNL     1       0.792  -2.538  -0.141  0.00  0.00    +0.027 A 
ATOM      9  C   UNL     1       0.030  -2.075  -1.206  0.00  0.00    +0.034 A 
ATOM     10  C   UNL     1      -0.729  -0.921  -1.063  0.00  0.00    +0.024 A 
ATOM     11  C   UNL     1      -0.724  -0.236   0.136  0.00  0.00    +0.017 A 
ATOM     12  C   UNL     1       0.032  -0.703   1.197  0.00  0.00    +0.021 A 
ATOM     13 BR   UNL     1       0.029   0.233   2.841  0.00  0.00    -0.050 Br
ENDBRANCH   2   9
ENDBRANCH   1   3
BRANCH   1  14
ATOM     14  C   UNL     1       0.388  -6.352  -3.466  0.00  0.00    +0.044 C 
BRANCH  14  15
ATOM     15  C   UNL     1       0.505  -7.091  -4.775  0.00  0.00    -0.045 A 
ATOM     16  C   UNL     1      -0.636  -7.530  -5.423  0.00  0.00    +0.007 A 
ATOM     17  C   UNL     1      -0.539  -8.207  -6.623  0.00  0.00    +0.049 A 
ATOM     18  C   UNL     1       0.707  -8.448  -7.182  0.00  0.00    +0.157 A 
ATOM     19  C   UNL     1       1.856  -8.005  -6.527  0.00  0.00    +0.088 A 
ATOM     20  C   UNL     1       1.750  -7.322  -5.326  0.00  0.00    +0.033 A 
ATOM     21  N   UNL     1       2.938  -8.389  -7.319  0.00  0.00    -0.288 N 
ATOM     22  H   UNL     1       3.875  -8.224  -7.129  0.00  0.00    +0.172 HD
ATOM     23  C   UNL     1       2.445  -9.032  -8.396  0.00  0.00    +0.419 A 
ATOM     24  O   UNL     1       3.110  -9.505  -9.297  0.00  0.00    -0.223 OA
ATOM     25  O   UNL     1       1.105  -9.071  -8.318  0.00  0.00    -0.408 OA
ENDBRANCH  14  15
ENDBRANCH   1  14
TORSDOF 4
