REMARK  Name = ZINC04112913
REMARK  7 active torsions:
REMARK  status: ('A' for Active; 'I' for Inactive)
REMARK    1  A    between atoms: C_1  and  C_2
REMARK    2  A    between atoms: C_9  and  C_23
REMARK    3  A    between atoms: C_10  and  N_11
REMARK    4  A    between atoms: C_12  and  C_13
REMARK    5  A    between atoms: C_26  and  O_31
REMARK    6  A    between atoms: C_27  and  O_29
REMARK    7  A    between atoms: O_29  and  C_30
REMARK                            x       y       z     vdW  Elec       q    Type
REMARK                         _______ _______ _______ _____ _____    ______ ____
ROOT
ATOM      1  C   UNL     1      -8.377   5.848  -3.794  0.00  0.00    +0.044 C 
ATOM      2  C   UNL     1      -7.386   5.293  -2.804  0.00  0.00    -0.046 A 
ATOM      3  C   UNL     1      -6.226   4.644  -3.256  0.00  0.00    +0.021 A 
ATOM      4  C   UNL     1      -5.337   4.146  -2.371  0.00  0.00    +0.095 A 
ATOM      5  N   UNL     1      -5.551   4.265  -1.028  0.00  0.00    -0.284 N 
ATOM      6  C   UNL     1      -6.675   4.895  -0.555  0.00  0.00    +0.140 A 
ATOM      7  C   UNL     1      -7.612   5.419  -1.467  0.00  0.00    +0.050 A 
ATOM      8  N   UNL     1      -6.647   4.880   0.771  0.00  0.00    -0.226 NA
ATOM      9  C   UNL     1      -5.542   4.254   1.191  0.00  0.00    +0.116 A 
ATOM     10  C   UNL     1      -4.822   3.857   0.066  0.00  0.00    +0.165 A 
ENDROOT
BRANCH   9  11
ATOM     11  C   UNL     1      -5.152   4.026   2.601  0.00  0.00    +0.008 A 
ATOM     12  C   UNL     1      -4.484   2.855   2.961  0.00  0.00    +0.014 A 
ATOM     13  C   UNL     1      -4.120   2.645   4.275  0.00  0.00    +0.050 A 
ATOM     14  C   UNL     1      -4.417   3.595   5.241  0.00  0.00    +0.158 A 
ATOM     15  C   UNL     1      -5.083   4.766   4.888  0.00  0.00    +0.162 A 
ATOM     16  C   UNL     1      -5.446   4.985   3.571  0.00  0.00    +0.059 A 
BRANCH  15  17
ATOM     17  O   UNL     1      -5.373   5.696   5.837  0.00  0.00    -0.491 OA
ATOM     18  C   UNL     1      -6.059   6.872   5.404  0.00  0.00    +0.277 C 
ENDBRANCH  15  17
BRANCH  14  19
ATOM     19  O   UNL     1      -4.056   3.383   6.535  0.00  0.00    -0.503 OA
ATOM     20  H   UNL     1      -3.177   3.718   6.758  0.00  0.00    +0.292 HD
ENDBRANCH  14  19
ENDBRANCH   9  11
BRANCH  10  21
ATOM     21  N   UNL     1      -3.644   3.197   0.052  0.00  0.00    -0.235 NA
ATOM     22  C   UNL     1      -2.520   3.865   0.045  0.00  0.00    +0.122 C 
BRANCH  22  23
ATOM     23  C   UNL     1      -1.238   3.146   0.030  0.00  0.00    +0.011 A 
ATOM     24  C   UNL     1      -0.033   3.859   0.022  0.00  0.00    +0.060 A 
ATOM     25  C   UNL     1       1.168   3.179   0.008  0.00  0.00    +0.167 A 
ATOM     26  C   UNL     1       1.181   1.783   0.000  0.00  0.00    +0.167 A 
ATOM     27  C   UNL     1      -0.013   1.076   0.008  0.00  0.00    +0.065 A 
ATOM     28  C   UNL     1      -1.218   1.746   0.017  0.00  0.00    +0.030 A 
ATOM     29 BR   UNL     1      -2.841   0.776   0.020  0.00  0.00    -0.050 Br
ATOM     30  O   UNL     1       2.479   1.361  -0.015  0.00  0.00    -0.453 OA
ATOM     31  C   UNL     1       3.259   2.499   0.397  0.00  0.00    +0.466 C 
ATOM     32  O   UNL     1       2.458   3.626  -0.003  0.00  0.00    -0.453 OA
ENDBRANCH  22  23
ENDBRANCH  10  21
TORSDOF 5
