REMARK  Name = ZINC01472233
REMARK  10 active torsions:
REMARK  status: ('A' for Active; 'I' for Inactive)
REMARK    1  A    between atoms: C_1  and  C_2
REMARK    2  A    between atoms: C_2  and  O_3
REMARK    3  A    between atoms: O_3  and  C_4
REMARK    4  A    between atoms: C_8  and  C_20
REMARK    5  A    between atoms: C_9  and  O_10
REMARK    6  A    between atoms: O_10  and  C_11
REMARK    7  A    between atoms: C_11  and  C_12
REMARK    8  A    between atoms: C_23  and  C_34
REMARK    9  A    between atoms: C_29  and  N_33
REMARK   10  A    between atoms: C_30  and  C_31
REMARK                            x       y       z     vdW  Elec       q    Type
REMARK                         _______ _______ _______ _____ _____    ______ ____
ROOT
ATOM      1  C   UNL     1       0.002  -0.004   0.002  0.00  0.00    +0.162 A 
ATOM      2  C   UNL     1      -0.017   1.381   0.010  0.00  0.00    +0.049 A 
ATOM      3  C   UNL     1       1.171   2.089   0.002  0.00  0.00    +0.004 A 
ATOM      4  C   UNL     1       2.379   1.417  -0.013  0.00  0.00    +0.008 A 
ATOM      5  C   UNL     1       2.405   0.035  -0.021  0.00  0.00    +0.011 A 
ATOM      6  C   UNL     1       1.218  -0.680  -0.013  0.00  0.00    +0.166 A 
ENDROOT
BRANCH   5   7
ATOM      7  C   UNL     1       3.724  -0.694  -0.038  0.00  0.00    +0.105 C 
ATOM      8  C   UNL     1       4.537  -0.303   1.169  0.00  0.00    +0.049 A 
ATOM      9  C   UNL     1       4.352  -0.645   2.502  0.00  0.00    +0.068 A 
ATOM     10  N   UNL     1       5.302  -0.074   3.204  0.00  0.00    -0.176 NA
ATOM     11  N   UNL     1       6.124   0.653   2.330  0.00  0.00    -0.246 N 
ATOM     12  H   UNL     1       6.928   1.190   2.587  0.00  0.00    +0.192 HD
ATOM     13  C   UNL     1       5.639   0.501   1.087  0.00  0.00    +0.222 A 
ATOM     14  O   UNL     1       6.090   1.008  -0.087  0.00  0.00    -0.423 OA
ATOM     15  C   UNL     1       5.591   0.485  -1.226  0.00  0.00    +0.200 C 
ATOM     16  C   UNL     1       4.501  -0.312  -1.273  0.00  0.00    +0.098 C 
ATOM     17  C   UNL     1       3.252  -1.519   3.047  0.00  0.00    +0.068 C 
BRANCH  15  18
ATOM     18  N   UNL     1       6.228   0.780  -2.406  0.00  0.00    -0.328 N 
ATOM     19  H   UNL     1       5.892   0.419  -3.241  0.00  0.00    +0.145 HD
ATOM     20  H   UNL     1       7.013   1.349  -2.404  0.00  0.00    +0.145 HD
ENDBRANCH  15  18
BRANCH  16  21
ATOM     21  C   UNL     1       4.067  -0.812  -2.542  0.00  0.00    +0.101 C 
ATOM     22  N   UNL     1       3.723  -1.210  -3.550  0.00  0.00    -0.191 NA
ENDBRANCH  16  21
ENDBRANCH   5   7
BRANCH   1  23
ATOM     23  O   UNL     1      -1.165  -0.702   0.009  0.00  0.00    -0.489 OA
BRANCH  23  25
ATOM     24  C   UNL     1      -3.575  -0.891   0.030  0.00  0.00    +0.048 C 
ATOM     25  C   UNL     1      -2.375   0.059   0.024  0.00  0.00    +0.226 C 
ENDBRANCH  23  25
ENDBRANCH   1  23
BRANCH   6  26
ATOM     26  O   UNL     1       1.242  -2.040  -0.021  0.00  0.00    -0.483 OA
BRANCH  26  27
ATOM     27  C   UNL     1       1.241  -2.681  -1.298  0.00  0.00    +0.266 C 
BRANCH  27  28
ATOM     28  C   UNL     1       1.269  -4.176  -1.109  0.00  0.00    +0.008 A 
ATOM     29  C   UNL     1       1.296  -4.712   0.165  0.00  0.00    +0.010 A 
ATOM     30  C   UNL     1       1.316  -6.082   0.339  0.00  0.00    +0.020 A 
ATOM     31  C   UNL     1       1.320  -6.920  -0.763  0.00  0.00    +0.042 A 
ATOM     32  C   UNL     1       1.299  -6.385  -2.038  0.00  0.00    +0.040 A 
ATOM     33  C   UNL     1       1.273  -5.012  -2.212  0.00  0.00    +0.049 A 
ATOM     34 CL   UNL     1       1.247  -4.340  -3.812  0.00  0.00    -0.083 Cl
ATOM     35 CL   UNL     1       1.351  -8.642  -0.544  0.00  0.00    -0.083 Cl
ENDBRANCH  27  28
ENDBRANCH  26  27
ENDBRANCH   6  26
TORSDOF 8
