REMARK  Name = ZINC67382570
REMARK  11 active torsions:
REMARK  status: ('A' for Active; 'I' for Inactive)
REMARK    1  A    between atoms: C_1  and  C_2
REMARK    2  A    between atoms: C_5  and  C_29
REMARK    3  A    between atoms: C_6  and  C_8
REMARK    4  A    between atoms: C_8  and  C_10
REMARK    5  A    between atoms: C_8  and  N_11
REMARK    6  A    between atoms: N_14  and  C_15
REMARK    7  A    between atoms: C_15  and  C_17
REMARK    8  A    between atoms: C_15  and  C_18
REMARK    9  A    between atoms: C_22  and  S_24
REMARK   10  A    between atoms: S_24  and  N_27
REMARK   11  A    between atoms: N_27  and  C_28
REMARK                            x       y       z     vdW  Elec       q    Type
REMARK                         _______ _______ _______ _____ _____    ______ ____
ROOT
ATOM      1  N   UNL     1      -0.535  -2.018   3.545  0.00  0.00    -0.293 N 
ATOM      2  C   UNL     1      -1.089  -2.601   4.627  0.00  0.00    +0.301 C 
ATOM      3  O   UNL     1      -1.099  -3.812   4.726  0.00  0.00    -0.253 OA
ATOM      4  N   UNL     1      -1.631  -1.840   5.599  0.00  0.00    -0.293 N 
ATOM      5  H   UNL     1      -0.527  -1.051   3.466  0.00  0.00    +0.151 HD
ATOM      6  H   UNL     1      -1.623  -0.874   5.519  0.00  0.00    +0.151 HD
ENDROOT
BRANCH   1   7
ATOM      7  C   UNL     1       0.054  -2.845   2.489  0.00  0.00    +0.102 C 
ATOM      8  C   UNL     1       1.497  -3.192   2.858  0.00  0.00    +0.033 C 
BRANCH   7  14
ATOM      9  C   UNL     1      -0.018   1.503   0.010  0.00  0.00    +0.044 C 
ATOM     10  C   UNL     1       0.002  -0.004   0.002  0.00  0.00    -0.050 A 
ATOM     11  C   UNL     1       0.006  -0.689  -1.199  0.00  0.00    +0.003 A 
ATOM     12  C   UNL     1       0.025  -2.071  -1.207  0.00  0.00    +0.004 A 
ATOM     13  C   UNL     1       0.040  -2.768  -0.013  0.00  0.00    -0.046 A 
ATOM     14  C   UNL     1       0.037  -2.084   1.188  0.00  0.00    -0.024 A 
ATOM     15  C   UNL     1       0.023  -0.702   1.195  0.00  0.00    +0.009 A 
ATOM     16  C   UNL     1       0.059  -4.275  -0.021  0.00  0.00    +0.044 C 
ENDBRANCH   7  14
ENDBRANCH   1   7
BRANCH   4  17
ATOM     17  C   UNL     1      -2.232  -2.474   6.774  0.00  0.00    +0.102 C 
ATOM     18  C   UNL     1      -1.145  -2.763   7.811  0.00  0.00    +0.033 C 
BRANCH  17  19
ATOM     19  C   UNL     1      -3.262  -1.549   7.372  0.00  0.00    -0.026 A 
ATOM     20  C   UNL     1      -3.016  -0.190   7.435  0.00  0.00    +0.005 A 
ATOM     21  C   UNL     1      -3.960   0.658   7.983  0.00  0.00    +0.002 A 
ATOM     22  C   UNL     1      -5.150   0.148   8.467  0.00  0.00    +0.028 A 
ATOM     23  C   UNL     1      -5.396  -1.211   8.403  0.00  0.00    +0.106 A 
ATOM     24  C   UNL     1      -4.453  -2.059   7.851  0.00  0.00    +0.034 A 
BRANCH  23  25
ATOM     25  S   UNL     1      -6.912  -1.862   9.021  0.00  0.00    +0.058 S 
ATOM     26  O   UNL     1      -6.669  -3.225   9.341  0.00  0.00    -0.153 OA
ATOM     27  O   UNL     1      -7.394  -0.929   9.979  0.00  0.00    -0.153 OA
BRANCH  25  28
ATOM     28  N   UNL     1      -7.994  -1.856   7.768  0.00  0.00    -0.193 NA
ATOM     29  C   UNL     1      -7.763  -2.705   6.597  0.00  0.00    +0.127 C 
ATOM     30  H   UNL     1      -8.781  -1.290   7.809  0.00  0.00    +0.148 HD
ENDBRANCH  25  28
ENDBRANCH  23  25
ENDBRANCH  17  19
ENDBRANCH   4  17
TORSDOF 6
