REMARK  Name = ZINC09135735
REMARK  8 active torsions:
REMARK  status: ('A' for Active; 'I' for Inactive)
REMARK    1  A    between atoms: C_1  and  N_2
REMARK    2  A    between atoms: C_10  and  C_12
REMARK    3  A    between atoms: C_12  and  C_14
REMARK    4  A    between atoms: C_12  and  N_63
REMARK    5  A    between atoms: C_14  and  N_15
REMARK    6  A    between atoms: C_16  and  C_18
REMARK    7  A    between atoms: N_20  and  C_21
REMARK    8  A    between atoms: C_21  and  C_22
REMARK                            x       y       z     vdW  Elec       q    Type
REMARK                         _______ _______ _______ _____ _____    ______ ____
ROOT
ATOM      1  C   UNL     1       2.842  -2.512   4.155  0.00  0.00    -0.020 C 
ENDROOT
BRANCH   1  11
ATOM      2  C   UNL     1       0.311  -0.093  -1.103  0.00  0.00    +0.129 C 
ATOM      3  N   UNL     1       1.346   0.616  -0.338  0.00  0.00    -0.333 N 
ATOM      4  C   UNL     1       0.926   1.985  -0.032  0.00  0.00    +0.105 C 
ATOM      5  C   UNL     1       2.029   2.665   0.789  0.00  0.00    +0.024 C 
ATOM      6  C   UNL     1       2.079   1.989   2.161  0.00  0.00    +0.038 C 
ATOM      7  C   UNL     1       2.074   0.491   1.989  0.00  0.00    -0.026 A 
ATOM      8  C   UNL     1       1.716  -0.109   0.794  0.00  0.00    +0.033 A 
ATOM      9  C   UNL     1       1.720  -1.502   0.698  0.00  0.00    +0.023 A 
ATOM     10  C   UNL     1       2.082  -2.274   1.781  0.00  0.00    +0.004 A 
ATOM     11  C   UNL     1       2.443  -1.670   2.971  0.00  0.00    -0.059 A 
ATOM     12  C   UNL     1       2.439  -0.292   3.072  0.00  0.00    +0.007 A 
ENDBRANCH   1  11
BRANCH   1  17
ATOM     13  C   UNL     1       1.979  -4.192   5.691  0.00  0.00    -0.078 C 
ATOM     14  C   UNL     1       0.609  -4.889   5.887  0.00  0.00    -0.020 C 
ATOM     15  C   UNL     1      -0.377  -3.910   5.210  0.00  0.00    -0.020 C 
ATOM     16  C   UNL     1       0.482  -3.085   4.234  0.00  0.00    -0.078 C 
ATOM     17  N   UNL     1       1.845  -3.607   4.348  0.00  0.00    +0.385 N 
ATOM     18  H   UNL     1       1.998  -4.332   3.637  0.00  0.00    -0.081 HD
ENDBRANCH   1  17
BRANCH   1  19
ATOM     19  C   UNL     1       4.229  -3.111   3.911  0.00  0.00    +0.094 C 
BRANCH  19  20
ATOM     20  N   UNL     1       4.718  -3.728   5.146  0.00  0.00    -0.309 N 
ATOM     21  C   UNL     1       5.861  -4.443   5.136  0.00  0.00    +0.299 C 
ATOM     22  O   UNL     1       6.484  -4.575   4.103  0.00  0.00    -0.265 OA
ATOM     23  H   UNL     1       4.220  -3.623   5.972  0.00  0.00    +0.149 HD
BRANCH  21  24
ATOM     24  C   UNL     1       6.360  -5.073   6.395  0.00  0.00    +0.299 C 
ATOM     25  O   UNL     1       5.737  -4.941   7.428  0.00  0.00    -0.265 OA
ATOM     26  N   UNL     1       7.502  -5.788   6.385  0.00  0.00    -0.303 N 
ATOM     27  H   UNL     1       8.001  -5.894   5.559  0.00  0.00    +0.149 HD
BRANCH  26  28
ATOM     28  C   UNL     1       7.992  -6.406   7.620  0.00  0.00    +0.141 C 
BRANCH  28  29
ATOM     29  C   UNL     1       9.276  -7.142   7.338  0.00  0.00    -0.012 A 
ATOM     30  C   UNL     1       9.264  -8.514   7.169  0.00  0.00    +0.006 A 
ATOM     31  C   UNL     1      10.441  -9.189   6.907  0.00  0.00    +0.000 A 
ATOM     32  C   UNL     1      11.633  -8.494   6.823  0.00  0.00    +0.001 A 
ATOM     33  C   UNL     1      11.648  -7.123   6.997  0.00  0.00    +0.020 A 
ATOM     34  C   UNL     1      10.469  -6.446   7.255  0.00  0.00    +0.046 A 
ATOM     35 CL   UNL     1      10.486  -4.724   7.474  0.00  0.00    -0.083 Cl
ENDBRANCH  28  29
ENDBRANCH  26  28
ENDBRANCH  21  24
ENDBRANCH  19  20
ENDBRANCH   1  19
TORSDOF 7
