REMARK  Name = ZINC43705248
REMARK  4 active torsions:
REMARK  status: ('A' for Active; 'I' for Inactive)
REMARK    1  A    between atoms: C_3  and  O_30
REMARK    2  A    between atoms: C_4  and  C_8
REMARK    3  A    between atoms: C_19  and  C_22
REMARK    4  A    between atoms: C_27  and  O_28
REMARK                            x       y       z     vdW  Elec       q    Type
REMARK                         _______ _______ _______ _____ _____    ______ ____
ROOT
ATOM      1  C   UNL     1       3.462  -0.653   0.102  0.00  0.00    +0.098 C 
ATOM      2  C   UNL     1       4.219  -0.652  -1.231  0.00  0.00    +0.077 C 
ATOM      3  C   UNL     1       5.683  -1.032  -0.984  0.00  0.00    +0.013 C 
ATOM      4  C   UNL     1       5.790  -2.431  -0.387  0.00  0.00    +0.001 C 
ATOM      5  C   UNL     1       5.104  -3.475  -1.261  0.00  0.00    +0.013 C 
ATOM      6  C   UNL     1       3.637  -3.125  -1.508  0.00  0.00    +0.077 C 
ATOM      7  C   UNL     1       3.609  -1.727  -2.116  0.00  0.00    +0.143 C 
ATOM      8  O   UNL     1       3.143  -1.499  -3.205  0.00  0.00    -0.297 OA
ATOM      9  C   UNL     1       2.855  -3.046  -0.194  0.00  0.00    +0.098 C 
ATOM     10  N   UNL     1       3.334  -1.982   0.659  0.00  0.00    -0.301 NA
ATOM     11  H   UNL     1       3.881  -2.216   1.435  0.00  0.00    +0.123 HD
ENDROOT
BRANCH   1  15
ATOM     12  C   UNL     1      -0.399   1.103  -0.464  0.00  0.00    +0.019 A 
ATOM     13  C   UNL     1      -0.095   0.482   0.732  0.00  0.00    +0.047 A 
ATOM     14  C   UNL     1       1.156  -0.088   0.918  0.00  0.00    +0.122 A 
ATOM     15  C   UNL     1       2.099  -0.033  -0.098  0.00  0.00    +0.013 A 
ATOM     16  C   UNL     1       1.791   0.588  -1.293  0.00  0.00    +0.024 A 
ATOM     17  C   UNL     1       0.542   1.156  -1.476  0.00  0.00    +0.018 A 
ATOM     18 BR   UNL     1       0.123   2.006  -3.112  0.00  0.00    -0.050 Br
BRANCH  14  19
ATOM     19  O   UNL     1       1.457  -0.699   2.094  0.00  0.00    -0.506 OA
ATOM     20  H   UNL     1       1.243  -1.641   2.114  0.00  0.00    +0.292 HD
ENDBRANCH  14  19
ENDBRANCH   1  15
BRANCH   9  21
ATOM     21  C   UNL     1       2.916  -4.367   0.528  0.00  0.00    +0.013 A 
ATOM     22  C   UNL     1       3.882  -4.585   1.490  0.00  0.00    +0.024 A 
ATOM     23  C   UNL     1       3.938  -5.798   2.154  0.00  0.00    +0.018 A 
ATOM     24  C   UNL     1       3.027  -6.795   1.855  0.00  0.00    +0.019 A 
ATOM     25  C   UNL     1       2.058  -6.581   0.893  0.00  0.00    +0.047 A 
ATOM     26  C   UNL     1       1.997  -5.364   0.231  0.00  0.00    +0.122 A 
ATOM     27 BR   UNL     1       5.263  -6.094   3.470  0.00  0.00    -0.050 Br
BRANCH  26  28
ATOM     28  O   UNL     1       1.042  -5.150  -0.713  0.00  0.00    -0.506 OA
ATOM     29  H   UNL     1       1.309  -5.403  -1.607  0.00  0.00    +0.292 HD
ENDBRANCH  26  28
ENDBRANCH   9  21
TORSDOF 4
