REMARK  Name = ZINC16671059
REMARK  6 active torsions:
REMARK  status: ('A' for Active; 'I' for Inactive)
REMARK    1  A    between atoms: C_4  and  C_7
REMARK    2  A    between atoms: C_9  and  C_30
REMARK    3  A    between atoms: N_13  and  N_14
REMARK    4  A    between atoms: C_15  and  C_16
REMARK    5  A    between atoms: C_20  and  N_27
REMARK    6  A    between atoms: C_25  and  O_26
REMARK                            x       y       z     vdW  Elec       q    Type
REMARK                         _______ _______ _______ _____ _____    ______ ____
ROOT
ATOM      1  C   UNL     1       3.702  -0.662  -0.386  0.00  0.00    +0.077 A 
ATOM      2  C   UNL     1       3.733  -2.058  -0.458  0.00  0.00    +0.057 A 
ATOM      3  C   UNL     1       4.977  -2.695  -0.437  0.00  0.00    +0.077 A 
ATOM      4  N   UNL     1       6.079  -1.955  -0.350  0.00  0.00    -0.213 NA
ATOM      5  C   UNL     1       6.009  -0.634  -0.283  0.00  0.00    +0.236 A 
ATOM      6  N   UNL     1       4.849   0.006  -0.306  0.00  0.00    -0.213 NA
ATOM      7  N   UNL     1       7.178   0.097  -0.194  0.00  0.00    -0.205 N 
ATOM      8  H   UNL     1       8.035  -0.357  -0.180  0.00  0.00    +0.177 HD
ENDROOT
BRANCH   1  12
ATOM      9  C   UNL     1      -0.006   1.418  -0.439  0.00  0.00    +0.000 A 
ATOM     10  C   UNL     1       1.180   2.125  -0.354  0.00  0.00    +0.001 A 
ATOM     11  C   UNL     1       2.386   1.456  -0.337  0.00  0.00    +0.010 A 
ATOM     12  C   UNL     1       2.408   0.064  -0.404  0.00  0.00    +0.001 A 
ATOM     13  C   UNL     1       1.210  -0.644  -0.488  0.00  0.00    +0.010 A 
ATOM     14  C   UNL     1       0.010   0.036  -0.505  0.00  0.00    +0.001 A 
ENDBRANCH   1  12
BRANCH   3  15
ATOM     15  C   UNL     1       5.066  -4.173  -0.511  0.00  0.00    +0.001 A 
ATOM     16  C   UNL     1       3.907  -4.940  -0.608  0.00  0.00    +0.010 A 
ATOM     17  C   UNL     1       3.996  -6.316  -0.676  0.00  0.00    +0.001 A 
ATOM     18  C   UNL     1       5.233  -6.933  -0.649  0.00  0.00    +0.000 A 
ATOM     19  C   UNL     1       6.388  -6.177  -0.553  0.00  0.00    +0.001 A 
ATOM     20  C   UNL     1       6.311  -4.801  -0.490  0.00  0.00    +0.010 A 
ENDBRANCH   3  15
BRANCH   7  21
ATOM     21  N   UNL     1       7.130   1.385  -0.128  0.00  0.00    -0.187 NA
ATOM     22  C   UNL     1       8.254   2.087   0.053  0.00  0.00    +0.142 C 
BRANCH  22  23
ATOM     23  C   UNL     1       9.484   1.446   0.038  0.00  0.00    +0.044 A 
ATOM     24  C   UNL     1      10.406   1.555   1.181  0.00  0.00    -0.006 A 
ATOM     25  C   UNL     1      10.072   2.302   2.306  0.00  0.00    +0.011 A 
ATOM     26  C   UNL     1      10.963   2.385   3.367  0.00  0.00    +0.033 A 
ATOM     27  C   UNL     1      12.181   1.730   3.315  0.00  0.00    +0.127 A 
ATOM     28  C   UNL     1      12.533   0.982   2.204  0.00  0.00    +0.041 A 
ATOM     29  C   UNL     1      11.649   0.885   1.123  0.00  0.00    -0.015 A 
ATOM     30  C   UNL     1      11.996   0.102  -0.057  0.00  0.00    +0.012 A 
ATOM     31  C   UNL     1      11.131   0.001  -1.125  0.00  0.00    +0.046 A 
ATOM     32  C   UNL     1       9.897   0.630  -1.124  0.00  0.00    +0.126 A 
BRANCH  27  33
ATOM     33  N   UNL     1      13.116   1.832   4.457  0.00  0.00    +0.056 N 
ATOM     34  O   UNL     1      12.788   2.542   5.516  0.00  0.00    -0.126 OA
ATOM     35  O   UNL     1      14.277   1.211   4.414  0.00  0.00    -0.126 OA
ENDBRANCH  27  33
BRANCH  32  36
ATOM     36  O   UNL     1       9.076   0.504  -2.185  0.00  0.00    -0.506 OA
ATOM     37  H   UNL     1       9.150   1.222  -2.828  0.00  0.00    +0.292 HD
ENDBRANCH  32  36
ENDBRANCH  22  23
ENDBRANCH   7  21
TORSDOF 6
