REMARK  Name = ZINC39534140
REMARK  8 active torsions:
REMARK  status: ('A' for Active; 'I' for Inactive)
REMARK    1  A    between atoms: C_1  and  O_2
REMARK    2  A    between atoms: O_2  and  N_3
REMARK    3  A    between atoms: N_3  and  C_4
REMARK    4  A    between atoms: C_4  and  C_5
REMARK    5  A    between atoms: C_5  and  C_7
REMARK    6  A    between atoms: C_5  and  N_20
REMARK    7  A    between atoms: C_10  and  C_13
REMARK    8  A    between atoms: C_18  and  O_19
REMARK                            x       y       z     vdW  Elec       q    Type
REMARK                         _______ _______ _______ _____ _____    ______ ____
ROOT
ATOM      1  C   UNL     1      -2.635  -2.687   0.013  0.00  0.00    +0.103 C 
ENDROOT
BRANCH   1   2
ATOM      2  N   UNL     1      -3.224  -2.064  -1.180  0.00  0.00    -0.291 NA
ATOM      3  C   UNL     1      -2.208  -1.854  -2.221  0.00  0.00    +0.100 C 
ATOM      4  C   UNL     1      -2.875  -1.279  -3.472  0.00  0.00    +0.097 C 
ATOM      5  N   UNL     1      -3.544  -0.016  -3.131  0.00  0.00    -0.303 NA
ATOM      6  C   UNL     1      -4.561  -0.226  -2.091  0.00  0.00    +0.132 C 
ATOM      7  C   UNL     1      -3.894  -0.801  -0.839  0.00  0.00    +0.114 C 
ATOM      8  I   UNL     1      -5.498   1.661  -1.606  0.00  0.00    -0.063 I 
ATOM      9  H   UNL     1      -2.874   0.683  -2.846  0.00  0.00    +0.123 HD
ENDBRANCH   1   2
BRANCH   1  10
ATOM     10  C   UNL     1      -2.760  -4.185  -0.089  0.00  0.00    -0.029 A 
ATOM     11  C   UNL     1      -2.671  -4.802  -1.324  0.00  0.00    +0.006 A 
ATOM     12  C   UNL     1      -2.785  -6.174  -1.423  0.00  0.00    +0.009 A 
ATOM     13  C   UNL     1      -2.990  -6.938  -0.276  0.00  0.00    -0.014 A 
ATOM     14  C   UNL     1      -3.079  -6.311   0.966  0.00  0.00    +0.009 A 
ATOM     15  C   UNL     1      -2.958  -4.939   1.054  0.00  0.00    +0.006 A 
BRANCH  13  16
ATOM     16  C   UNL     1      -3.114  -8.413  -0.377  0.00  0.00    +0.024 A 
ATOM     17  C   UNL     1      -3.987  -8.980  -1.302  0.00  0.00    +0.012 A 
ATOM     18  C   UNL     1      -4.099 -10.353  -1.392  0.00  0.00    +0.001 A 
ATOM     19  C   UNL     1      -3.347 -11.168  -0.565  0.00  0.00    +0.004 A 
ATOM     20  C   UNL     1      -2.478 -10.616   0.357  0.00  0.00    +0.046 A 
ATOM     21  C   UNL     1      -2.352  -9.239   0.454  0.00  0.00    +0.125 A 
BRANCH  21  22
ATOM     22  O   UNL     1      -1.494  -8.695   1.355  0.00  0.00    -0.506 OA
ATOM     23  H   UNL     1      -1.889  -8.525   2.221  0.00  0.00    +0.292 HD
ENDBRANCH  21  22
ENDBRANCH  13  16
ENDBRANCH   1  10
BRANCH   1  24
ATOM     24  C   UNL     1      -1.157  -2.304   0.111  0.00  0.00    +0.134 C 
BRANCH  24  25
ATOM     25  N   UNL     1      -1.033  -0.842   0.175  0.00  0.00    -0.200 NA
ATOM     26  H   UNL     1      -1.570  -0.467   0.943  0.00  0.00    +0.154 HD
BRANCH  25  28
ATOM     27  C   UNL     1       0.564   0.976   0.336  0.00  0.00    +0.221 C 
ATOM     28  O   UNL     1       0.370  -0.438   0.270  0.00  0.00    -0.303 OA
ENDBRANCH  25  28
ENDBRANCH  24  25
ENDBRANCH   1  24
TORSDOF 7
