REMARK  Name = ZINC06542481
REMARK  5 active torsions:
REMARK  status: ('A' for Active; 'I' for Inactive)
REMARK    1  A    between atoms: C_1  and  C_2
REMARK    2  A    between atoms: C_3  and  C_17
REMARK    3  A    between atoms: C_4  and  C_10
REMARK    4  A    between atoms: N_19  and  C_20
REMARK    5  A    between atoms: C_23  and  N_26
REMARK                            x       y       z     vdW  Elec       q    Type
REMARK                         _______ _______ _______ _____ _____    ______ ____
ROOT
ATOM      1  C   UNL     1      -1.631  -3.026   2.488  0.00  0.00    +0.061 C 
ATOM      2  C   UNL     1      -1.335  -2.351   1.174  0.00  0.00    +0.017 C 
ATOM      3  C   UNL     1      -1.222  -1.006   1.128  0.00  0.00    +0.056 C 
ATOM      4  C   UNL     1      -0.923  -0.368  -0.213  0.00  0.00    +0.139 C 
ATOM      5  N   UNL     1      -0.779  -1.274  -1.365  0.00  0.00    -0.315 N 
ATOM      6  C   UNL     1      -0.920  -2.599  -1.161  0.00  0.00    +0.135 C 
ATOM      7  S   UNL     1      -0.756  -3.664  -2.492  0.00  0.00    -0.019 S 
ATOM      8  N   UNL     1      -1.185  -3.109   0.048  0.00  0.00    -0.300 N 
ATOM      9  H   UNL     1      -0.588  -0.926  -2.250  0.00  0.00    +0.149 HD
ATOM     10  H   UNL     1      -1.275  -4.072   0.129  0.00  0.00    +0.154 HD
ENDROOT
BRANCH   4  11
ATOM     11  C   UNL     1       0.355   0.419  -0.079  0.00  0.00    -0.020 A 
ATOM     12  C   UNL     1       0.319   1.722   0.383  0.00  0.00    +0.006 A 
ATOM     13  C   UNL     1       1.490   2.445   0.507  0.00  0.00    +0.003 A 
ATOM     14  C   UNL     1       2.699   1.866   0.170  0.00  0.00    +0.038 A 
ATOM     15  C   UNL     1       2.737   0.562  -0.293  0.00  0.00    +0.124 A 
ATOM     16  C   UNL     1       1.562  -0.162  -0.417  0.00  0.00    +0.044 A 
ATOM     17  F   UNL     1       3.918  -0.005  -0.623  0.00  0.00    -0.205 F 
ENDBRANCH   4  11
BRANCH   3  18
ATOM     18  C   UNL     1      -1.377  -0.219   2.295  0.00  0.00    +0.248 C 
ATOM     19  O   UNL     1      -2.301   0.571   2.378  0.00  0.00    -0.270 OA
ATOM     20  N   UNL     1      -0.503  -0.343   3.313  0.00  0.00    -0.282 N 
ATOM     21  H   UNL     1       0.168  -1.043   3.294  0.00  0.00    +0.155 HD
BRANCH  20  22
ATOM     22  C   UNL     1      -0.563   0.538   4.398  0.00  0.00    +0.034 A 
ATOM     23  C   UNL     1      -1.778   1.095   4.776  0.00  0.00    +0.025 A 
ATOM     24  C   UNL     1      -1.835   1.960   5.851  0.00  0.00    +0.034 A 
ATOM     25  C   UNL     1      -0.681   2.281   6.543  0.00  0.00    +0.126 A 
ATOM     26  C   UNL     1       0.531   1.733   6.166  0.00  0.00    +0.034 A 
ATOM     27  C   UNL     1       0.593   0.863   5.095  0.00  0.00    +0.025 A 
BRANCH  25  28
ATOM     28  N   UNL     1      -0.745   3.214   7.691  0.00  0.00    +0.056 N 
ATOM     29  O   UNL     1       0.270   3.498   8.301  0.00  0.00    -0.126 OA
ATOM     30  O   UNL     1      -1.812   3.697   8.025  0.00  0.00    -0.126 OA
ENDBRANCH  25  28
ENDBRANCH  20  22
ENDBRANCH   3  18
TORSDOF 4
