REMARK  Name = ZINC67637018
REMARK  10 active torsions:
REMARK  status: ('A' for Active; 'I' for Inactive)
REMARK    1  A    between atoms: C_1  and  O_2
REMARK    2  A    between atoms: O_2  and  C_3
REMARK    3  A    between atoms: C_6  and  C_9
REMARK    4  A    between atoms: C_9  and  O_10
REMARK    5  A    between atoms: O_10  and  C_11
REMARK    6  A    between atoms: C_11  and  C_12
REMARK    7  A    between atoms: C_12  and  O_14
REMARK    8  A    between atoms: O_14  and  C_15
REMARK    9  A    between atoms: C_18  and  O_21
REMARK   10  A    between atoms: O_21  and  C_22
REMARK                            x       y       z     vdW  Elec       q    Type
REMARK                         _______ _______ _______ _____ _____    ______ ____
ROOT
ATOM      1  C   UNL     1       8.265  -4.150  -5.264  0.00  0.00    +0.132 A 
ATOM      2  C   UNL     1       8.728  -3.746  -4.020  0.00  0.00    +0.050 A 
ATOM      3  C   UNL     1      10.059  -3.913  -3.692  0.00  0.00    +0.049 A 
ATOM      4  C   UNL     1      10.933  -4.484  -4.606  0.00  0.00    +0.122 A 
ATOM      5  C   UNL     1      10.470  -4.888  -5.849  0.00  0.00    +0.049 A 
ATOM      6  C   UNL     1       9.137  -4.726  -6.176  0.00  0.00    +0.050 A 
ENDROOT
BRANCH   1   7
ATOM      7  O   UNL     1       6.954  -3.986  -5.587  0.00  0.00    -0.424 OA
BRANCH   7   8
ATOM      8  C   UNL     1       6.531  -2.749  -5.895  0.00  0.00    +0.338 C 
ATOM      9  O   UNL     1       7.284  -1.810  -5.792  0.00  0.00    -0.248 OA
BRANCH   8  10
ATOM     10  C   UNL     1       5.117  -2.533  -6.369  0.00  0.00    +0.281 C 
BRANCH  10  11
ATOM     11  O   UNL     1       4.910  -1.144  -6.631  0.00  0.00    -0.364 OA
BRANCH  11  12
ATOM     12  C   UNL     1       3.593  -0.829  -7.088  0.00  0.00    +0.195 C 
BRANCH  12  16
ATOM     13  C   UNL     1       3.293   3.378  -7.778  0.00  0.00    +0.120 A 
ATOM     14  C   UNL     1       3.697   2.533  -8.802  0.00  0.00    +0.046 A 
ATOM     15  C   UNL     1       3.794   1.173  -8.576  0.00  0.00    +0.009 A 
ATOM     16  C   UNL     1       3.487   0.655  -7.331  0.00  0.00    -0.022 A 
ATOM     17  C   UNL     1       3.083   1.495  -6.310  0.00  0.00    +0.009 A 
ATOM     18  C   UNL     1       2.991   2.856  -6.529  0.00  0.00    +0.046 A 
BRANCH  13  20
ATOM     19  C   UNL     1       3.523   5.183  -9.308  0.00  0.00    +0.277 C 
ATOM     20  O   UNL     1       3.197   4.716  -7.998  0.00  0.00    -0.495 OA
ENDBRANCH  13  20
ENDBRANCH  12  16
ENDBRANCH  11  12
ENDBRANCH  10  11
ENDBRANCH   8  10
ENDBRANCH   7   8
ENDBRANCH   1   7
BRANCH   4  21
ATOM     21  O   UNL     1      12.243  -4.647  -4.283  0.00  0.00    -0.480 OA
BRANCH  21  22
ATOM     22  C   UNL     1      12.625  -4.334  -2.942  0.00  0.00    +0.259 C 
ATOM     23  C   UNL     1      13.753  -5.268  -2.497  0.00  0.00    +0.054 C 
ATOM     24  C   UNL     1      14.672  -5.593  -3.660  0.00  0.00    +0.006 C 
ATOM     25  C   UNL     1      15.461  -4.401  -4.169  0.00  0.00    +0.019 C 
ATOM     26  C   UNL     1      14.534  -3.367  -4.812  0.00  0.00    +0.104 C 
ATOM     27  N   UNL     1      14.027  -2.471  -3.760  0.00  0.00    -0.312 N 
ATOM     28  C   UNL     1      13.124  -2.905  -2.875  0.00  0.00    +0.254 C 
ATOM     29  O   UNL     1      12.707  -2.159  -2.015  0.00  0.00    -0.272 OA
ATOM     30  H   UNL     1      14.348  -1.557  -3.710  0.00  0.00    +0.149 HD
ENDBRANCH  21  22
ENDBRANCH   4  21
TORSDOF 9
