REMARK  Name = ZINC18009761
REMARK  5 active torsions:
REMARK  status: ('A' for Active; 'I' for Inactive)
REMARK    1  A    between atoms: C_1  and  C_2
REMARK    2  A    between atoms: N_4  and  C_5
REMARK    3  A    between atoms: C_8  and  C_11
REMARK    4  A    between atoms: N_19  and  C_22
REMARK    5  A    between atoms: N_33  and  C_34
REMARK                            x       y       z     vdW  Elec       q    Type
REMARK                         _______ _______ _______ _____ _____    ______ ____
ROOT
ATOM      1  C   UNL     1      -0.853  -6.349   0.342  0.00  0.00    +0.157 C 
ATOM      2  C   UNL     1      -1.079  -6.993  -1.047  0.00  0.00    +0.145 C 
ATOM      3  C   UNL     1      -2.586  -7.369  -1.028  0.00  0.00    +0.249 C 
ATOM      4  C   UNL     1      -2.569  -8.880  -1.041  0.00  0.00    +0.259 C 
ATOM      5  O   UNL     1      -3.551  -9.591  -1.024  0.00  0.00    -0.272 OA
ATOM      6  N   UNL     1      -1.303  -9.310  -1.073  0.00  0.00    -0.207 N 
ATOM      7  C   UNL     1      -0.368  -8.327  -1.089  0.00  0.00    +0.235 C 
ATOM      8  O   UNL     1       0.834  -8.479  -1.128  0.00  0.00    -0.274 OA
ATOM      9  O   UNL     1      -3.089  -6.893   0.232  0.00  0.00    -0.257 OA
ATOM     10  N   UNL     1      -1.977  -6.889   1.146  0.00  0.00    -0.244 N 
ENDROOT
BRANCH   6  11
ATOM     11  C   UNL     1      -0.965 -10.668  -1.096  0.00  0.00    +0.052 A 
ATOM     12  C   UNL     1      -0.817 -11.327  -2.296  0.00  0.00    +0.024 A 
ATOM     13  C   UNL     1      -0.481 -12.677  -2.331  0.00  0.00    +0.002 A 
ATOM     14  C   UNL     1      -0.289 -13.383  -1.182  0.00  0.00    +0.008 A 
ATOM     15  C   UNL     1      -0.431 -12.748   0.063  0.00  0.00    -0.016 A 
ATOM     16  C   UNL     1      -0.767 -11.372   0.110  0.00  0.00    +0.004 A 
ATOM     17  C   UNL     1      -0.903 -10.738   1.355  0.00  0.00    +0.010 A 
ATOM     18  C   UNL     1      -0.705 -11.449   2.499  0.00  0.00    +0.001 A 
ATOM     19  C   UNL     1      -0.368 -12.800   2.454  0.00  0.00    +0.001 A 
ATOM     20  C   UNL     1      -0.239 -13.451   1.265  0.00  0.00    +0.008 A 
ENDBRANCH   6  11
BRANCH   1  24
ATOM     21  C   UNL     1      -1.081  -2.089   0.091  0.00  0.00    +0.033 A 
ATOM     22  C   UNL     1       0.155  -2.716   0.178  0.00  0.00    +0.023 A 
ATOM     23  C   UNL     1       0.225  -4.092   0.259  0.00  0.00    +0.007 A 
ATOM     24  C   UNL     1      -0.934  -4.847   0.254  0.00  0.00    -0.022 A 
ATOM     25  C   UNL     1      -2.166  -4.226   0.168  0.00  0.00    +0.007 A 
ATOM     26  C   UNL     1      -2.244  -2.849   0.093  0.00  0.00    +0.023 A 
BRANCH  21  30
ATOM     27  C   UNL     1      -2.194   1.470   0.609  0.00  0.00    +0.109 C 
ATOM     28  C   UNL     1      -2.169  -0.037   0.608  0.00  0.00    +0.214 C 
ATOM     29  O   UNL     1      -3.061  -0.658   1.145  0.00  0.00    -0.276 OA
ATOM     30  N   UNL     1      -1.156  -0.694   0.009  0.00  0.00    -0.286 N 
ATOM     31  H   UNL     1      -0.478  -0.200  -0.478  0.00  0.00    +0.155 HD
ENDBRANCH  21  30
ENDBRANCH   1  24
BRANCH  10  32
ATOM     32  C   UNL     1      -1.955  -7.292   2.483  0.00  0.00    +0.065 A 
ATOM     33  C   UNL     1      -0.780  -7.203   3.218  0.00  0.00    +0.028 A 
ATOM     34  C   UNL     1      -0.762  -7.603   4.540  0.00  0.00    +0.002 A 
ATOM     35  C   UNL     1      -1.912  -8.091   5.131  0.00  0.00    +0.000 A 
ATOM     36  C   UNL     1      -3.084  -8.181   4.403  0.00  0.00    +0.002 A 
ATOM     37  C   UNL     1      -3.111  -7.778   3.082  0.00  0.00    +0.028 A 
ENDBRANCH  10  32
TORSDOF 4
