REMARK  Name = ZINC12424627
REMARK  8 active torsions:
REMARK  status: ('A' for Active; 'I' for Inactive)
REMARK    1  A    between atoms: C_1  and  C_2
REMARK    2  A    between atoms: C_2  and  C_4
REMARK    3  A    between atoms: C_2  and  S_17
REMARK    4  A    between atoms: N_6  and  C_7
REMARK    5  A    between atoms: C_10  and  S_13
REMARK    6  A    between atoms: S_13  and  N_16
REMARK    7  A    between atoms: S_17  and  C_18
REMARK    8  A    between atoms: C_26  and  C_28
REMARK                            x       y       z     vdW  Elec       q    Type
REMARK                         _______ _______ _______ _____ _____    ______ ____
ROOT
ATOM      1  C   UNL     1       4.822   5.432   1.282  0.00  0.00    +0.029 C 
ATOM      2  C   UNL     1       5.013   4.661  -0.026  0.00  0.00    +0.136 C 
ENDROOT
BRANCH   2   3
ATOM      3  C   UNL     1       6.455   4.245  -0.157  0.00  0.00    +0.230 C 
ATOM      4  O   UNL     1       6.787   3.112   0.122  0.00  0.00    -0.274 OA
ATOM      5  N   UNL     1       7.377   5.131  -0.583  0.00  0.00    -0.285 N 
ATOM      6  H   UNL     1       7.103   6.016  -0.870  0.00  0.00    +0.155 HD
BRANCH   5   7
ATOM      7  C   UNL     1       8.730   4.774  -0.613  0.00  0.00    +0.034 A 
ATOM      8  C   UNL     1       9.706   5.722  -0.334  0.00  0.00    +0.025 A 
ATOM      9  C   UNL     1      11.040   5.365  -0.358  0.00  0.00    +0.030 A 
ATOM     10  C   UNL     1      11.404   4.068  -0.670  0.00  0.00    +0.105 A 
ATOM     11  C   UNL     1      10.435   3.123  -0.954  0.00  0.00    +0.030 A 
ATOM     12  C   UNL     1       9.099   3.472  -0.926  0.00  0.00    +0.025 A 
BRANCH  10  13
ATOM     13  S   UNL     1      13.108   3.619  -0.707  0.00  0.00    +0.056 S 
ATOM     14  O   UNL     1      13.790   4.545   0.128  0.00  0.00    -0.153 OA
ATOM     15  O   UNL     1      13.162   2.215  -0.491  0.00  0.00    -0.153 OA
BRANCH  13  16
ATOM     16  N   UNL     1      13.651   3.882  -2.249  0.00  0.00    -0.204 NA
ATOM     17  H   UNL     1      13.045   4.225  -2.924  0.00  0.00    +0.144 HD
ATOM     18  H   UNL     1      14.575   3.694  -2.477  0.00  0.00    +0.144 HD
ENDBRANCH  13  16
ENDBRANCH  10  13
ENDBRANCH   5   7
ENDBRANCH   2   3
BRANCH   2  19
ATOM     19  S   UNL     1       3.958   3.191  -0.019  0.00  0.00    -0.093 S 
BRANCH  19  20
ATOM     20  C   UNL     1       2.370   3.953  -0.012  0.00  0.00    +0.109 A 
ATOM     21  C   UNL     1       1.146   3.152  -0.005  0.00  0.00    +0.032 A 
ATOM     22  C   UNL     1       1.170   1.756  -0.004  0.00  0.00    +0.012 A 
ATOM     23  C   UNL     1      -0.006   1.064   0.003  0.00  0.00    +0.001 A 
ATOM     24  C   UNL     1      -1.228   1.731   0.004  0.00  0.00    +0.002 A 
ATOM     25  C   UNL     1      -1.285   3.094   0.009  0.00  0.00    +0.028 A 
ATOM     26  C   UNL     1      -0.095   3.836   0.001  0.00  0.00    +0.076 A 
ATOM     27  N   UNL     1      -0.092   5.175   0.000  0.00  0.00    -0.227 NA
ATOM     28  C   UNL     1       1.042   5.853  -0.006  0.00  0.00    +0.168 A 
ATOM     29  N   UNL     1       2.243   5.273  -0.012  0.00  0.00    -0.220 NA
BRANCH  28  30
ATOM     30  C   UNL     1       0.976   7.326  -0.006  0.00  0.00    +0.056 A 
ATOM     31  C   UNL     1       2.002   8.237  -0.007  0.00  0.00    +0.019 A 
ATOM     32  C   UNL     1       1.695   9.577  -0.010  0.00  0.00    +0.008 A 
ATOM     33  C   UNL     1       0.390   9.959  -0.004  0.00  0.00    +0.046 A 
ATOM     34  S   UNL     1      -0.459   8.388   0.001  0.00  0.00    -0.094 S 
ENDBRANCH  28  30
ENDBRANCH  19  20
ENDBRANCH   2  19
TORSDOF 7
