REMARK  Name = ZINC00798570
REMARK  9 active torsions:
REMARK  status: ('A' for Active; 'I' for Inactive)
REMARK    1  A    between atoms: C_1  and  C_2
REMARK    2  A    between atoms: C_2  and  C_4
REMARK    3  A    between atoms: C_7  and  C_10
REMARK    4  A    between atoms: C_13  and  C_15
REMARK    5  A    between atoms: C_16  and  C_17
REMARK    6  A    between atoms: C_16  and  C_19
REMARK    7  A    between atoms: C_19  and  N_25
REMARK    8  A    between atoms: C_20  and  C_21
REMARK    9  A    between atoms: C_20  and  C_23
REMARK                            x       y       z     vdW  Elec       q    Type
REMARK                         _______ _______ _______ _____ _____    ______ ____
ROOT
ATOM      1  C   UNL     1      -4.919  -2.815   0.797  0.00  0.00    +0.136 A 
ATOM      2  C   UNL     1      -5.001  -4.192   0.798  0.00  0.00    +0.050 A 
ATOM      3  C   UNL     1      -6.348  -4.520   0.646  0.00  0.00    +0.050 A 
ATOM      4  C   UNL     1      -7.045  -3.323   0.557  0.00  0.00    +0.130 A 
ATOM      5  O   UNL     1      -6.158  -2.311   0.657  0.00  0.00    -0.455 OA
ENDROOT
BRANCH   1   9
ATOM      6  C   UNL     1      -1.357  -0.550   1.190  0.00  0.00    +0.017 A 
ATOM      7  C   UNL     1      -2.577   0.098   0.954  0.00  0.00    +0.012 A 
ATOM      8  C   UNL     1      -3.723  -0.632   0.827  0.00  0.00    +0.012 A 
ATOM      9  C   UNL     1      -3.680  -2.027   0.934  0.00  0.00    +0.017 A 
ATOM     10  C   UNL     1      -2.462  -2.674   1.170  0.00  0.00    +0.012 A 
ATOM     11  C   UNL     1      -1.314  -1.946   1.290  0.00  0.00    +0.012 A 
BRANCH   6  13
ATOM     12  C   UNL     1      -0.169   1.738   1.218  0.00  0.00    +0.091 C 
ATOM     13  C   UNL     1      -0.122   0.236   1.326  0.00  0.00    +0.160 C 
ATOM     14  O   UNL     1       0.934  -0.325   1.525  0.00  0.00    -0.292 OA
ENDBRANCH   6  13
ENDBRANCH   1   9
BRANCH   4  15
ATOM     15  C   UNL     1      -8.434  -3.189   0.395  0.00  0.00    +0.067 C 
ATOM     16  C   UNL     1      -8.992  -1.932   0.199  0.00  0.00    +0.078 C 
BRANCH  16  17
ATOM     17  C   UNL     1     -10.415  -1.777   0.171  0.00  0.00    +0.101 C 
ATOM     18  N   UNL     1     -11.544  -1.654   0.149  0.00  0.00    -0.191 NA
ENDBRANCH  16  17
BRANCH  16  19
ATOM     19  C   UNL     1      -8.125  -0.766   0.021  0.00  0.00    +0.070 C 
ATOM     20  C   UNL     1      -7.297  -0.676  -1.101  0.00  0.00    +0.150 C 
BRANCH  19  21
ATOM     21  N   UNL     1      -8.126   0.239   0.957  0.00  0.00    -0.355 N 
ATOM     22  H   UNL     1      -8.644   0.143   1.772  0.00  0.00    +0.142 HD
ATOM     23  H   UNL     1      -7.608   1.045   0.804  0.00  0.00    +0.142 HD
ENDBRANCH  19  21
BRANCH  20  24
ATOM     24  C   UNL     1      -7.296  -1.724  -2.077  0.00  0.00    +0.112 C 
ATOM     25  N   UNL     1      -7.296  -2.556  -2.851  0.00  0.00    -0.190 NA
ENDBRANCH  20  24
BRANCH  20  26
ATOM     26  C   UNL     1      -6.449   0.465  -1.275  0.00  0.00    +0.112 C 
ATOM     27  N   UNL     1      -5.776   1.369  -1.413  0.00  0.00    -0.190 NA
ENDBRANCH  20  26
ENDBRANCH  16  19
ENDBRANCH   4  15
TORSDOF 8
