REMARK  Name = ZINC39466962
REMARK  8 active torsions:
REMARK  status: ('A' for Active; 'I' for Inactive)
REMARK    1  A    between atoms: C_1  and  C_2
REMARK    2  A    between atoms: C_2  and  O_3
REMARK    3  A    between atoms: O_3  and  C_4
REMARK    4  A    between atoms: C_16  and  S_17
REMARK    5  A    between atoms: S_17  and  O_20
REMARK    6  A    between atoms: O_20  and  C_21
REMARK    7  A    between atoms: P_29  and  C_32
REMARK    8  A    between atoms: C_32  and  C_33
REMARK                            x       y       z     vdW  Elec       q    Type
REMARK                         _______ _______ _______ _____ _____    ______ ____
ROOT
ATOM      1  C   UNL     1       0.534  -2.128  -1.751  0.00  0.00    +0.145 C 
ATOM      2  C   UNL     1      -0.084  -3.090  -1.053  0.00  0.00    +0.023 C 
ATOM      3  C   UNL     1       0.026  -4.512  -1.530  0.00  0.00    +0.008 C 
ATOM      4  C   UNL     1      -1.122  -5.370  -1.012  0.00  0.00    -0.046 C 
ATOM      5  N   UNL     1      -0.950  -6.760  -1.469  0.00  0.00    +0.397 N 
ATOM      6  C   UNL     1      -0.939  -6.846  -2.929  0.00  0.00    -0.020 C 
ATOM      7  C   UNL     1       0.167  -5.965  -3.527  0.00  0.00    -0.003 C 
ATOM      8  C   UNL     1      -0.029  -4.525  -3.064  0.00  0.00    +0.018 C 
ATOM      9  C   UNL     1       1.050  -3.623  -3.597  0.00  0.00    +0.011 C 
ATOM     10  C   UNL     1       1.306  -2.484  -2.958  0.00  0.00    +0.166 C 
ATOM     11  C   UNL     1      -0.660  -8.278  -3.404  0.00  0.00    +0.156 C 
ATOM     12  O   UNL     1      -1.709  -9.147  -2.939  0.00  0.00    -0.319 OA
ATOM     13  P   UNL     1      -2.101  -9.084  -1.361  0.00  0.00    +0.262 P 
ATOM     14  O   UNL     1      -1.141  -9.879  -0.562  0.00  0.00    -0.274 OA
ATOM     15  N   UNL     1      -2.014  -7.471  -0.953  0.00  0.00    -0.291 NA
ATOM     16  H   UNL     1      -2.665  -7.049  -0.371  0.00  0.00    +0.111 HD
ATOM     17  H   UNL     1      -0.087  -7.132  -1.101  0.00  0.00    -0.055 HD
ENDROOT
BRANCH  10  18
ATOM     18  S   UNL     1       2.568  -1.407  -3.550  0.00  0.00    +0.154 S 
ATOM     19  O   UNL     1       3.074  -1.990  -4.743  0.00  0.00    -0.131 OA
ATOM     20  O   UNL     1       2.030  -0.092  -3.514  0.00  0.00    -0.131 OA
BRANCH  18  21
ATOM     21  O   UNL     1       3.701  -1.440  -2.535  0.00  0.00    -0.342 OA
BRANCH  21  22
ATOM     22  C   UNL     1       4.441  -2.580  -2.569  0.00  0.00    +0.157 A 
ATOM     23  C   UNL     1       4.085  -3.663  -1.778  0.00  0.00    +0.048 A 
ATOM     24  C   UNL     1       4.838  -4.821  -1.815  0.00  0.00    +0.004 A 
ATOM     25  C   UNL     1       5.945  -4.901  -2.639  0.00  0.00    +0.000 A 
ATOM     26  C   UNL     1       6.302  -3.822  -3.428  0.00  0.00    +0.004 A 
ATOM     27  C   UNL     1       5.549  -2.665  -3.399  0.00  0.00    +0.048 A 
ENDBRANCH  21  22
ENDBRANCH  18  21
ENDBRANCH  10  18
BRANCH   1  28
ATOM     28  O   UNL     1       0.445  -0.832  -1.354  0.00  0.00    -0.491 OA
BRANCH  28  30
ATOM     29  C   UNL     1      -0.211   0.927   0.168  0.00  0.00    +0.048 C 
ATOM     30  C   UNL     1      -0.225  -0.576  -0.118  0.00  0.00    +0.226 C 
ENDBRANCH  28  30
ENDBRANCH   1  28
BRANCH  13  31
ATOM     31  C   UNL     1      -3.797  -9.701  -1.106  0.00  0.00    +0.147 C 
BRANCH  31  32
ATOM     32  C   UNL     1      -3.888 -11.129  -1.579  0.00  0.00    -0.037 A 
ATOM     33  C   UNL     1      -4.228 -11.402  -2.891  0.00  0.00    +0.004 A 
ATOM     34  C   UNL     1      -4.312 -12.712  -3.325  0.00  0.00    +0.000 A 
ATOM     35  C   UNL     1      -4.056 -13.749  -2.448  0.00  0.00    +0.000 A 
ATOM     36  C   UNL     1      -3.715 -13.476  -1.136  0.00  0.00    +0.000 A 
ATOM     37  C   UNL     1      -3.627 -12.166  -0.703  0.00  0.00    +0.004 A 
ENDBRANCH  31  32
ENDBRANCH  13  31
TORSDOF 7
