REMARK  Name = ZINC32831234
REMARK  9 active torsions:
REMARK  status: ('A' for Active; 'I' for Inactive)
REMARK    1  A    between atoms: C_1  and  N_2
REMARK    2  A    between atoms: C_6  and  C_8
REMARK    3  A    between atoms: C_8  and  N_9
REMARK    4  A    between atoms: N_9  and  C_10
REMARK    5  A    between atoms: N_9  and  C_18
REMARK    6  A    between atoms: C_10  and  C_11
REMARK    7  A    between atoms: N_16  and  C_17
REMARK    8  A    between atoms: C_18  and  C_19
REMARK    9  A    between atoms: C_19  and  C_22
REMARK                            x       y       z     vdW  Elec       q    Type
REMARK                         _______ _______ _______ _____ _____    ______ ____
ROOT
ATOM      1  N   UNL     1       3.322   0.037  -1.197  0.00  0.00    +0.392 N 
ATOM      2  H   UNL     1       3.943   0.178  -0.300  0.00  0.00    -0.080 HD
ENDROOT
BRANCH   1   3
ATOM      3  C   UNL     1       2.821  -1.344  -1.187  0.00  0.00    +0.020 C 
BRANCH   3   9
ATOM      4  C   UNL     1      -0.938  -4.357  -4.977  0.00  0.00    +0.129 C 
ATOM      5  N   UNL     1      -0.078  -4.141  -3.811  0.00  0.00    -0.302 N 
ATOM      6  C   UNL     1       0.534  -2.953  -3.636  0.00  0.00    +0.306 C 
ATOM      7  O   UNL     1       0.374  -2.061  -4.446  0.00  0.00    -0.252 OA
ATOM      8  N   UNL     1       1.325  -2.754  -2.562  0.00  0.00    -0.242 N 
ATOM      9  C   UNL     1       1.937  -1.567  -2.388  0.00  0.00    +0.204 C 
ATOM     10  O   UNL     1       1.777  -0.677  -3.196  0.00  0.00    -0.277 OA
ATOM     11  H   UNL     1       0.067  -4.948  -3.078  0.00  0.00    +0.150 HD
ATOM     12  H   UNL     1       1.470  -3.561  -1.829  0.00  0.00    +0.159 HD
ENDBRANCH   3   9
ENDBRANCH   1   3
BRANCH   1  13
ATOM     13  C   UNL     1       4.166   0.283  -2.374  0.00  0.00    +0.020 C 
BRANCH  13  14
ATOM     14  C   UNL     1       5.479  -0.438  -2.209  0.00  0.00    +0.204 C 
ATOM     15  O   UNL     1       5.705  -1.062  -1.195  0.00  0.00    -0.277 OA
ATOM     16  N   UNL     1       6.402  -0.388  -3.189  0.00  0.00    -0.242 N 
ATOM     17  C   UNL     1       7.577  -1.033  -3.042  0.00  0.00    +0.306 C 
ATOM     18  O   UNL     1       7.803  -1.659  -2.025  0.00  0.00    -0.252 OA
ATOM     19  N   UNL     1       8.500  -0.983  -4.023  0.00  0.00    -0.302 N 
ATOM     20  C   UNL     1       9.777  -1.684  -3.863  0.00  0.00    +0.129 C 
ATOM     21  H   UNL     1       6.198   0.178  -4.110  0.00  0.00    +0.159 HD
ATOM     22  H   UNL     1       8.296  -0.417  -4.943  0.00  0.00    +0.150 HD
ENDBRANCH  13  14
ENDBRANCH   1  13
BRANCH   1  23
ATOM     23  C   UNL     1       2.213   0.999  -1.134  0.00  0.00    -0.066 C 
BRANCH  23  24
ATOM     24  C   UNL     1       1.673   1.062   0.296  0.00  0.00    -0.019 C 
ATOM     25  C   UNL     1       0.426   1.913   0.543  0.00  0.00    +0.010 C 
ATOM     26  C   UNL     1       0.329   0.387   0.574  0.00  0.00    +0.010 C 
BRANCH  24  27
ATOM     27  C   UNL     1       2.712   1.018   1.386  0.00  0.00    -0.043 A 
ATOM     28  C   UNL     1       2.401   0.470   2.616  0.00  0.00    +0.004 A 
ATOM     29  C   UNL     1       3.356   0.424   3.615  0.00  0.00    +0.000 A 
ATOM     30  C   UNL     1       4.619   0.936   3.386  0.00  0.00    +0.000 A 
ATOM     31  C   UNL     1       4.929   1.489   2.158  0.00  0.00    +0.000 A 
ATOM     32  C   UNL     1       3.976   1.530   1.158  0.00  0.00    +0.004 A 
ENDBRANCH  24  27
ENDBRANCH  23  24
ENDBRANCH   1  23
TORSDOF 7
