REMARK  Name = ZINC18230022
REMARK  4 active torsions:
REMARK  status: ('A' for Active; 'I' for Inactive)
REMARK    1  A    between atoms: C_4  and  O_27
REMARK    2  A    between atoms: C_5  and  C_7
REMARK    3  A    between atoms: N_8  and  N_9
REMARK    4  A    between atoms: C_10  and  C_12
REMARK                            x       y       z     vdW  Elec       q    Type
REMARK                         _______ _______ _______ _____ _____    ______ ____
ROOT
ATOM      1  C   UNL     1       3.620  -6.316  -0.069  0.00  0.00    +0.199 A 
ATOM      2  N   UNL     1       4.828  -6.961  -0.079  0.00  0.00    -0.303 N 
ATOM      3  H   UNL     1       5.646  -6.441  -0.079  0.00  0.00    +0.171 HD
ATOM      4  C   UNL     1       4.898  -8.307  -0.087  0.00  0.00    +0.260 A 
ATOM      5  O   UNL     1       5.976  -8.876  -0.096  0.00  0.00    -0.267 OA
ATOM      6  C   UNL     1       3.633  -9.076  -0.086  0.00  0.00    +0.075 A 
ATOM      7  C   UNL     1       3.465 -10.482  -0.095  0.00  0.00    -0.023 A 
ATOM      8  C   UNL     1       2.199 -10.965  -0.092  0.00  0.00    -0.004 A 
ATOM      9  S   UNL     1       1.169  -9.521  -0.075  0.00  0.00    -0.073 S 
ATOM     10  C   UNL     1       2.458  -8.299  -0.075  0.00  0.00    +0.116 A 
ATOM     11  N   UNL     1       2.487  -6.978  -0.062  0.00  0.00    -0.217 NA
ATOM     12  C   UNL     1       1.771 -12.399  -0.101  0.00  0.00    +0.043 C 
ATOM     13  C   UNL     1       2.982 -13.262  -0.488  0.00  0.00    +0.005 C 
ATOM     14  C   UNL     1       4.186 -12.819   0.347  0.00  0.00    +0.005 C 
ATOM     15  C   UNL     1       4.657 -11.437  -0.107  0.00  0.00    +0.037 C 
ENDROOT
BRANCH   1  17
ATOM     16  N   UNL     1       2.413  -4.186  -0.045  0.00  0.00    -0.200 N 
ATOM     17  C   UNL     1       3.593  -4.838  -0.060  0.00  0.00    +0.299 C 
ATOM     18  O   UNL     1       4.634  -4.210  -0.067  0.00  0.00    -0.265 OA
ATOM     19  H   UNL     1       1.582  -4.686  -0.040  0.00  0.00    +0.178 HD
BRANCH  16  21
ATOM     20  C   UNL     1       1.250  -2.157  -0.022  0.00  0.00    +0.142 C 
ATOM     21  N   UNL     1       2.387  -2.785  -0.037  0.00  0.00    -0.187 NA
BRANCH  20  26
ATOM     22  C   UNL     1      -0.017   1.375   0.010  0.00  0.00    +0.001 A 
ATOM     23  C   UNL     1       1.169   2.089   0.002  0.00  0.00    +0.004 A 
ATOM     24  C   UNL     1       2.383   1.429  -0.013  0.00  0.00    +0.046 A 
ATOM     25  C   UNL     1       2.421   0.044  -0.021  0.00  0.00    +0.125 A 
ATOM     26  C   UNL     1       1.222  -0.684  -0.013  0.00  0.00    +0.036 A 
ATOM     27  C   UNL     1       0.002  -0.004   0.002  0.00  0.00    +0.013 A 
BRANCH  25  28
ATOM     28  O   UNL     1       3.613  -0.606  -0.036  0.00  0.00    -0.506 OA
ATOM     29  H   UNL     1       3.967  -0.799   0.843  0.00  0.00    +0.292 HD
ENDBRANCH  25  28
ENDBRANCH  20  26
ENDBRANCH  16  21
ENDBRANCH   1  17
TORSDOF 4
