REMARK  Name = ZINC18222316
REMARK  3 active torsions:
REMARK  status: ('A' for Active; 'I' for Inactive)
REMARK    1  A    between atoms: C_1  and  C_2
REMARK    2  A    between atoms: C_2  and  C_29
REMARK    3  A    between atoms: C_6  and  C_17
REMARK                            x       y       z     vdW  Elec       q    Type
REMARK                         _______ _______ _______ _____ _____    ______ ____
ROOT
ATOM      1  C   UNL     1      -0.019   1.526   0.010  0.00  0.00    +0.011 C 
ATOM      2  C   UNL     1       0.002  -0.004   0.002  0.00  0.00    -0.023 C 
ATOM      3  C   UNL     1      -1.432  -0.538   0.040  0.00  0.00    +0.058 C 
ATOM      4  C   UNL     1      -1.409  -2.046   0.081  0.00  0.00    +0.017 C 
ATOM      5  C   UNL     1      -0.394  -2.711   0.673  0.00  0.00    +0.024 C 
ATOM      6  C   UNL     1      -0.372  -4.218   0.714  0.00  0.00    +0.093 C 
ATOM      7  C   UNL     1      -1.730  -4.790   0.431  0.00  0.00    +0.069 A 
ATOM      8  C   UNL     1      -2.023  -6.128   0.775  0.00  0.00    +0.280 A 
ATOM      9  O   UNL     1      -1.173  -6.825   1.310  0.00  0.00    -0.265 OA
ATOM     10  N   UNL     1      -3.240  -6.628   0.511  0.00  0.00    -0.177 NA
ATOM     11  C   UNL     1      -4.167  -5.890  -0.062  0.00  0.00    +0.195 A 
ATOM     12  N   UNL     1      -3.924  -4.596  -0.406  0.00  0.00    -0.316 N 
ATOM     13  C   UNL     1      -2.698  -4.037  -0.158  0.00  0.00    +0.112 A 
ATOM     14  N   UNL     1      -2.446  -2.728  -0.496  0.00  0.00    -0.304 N 
ATOM     15  N   UNL     1      -5.397  -6.435  -0.318  0.00  0.00    -0.329 N 
ATOM     16  C   UNL     1       0.676  -2.018   1.266  0.00  0.00    +0.162 C 
ATOM     17  O   UNL     1       1.564  -2.646   1.809  0.00  0.00    -0.292 OA
ATOM     18  C   UNL     1       0.743  -0.516   1.242  0.00  0.00    +0.086 C 
ATOM     19  C   UNL     1       0.708  -0.502  -1.261  0.00  0.00    +0.011 C 
ATOM     20  H   UNL     1      -3.009  -2.284  -1.149  0.00  0.00    +0.153 HD
ATOM     21  H   UNL     1      -5.579  -7.357  -0.077  0.00  0.00    +0.145 HD
ATOM     22  H   UNL     1      -6.086  -5.899  -0.740  0.00  0.00    +0.145 HD
ATOM     23  H   UNL     1      -4.620  -4.068  -0.827  0.00  0.00    +0.170 HD
ENDROOT
BRANCH   6  24
ATOM     24  C   UNL     1       0.600  -4.725  -0.320  0.00  0.00    -0.032 A 
ATOM     25  C   UNL     1       0.410  -4.418  -1.655  0.00  0.00    +0.008 A 
ATOM     26  C   UNL     1       1.300  -4.881  -2.606  0.00  0.00    +0.050 A 
ATOM     27  C   UNL     1       2.384  -5.654  -2.224  0.00  0.00    +0.166 A 
ATOM     28  C   UNL     1       2.575  -5.963  -0.880  0.00  0.00    +0.167 A 
ATOM     29  C   UNL     1       1.683  -5.491   0.069  0.00  0.00    +0.054 A 
ATOM     30  O   UNL     1       3.700  -6.727  -0.763  0.00  0.00    -0.453 OA
ATOM     31  C   UNL     1       3.967  -7.223  -2.088  0.00  0.00    +0.466 C 
ATOM     32  O   UNL     1       3.390  -6.224  -2.950  0.00  0.00    -0.453 OA
ENDBRANCH   6  24
TORSDOF 1
