REMARK  Name = ZINC60385491
REMARK  8 active torsions:
REMARK  status: ('A' for Active; 'I' for Inactive)
REMARK    1  A    between atoms: C_1  and  C_2
REMARK    2  A    between atoms: C_2  and  C_4
REMARK    3  A    between atoms: C_2  and  O_15
REMARK    4  A    between atoms: N_6  and  C_7
REMARK    5  A    between atoms: O_15  and  C_16
REMARK    6  A    between atoms: C_16  and  C_18
REMARK    7  A    between atoms: C_20  and  N_25
REMARK    8  A    between atoms: C_23  and  N_24
REMARK                            x       y       z     vdW  Elec       q    Type
REMARK                         _______ _______ _______ _____ _____    ______ ____
ROOT
ATOM      1  O   UNL     1       1.172  -0.511  -0.545  0.00  0.00    -0.449 OA
ENDROOT
BRANCH   1   3
ATOM      2  C   UNL     1       0.518   1.519   0.592  0.00  0.00    +0.062 C 
ATOM      3  C   UNL     1       0.507  -0.011   0.617  0.00  0.00    +0.259 C 
BRANCH   3   4
ATOM      4  C   UNL     1       1.219  -0.498   1.852  0.00  0.00    +0.258 C 
ATOM      5  O   UNL     1       2.250  -1.128   1.749  0.00  0.00    -0.271 OA
ATOM      6  N   UNL     1       0.709  -0.234   3.072  0.00  0.00    -0.281 N 
ATOM      7  H   UNL     1      -0.081   0.322   3.157  0.00  0.00    +0.155 HD
BRANCH   6   8
ATOM      8  C   UNL     1       1.321  -0.763   4.215  0.00  0.00    +0.053 A 
ATOM      9  C   UNL     1       2.700  -0.911   4.261  0.00  0.00    +0.025 A 
ATOM     10  C   UNL     1       3.301  -1.432   5.390  0.00  0.00    +0.003 A 
ATOM     11  C   UNL     1       2.531  -1.807   6.475  0.00  0.00    +0.021 A 
ATOM     12  C   UNL     1       1.155  -1.661   6.434  0.00  0.00    +0.061 A 
ATOM     13  C   UNL     1       0.548  -1.135   5.308  0.00  0.00    +0.080 A 
ATOM     14 CL   UNL     1      -1.177  -0.945   5.259  0.00  0.00    -0.080 Cl
ATOM     15 CL   UNL     1       0.192  -2.134   7.798  0.00  0.00    -0.082 Cl
ENDBRANCH   6   8
ENDBRANCH   3   4
ENDBRANCH   1   3
BRANCH   1  16
ATOM     16  C   UNL     1       0.414  -0.727  -1.638  0.00  0.00    +0.342 C 
ATOM     17  O   UNL     1      -0.778  -0.497  -1.606  0.00  0.00    -0.245 OA
BRANCH  16  18
ATOM     18  C   UNL     1       1.032  -1.242  -2.872  0.00  0.00    +0.082 A 
ATOM     19  C   UNL     1       2.379  -1.616  -2.882  0.00  0.00    +0.049 A 
ATOM     20  C   UNL     1       2.950  -2.097  -4.039  0.00  0.00    +0.127 A 
ATOM     21  C   UNL     1       2.197  -2.213  -5.197  0.00  0.00    +0.034 A 
ATOM     22  C   UNL     1       0.867  -1.848  -5.204  0.00  0.00    +0.026 A 
ATOM     23  C   UNL     1       0.270  -1.366  -4.045  0.00  0.00    +0.039 A 
BRANCH  23  24
ATOM     24  N   UNL     1      -1.070  -1.004  -4.049  0.00  0.00    -0.357 N 
ATOM     25  H   UNL     1      -1.503  -0.738  -3.222  0.00  0.00    +0.142 HD
ATOM     26  H   UNL     1      -1.574  -1.017  -4.877  0.00  0.00    +0.142 HD
ENDBRANCH  23  24
BRANCH  20  27
ATOM     27  N   UNL     1       4.377  -2.492  -4.046  0.00  0.00    +0.056 N 
ATOM     28  O   UNL     1       5.037  -2.392  -3.038  0.00  0.00    -0.126 OA
ATOM     29  O   UNL     1       4.882  -2.914  -5.060  0.00  0.00    -0.126 OA
ENDBRANCH  20  27
ENDBRANCH  16  18
ENDBRANCH   1  16
TORSDOF 7
