REMARK  Name = ZINC22752414
REMARK  13 active torsions:
REMARK  status: ('A' for Active; 'I' for Inactive)
REMARK    1  A    between atoms: C_1  and  C_2
REMARK    2  A    between atoms: C_2  and  N_3
REMARK    3  A    between atoms: N_3  and  C_4
REMARK    4  A    between atoms: N_3  and  C_6
REMARK    5  A    between atoms: C_4  and  C_5
REMARK    6  A    between atoms: C_6  and  C_8
REMARK    7  A    between atoms: C_6  and  C_28
REMARK    8  A    between atoms: C_8  and  N_9
REMARK    9  A    between atoms: C_10  and  C_12
REMARK   10  A    between atoms: C_12  and  C_13
REMARK   11  A    between atoms: C_13  and  N_14
REMARK   12  A    between atoms: C_15  and  C_21
REMARK   13  A    between atoms: C_24  and  C_27
REMARK                            x       y       z     vdW  Elec       q    Type
REMARK                         _______ _______ _______ _____ _____    ______ ____
ROOT
ATOM      1  N   UNL     1       2.023   3.938  -0.918  0.00  0.00    -0.316 N 
ATOM      2  C   UNL     1       2.410   3.994  -2.208  0.00  0.00    +0.215 C 
ATOM      3  O   UNL     1       2.277   3.023  -2.923  0.00  0.00    -0.276 OA
ATOM      4  H   UNL     1       2.067   4.841  -0.291  0.00  0.00    +0.149 HD
ENDROOT
BRANCH   1   5
ATOM      5  C   UNL     1       1.543   2.676  -0.351  0.00  0.00    +0.093 C 
BRANCH   5   6
ATOM      6  C   UNL     1       1.262   2.861   1.142  0.00  0.00    -0.020 C 
BRANCH   6   7
ATOM      7  C   UNL     1       0.868   1.539   1.747  0.00  0.00    -0.059 A 
ATOM      8  C   UNL     1      -0.092   1.492   2.741  0.00  0.00    +0.002 A 
ATOM      9  C   UNL     1      -0.454   0.279   3.296  0.00  0.00    +0.000 A 
ATOM     10  C   UNL     1       0.143  -0.888   2.856  0.00  0.00    +0.000 A 
ATOM     11  C   UNL     1       1.103  -0.841   1.862  0.00  0.00    +0.000 A 
ATOM     12  C   UNL     1       1.465   0.372   1.308  0.00  0.00    +0.002 A 
ENDBRANCH   6   7
BRANCH   6  13
ATOM     13  N   UNL     1       2.471   3.364   1.809  0.00  0.00    +0.385 N 
ATOM     14  H   UNL     1       2.731   4.331   1.353  0.00  0.00    -0.081 HD
BRANCH  13  16
ATOM     15  C   UNL     1       1.228   4.737   3.411  0.00  0.00    -0.017 C 
ATOM     16  C   UNL     1       2.227   3.591   3.239  0.00  0.00    -0.081 C 
ENDBRANCH  13  16
BRANCH  13  17
ATOM     17  C   UNL     1       3.603   2.450   1.606  0.00  0.00    -0.081 C 
ATOM     18  C   UNL     1       4.332   2.821   0.313  0.00  0.00    -0.017 C 
ENDBRANCH  13  17
ENDBRANCH   6  13
ENDBRANCH   5   6
ENDBRANCH   1   5
BRANCH   2  19
ATOM     19  C   UNL     1       3.008   5.261  -2.761  0.00  0.00    +0.117 C 
BRANCH  19  20
ATOM     20  C   UNL     1       3.240   5.102  -4.265  0.00  0.00    +0.135 C 
BRANCH  20  21
ATOM     21  N   UNL     1       3.821   6.334  -4.803  0.00  0.00    -0.303 N 
ATOM     22  C   UNL     1       3.118   7.385  -5.358  0.00  0.00    +0.163 A 
ATOM     23  N   UNL     1       3.966   8.305  -5.723  0.00  0.00    -0.153 NA
ATOM     24  N   UNL     1       5.256   7.852  -5.414  0.00  0.00    -0.254 N 
ATOM     25  H   UNL     1       6.130   8.480  -5.646  0.00  0.00    +0.191 HD
ATOM     26  C   UNL     1       5.134   6.634  -4.848  0.00  0.00    +0.176 A 
ATOM     27  S   UNL     1       6.416   5.648  -4.286  0.00  0.00    -0.011 S 
BRANCH  22  28
ATOM     28  C   UNL     1       1.647   7.457  -5.508  0.00  0.00    +0.019 A 
ATOM     29  C   UNL     1       1.080   8.343  -6.425  0.00  0.00    +0.012 A 
ATOM     30  C   UNL     1      -0.292   8.402  -6.564  0.00  0.00    +0.004 A 
ATOM     31  C   UNL     1      -1.104   7.593  -5.789  0.00  0.00    -0.050 A 
ATOM     32  C   UNL     1      -0.547   6.717  -4.874  0.00  0.00    +0.004 A 
ATOM     33  C   UNL     1       0.823   6.645  -4.730  0.00  0.00    +0.012 A 
ATOM     34  C   UNL     1      -2.602   7.667  -5.942  0.00  0.00    +0.044 C 
ENDBRANCH  22  28
ENDBRANCH  20  21
ENDBRANCH  19  20
ENDBRANCH   2  19
TORSDOF 10
