REMARK  Name = ZINC39664248
REMARK  10 active torsions:
REMARK  status: ('A' for Active; 'I' for Inactive)
REMARK    1  A    between atoms: C_1  and  C_2
REMARK    2  A    between atoms: C_2  and  C_3
REMARK    3  A    between atoms: C_3  and  C_4
REMARK    4  A    between atoms: C_4  and  C_6
REMARK    5  A    between atoms: C_4  and  C_7
REMARK    6  A    between atoms: C_11  and  C_20
REMARK    7  A    between atoms: N_22  and  C_23
REMARK    8  A    between atoms: C_23  and  C_24
REMARK    9  A    between atoms: C_24  and  C_26
REMARK   10  A    between atoms: C_24  and  N_32
REMARK                            x       y       z     vdW  Elec       q    Type
REMARK                         _______ _______ _______ _____ _____    ______ ____
ROOT
ATOM      1  C   UNL     1       3.061  -3.031   3.933  0.00  0.00    +0.218 C 
ATOM      2  O   UNL     1       3.855  -2.447   4.640  0.00  0.00    -0.275 OA
ATOM      3  N   UNL     1       3.107  -4.375   3.836  0.00  0.00    -0.300 N 
ATOM      4  C   UNL     1       2.234  -5.257   3.026  0.00  0.00    +0.121 C 
ATOM      5  C   UNL     1       3.184  -6.341   2.468  0.00  0.00    +0.100 C 
ATOM      6  C   UNL     1       4.367  -6.368   3.450  0.00  0.00    -0.004 C 
ATOM      7  C   UNL     1       4.047  -5.303   4.509  0.00  0.00    +0.115 C 
ATOM      8  C   UNL     1       5.662  -6.011   2.727  0.00  0.00    -0.010 C 
ATOM      9  C   UNL     1       6.832  -6.100   3.711  0.00  0.00    -0.082 C 
ATOM     10  N   UNL     1       6.912  -7.461   4.256  0.00  0.00    +0.379 N 
ATOM     11  C   UNL     1       5.701  -7.763   5.029  0.00  0.00    -0.082 C 
ATOM     12  C   UNL     1       4.483  -7.743   4.101  0.00  0.00    -0.010 C 
ATOM     13  H   UNL     1       7.000  -8.121   3.498  0.00  0.00    -0.086 HD
ATOM     14  H   UNL     1       7.720  -7.534   4.857  0.00  0.00    -0.086 HD
ENDROOT
BRANCH   5  15
ATOM     15  C   UNL     1       2.493  -7.679   2.439  0.00  0.00    +0.218 C 
ATOM     16  O   UNL     1       1.659  -7.950   3.277  0.00  0.00    -0.275 OA
ATOM     17  N   UNL     1       2.801  -8.576   1.481  0.00  0.00    -0.313 N 
ATOM     18  H   UNL     1       3.467  -8.360   0.811  0.00  0.00    +0.149 HD
BRANCH  17  19
ATOM     19  C   UNL     1       2.129  -9.878   1.453  0.00  0.00    +0.127 C 
BRANCH  19  20
ATOM     20  C   UNL     1       2.657 -10.699   0.275  0.00  0.00    +0.104 C 
BRANCH  20  21
ATOM     21  C   UNL     1       1.881 -11.986   0.172  0.00  0.00    -0.029 A 
ATOM     22  C   UNL     1       2.550 -13.190   0.053  0.00  0.00    +0.005 A 
ATOM     23  C   UNL     1       1.838 -14.371  -0.042  0.00  0.00    +0.000 A 
ATOM     24  C   UNL     1       0.456 -14.348  -0.018  0.00  0.00    +0.000 A 
ATOM     25  C   UNL     1      -0.213 -13.145   0.102  0.00  0.00    +0.000 A 
ATOM     26  C   UNL     1       0.499 -11.964   0.201  0.00  0.00    +0.005 A 
ENDBRANCH  20  21
BRANCH  20  27
ATOM     27  N   UNL     1       2.500  -9.931  -0.967  0.00  0.00    -0.290 NA
ATOM     28  C   UNL     1       1.081  -9.665  -1.246  0.00  0.00    +0.113 C 
ATOM     29  C   UNL     1       0.967  -8.814  -2.514  0.00  0.00    +0.175 C 
ATOM     30  O   UNL     1       1.614  -9.490  -3.596  0.00  0.00    -0.377 OA
ATOM     31  C   UNL     1       2.997  -9.764  -3.358  0.00  0.00    +0.175 C 
ATOM     32  C   UNL     1       3.132 -10.625  -2.099  0.00  0.00    +0.113 C 
ENDBRANCH  20  27
ENDBRANCH  19  20
ENDBRANCH  17  19
ENDBRANCH   5  15
BRANCH   1  33
ATOM     33  C   UNL     1       2.024  -2.255   3.164  0.00  0.00    +0.072 C 
ATOM     34  C   UNL     1       0.626  -2.705   3.596  0.00  0.00    +0.017 C 
BRANCH  33  35
ATOM     35  C   UNL     1       2.189  -0.761   3.450  0.00  0.00    +0.012 C 
BRANCH  35  37
ATOM     36  C   UNL     1       1.385   1.530   2.861  0.00  0.00    +0.004 C 
ATOM     37  C   UNL     1       1.219   0.036   2.575  0.00  0.00    -0.003 C 
ENDBRANCH  35  37
ENDBRANCH  33  35
ENDBRANCH   1  33
TORSDOF 8
