REMARK  Name = ZINC37316271
REMARK  7 active torsions:
REMARK  status: ('A' for Active; 'I' for Inactive)
REMARK    1  A    between atoms: C_1  and  C_2
REMARK    2  A    between atoms: C_2  and  C_4
REMARK    3  A    between atoms: C_2  and  N_11
REMARK    4  A    between atoms: N_11  and  C_12
REMARK    5  A    between atoms: C_17  and  N_18
REMARK    6  A    between atoms: N_18  and  C_19
REMARK    7  A    between atoms: N_18  and  C_20
REMARK                            x       y       z     vdW  Elec       q    Type
REMARK                         _______ _______ _______ _____ _____    ______ ____
ROOT
ATOM      1  N   UNL     1       0.688  -0.476  -1.203  0.00  0.00    -0.336 N 
ATOM      2  H   UNL     1       1.632  -0.695  -1.170  0.00  0.00    +0.147 HD
ENDROOT
BRANCH   1   3
ATOM      3  C   UNL     1      -0.020  -0.613  -2.403  0.00  0.00    +0.050 A 
ATOM      4  C   UNL     1      -1.369  -0.297  -2.455  0.00  0.00    +0.044 A 
ATOM      5  C   UNL     1      -2.067  -0.432  -3.642  0.00  0.00    +0.043 A 
ATOM      6  C   UNL     1      -1.422  -0.883  -4.780  0.00  0.00    +0.022 A 
ATOM      7  C   UNL     1      -0.077  -1.201  -4.736  0.00  0.00    +0.026 A 
ATOM      8  C   UNL     1       0.631  -1.063  -3.552  0.00  0.00    +0.050 A 
ATOM      9 CL   UNL     1      -3.756  -0.035  -3.704  0.00  0.00    -0.083 Cl
BRANCH   8  10
ATOM     10  N   UNL     1       1.995  -1.379  -3.508  0.00  0.00    -0.335 N 
ATOM     11  C   UNL     1       2.995  -0.347  -3.791  0.00  0.00    +0.129 C 
ATOM     12  C   UNL     1       2.421  -2.741  -3.179  0.00  0.00    +0.129 C 
ENDBRANCH   8  10
ENDBRANCH   1   3
BRANCH   1  14
ATOM     13  C   UNL     1      -0.019   1.526   0.010  0.00  0.00    +0.033 C 
ATOM     14  C   UNL     1       0.002  -0.004   0.002  0.00  0.00    +0.098 C 
BRANCH  14  15
ATOM     15  C   UNL     1       0.731  -0.503   1.223  0.00  0.00    -0.028 A 
ATOM     16  C   UNL     1       2.113  -0.514   1.246  0.00  0.00    +0.006 A 
ATOM     17  C   UNL     1       2.782  -0.972   2.366  0.00  0.00    +0.015 A 
ATOM     18  C   UNL     1       2.068  -1.419   3.463  0.00  0.00    +0.013 A 
ATOM     19  C   UNL     1       0.685  -1.409   3.439  0.00  0.00    +0.015 A 
ATOM     20  C   UNL     1       0.017  -0.945   2.321  0.00  0.00    +0.006 A 
ATOM     21  I   UNL     1       3.082  -2.114   5.160  0.00  0.00    -0.044 I 
ENDBRANCH  14  15
ENDBRANCH   1  14
TORSDOF 4
