REMARK  Name = ZINC59167317
REMARK  10 active torsions:
REMARK  status: ('A' for Active; 'I' for Inactive)
REMARK    1  A    between atoms: C_1  and  C_2
REMARK    2  A    between atoms: C_2  and  C_3
REMARK    3  A    between atoms: C_2  and  C_4
REMARK    4  A    between atoms: C_4  and  C_5
REMARK    5  A    between atoms: C_5  and  C_7
REMARK    6  A    between atoms: C_5  and  N_30
REMARK    7  A    between atoms: N_9  and  N_10
REMARK    8  A    between atoms: N_18  and  C_21
REMARK    9  A    between atoms: C_21  and  C_22
REMARK   10  A    between atoms: C_22  and  C_23
REMARK                            x       y       z     vdW  Elec       q    Type
REMARK                         _______ _______ _______ _____ _____    ______ ____
ROOT
ATOM      1  N   UNL     1      -4.628  -3.067  -1.703  0.00  0.00    -0.175 NA
ATOM      2  C   UNL     1      -5.118  -3.100  -2.919  0.00  0.00    +0.153 C 
ATOM      3  C   UNL     1      -6.462  -3.560  -3.339  0.00  0.00    +0.029 A 
ATOM      4  C   UNL     1      -7.555  -4.066  -2.644  0.00  0.00    +0.027 A 
ATOM      5  C   UNL     1      -8.701  -4.416  -3.331  0.00  0.00    +0.019 A 
ATOM      6  C   UNL     1      -8.759  -4.264  -4.707  0.00  0.00    +0.017 A 
ATOM      7  C   UNL     1      -7.679  -3.763  -5.404  0.00  0.00    +0.025 A 
ATOM      8  C   UNL     1      -6.517  -3.404  -4.730  0.00  0.00    +0.046 A 
ATOM      9  N   UNL     1      -5.309  -2.885  -5.183  0.00  0.00    -0.265 N 
ATOM     10  C   UNL     1      -4.451  -2.679  -4.168  0.00  0.00    +0.271 C 
ATOM     11  O   UNL     1      -3.324  -2.230  -4.263  0.00  0.00    -0.268 OA
ATOM     12 BR   UNL     1     -10.191  -5.106  -2.393  0.00  0.00    -0.050 Br
ENDROOT
BRANCH   1  15
ATOM     13  C   UNL     1      -2.826  -2.559  -0.234  0.00  0.00    +0.218 C 
ATOM     14  O   UNL     1      -3.498  -2.940   0.701  0.00  0.00    -0.276 OA
ATOM     15  N   UNL     1      -3.329  -2.592  -1.484  0.00  0.00    -0.208 N 
ATOM     16  H   UNL     1      -2.791  -2.287  -2.231  0.00  0.00    +0.177 HD
BRANCH  13  17
ATOM     17  C   UNL     1      -1.428  -2.048   0.003  0.00  0.00    +0.015 C 
BRANCH  17  18
ATOM     18  N   UNL     1      -0.940  -2.538   1.299  0.00  0.00    +0.386 N 
ATOM     19  H   UNL     1       0.025  -2.268   1.419  0.00  0.00    -0.089 HD
ATOM     20  H   UNL     1      -1.496  -2.138   2.040  0.00  0.00    -0.089 HD
ATOM     21  H   UNL     1      -1.014  -3.544   1.327  0.00  0.00    -0.089 HD
ENDBRANCH  17  18
BRANCH  17  22
ATOM     22  C   UNL     1      -1.439  -0.518   0.007  0.00  0.00    -0.004 C 
BRANCH  22  24
ATOM     23  C   UNL     1       0.784  -0.381  -1.125  0.00  0.00    +0.007 C 
ATOM     24  C   UNL     1      -0.005   0.002   0.129  0.00  0.00    -0.018 C 
ATOM     25  C   UNL     1      -0.025   1.525   0.274  0.00  0.00    +0.007 C 
ENDBRANCH  22  24
ENDBRANCH  17  22
ENDBRANCH  13  17
ENDBRANCH   1  15
BRANCH   9  26
ATOM     26  C   UNL     1      -5.011  -2.593  -6.587  0.00  0.00    +0.118 C 
BRANCH  26  27
ATOM     27  C   UNL     1      -5.418  -1.153  -6.906  0.00  0.00    +0.054 C 
BRANCH  27  28
ATOM     28  C   UNL     1      -5.112  -0.853  -8.351  0.00  0.00    -0.046 A 
ATOM     29  C   UNL     1      -3.877  -0.342  -8.704  0.00  0.00    +0.004 A 
ATOM     30  C   UNL     1      -3.596  -0.067 -10.029  0.00  0.00    +0.000 A 
ATOM     31  C   UNL     1      -4.549  -0.302 -11.001  0.00  0.00    +0.000 A 
ATOM     32  C   UNL     1      -5.784  -0.814 -10.648  0.00  0.00    +0.000 A 
ATOM     33  C   UNL     1      -6.064  -1.093  -9.324  0.00  0.00    +0.004 A 
ENDBRANCH  27  28
ENDBRANCH  26  27
ENDBRANCH   9  26
TORSDOF 8
