REMARK  Name = ZINC39898395
REMARK  13 active torsions:
REMARK  status: ('A' for Active; 'I' for Inactive)
REMARK    1  A    between atoms: C_1  and  C_2
REMARK    2  A    between atoms: C_2  and  C_3
REMARK    3  A    between atoms: C_3  and  N_4
REMARK    4  A    between atoms: C_5  and  C_23
REMARK    5  A    between atoms: C_8  and  C_15
REMARK    6  A    between atoms: C_20  and  O_21
REMARK    7  A    between atoms: C_26  and  O_32
REMARK    8  A    between atoms: C_27  and  O_29
REMARK    9  A    between atoms: O_29  and  C_30
REMARK   10  A    between atoms: C_30  and  C_31
REMARK   11  A    between atoms: O_32  and  C_33
REMARK   12  A    between atoms: C_33  and  C_34
REMARK   13  A    between atoms: C_34  and  C_35
REMARK                            x       y       z     vdW  Elec       q    Type
REMARK                         _______ _______ _______ _____ _____    ______ ____
ROOT
ATOM      1  N   UNL     1      -1.539  -2.285   0.246  0.00  0.00    -0.285 N 
ATOM      2  C   UNL     1      -1.491  -2.762  -1.142  0.00  0.00    +0.141 C 
ATOM      3  C   UNL     1      -1.225  -4.240  -1.065  0.00  0.00    +0.035 A 
ATOM      4  C   UNL     1      -1.028  -5.441  -1.756  0.00  0.00    +0.102 A 
ATOM      5  N   UNL     1      -0.836  -6.386  -0.857  0.00  0.00    -0.173 NA
ATOM      6  N   UNL     1      -0.891  -5.902   0.332  0.00  0.00    -0.272 N 
ATOM      7  H   UNL     1      -0.778  -6.414   1.148  0.00  0.00    +0.189 HD
ATOM      8  C   UNL     1      -1.133  -4.559   0.276  0.00  0.00    +0.126 A 
ATOM      9  C   UNL     1      -1.325  -3.334   1.060  0.00  0.00    +0.265 C 
ATOM     10  O   UNL     1      -1.297  -3.276   2.275  0.00  0.00    -0.268 OA
ENDROOT
BRANCH   4  11
ATOM     11  C   UNL     1      -1.036  -5.618  -3.230  0.00  0.00    +0.045 A 
ATOM     12  C   UNL     1      -1.107  -4.508  -4.067  0.00  0.00    +0.033 A 
ATOM     13  C   UNL     1      -1.113  -4.677  -5.438  0.00  0.00    +0.042 A 
ATOM     14  C   UNL     1      -1.049  -5.949  -5.982  0.00  0.00    +0.023 A 
ATOM     15  C   UNL     1      -0.978  -7.057  -5.160  0.00  0.00    +0.047 A 
ATOM     16  C   UNL     1      -0.965  -6.899  -3.783  0.00  0.00    +0.126 A 
ATOM     17 CL   UNL     1      -1.202  -3.292  -6.481  0.00  0.00    -0.084 Cl
BRANCH  16  18
ATOM     18  O   UNL     1      -0.890  -7.988  -2.973  0.00  0.00    -0.506 OA
ATOM     19  H   UNL     1      -1.750  -8.356  -2.728  0.00  0.00    +0.292 HD
ENDBRANCH  16  18
ENDBRANCH   4  11
BRANCH   2  20
ATOM     20  C   UNL     1      -2.809  -2.506  -1.825  0.00  0.00    -0.019 A 
ATOM     21  C   UNL     1      -2.834  -1.937  -3.085  0.00  0.00    +0.009 A 
ATOM     22  C   UNL     1      -4.041  -1.700  -3.716  0.00  0.00    +0.050 A 
ATOM     23  C   UNL     1      -5.229  -2.033  -3.086  0.00  0.00    +0.162 A 
ATOM     24  C   UNL     1      -5.204  -2.606  -1.818  0.00  0.00    +0.162 A 
ATOM     25  C   UNL     1      -3.991  -2.845  -1.193  0.00  0.00    +0.055 A 
BRANCH  24  26
ATOM     26  O   UNL     1      -6.368  -2.934  -1.195  0.00  0.00    -0.489 OA
BRANCH  26  27
ATOM     27  C   UNL     1      -6.272  -3.414   0.147  0.00  0.00    +0.226 C 
ATOM     28  C   UNL     1      -7.678  -3.617   0.717  0.00  0.00    +0.048 C 
ENDBRANCH  26  27
ENDBRANCH  24  26
BRANCH  23  29
ATOM     29  O   UNL     1      -6.418  -1.800  -3.705  0.00  0.00    -0.488 OA
BRANCH  29  30
ATOM     30  C   UNL     1      -6.367  -1.209  -5.005  0.00  0.00    +0.229 C 
BRANCH  30  31
ATOM     31  C   UNL     1      -7.789  -1.025  -5.538  0.00  0.00    +0.038 C 
ATOM     32  C   UNL     1      -7.735  -0.392  -6.930  0.00  0.00    +0.007 C 
ENDBRANCH  30  31
ENDBRANCH  29  30
ENDBRANCH  23  29
ENDBRANCH   2  20
BRANCH   1  33
ATOM     33  C   UNL     1      -1.775  -0.903   0.671  0.00  0.00    +0.109 C 
BRANCH  33  35
ATOM     34  C   UNL     1      -0.684   1.278   1.218  0.00  0.00    +0.005 C 
ATOM     35  C   UNL     1      -0.438  -0.166   0.774  0.00  0.00    +0.016 C 
ENDBRANCH  33  35
ENDBRANCH   1  33
TORSDOF 10
