REMARK  Name = ZINC39666546
REMARK  12 active torsions:
REMARK  status: ('A' for Active; 'I' for Inactive)
REMARK    1  A    between atoms: C_1  and  C_2
REMARK    2  A    between atoms: C_2  and  C_3
REMARK    3  A    between atoms: C_3  and  C_4
REMARK    4  A    between atoms: C_4  and  C_5
REMARK    5  A    between atoms: C_5  and  C_6
REMARK    6  A    between atoms: C_6  and  C_7
REMARK    7  A    between atoms: C_11  and  C_20
REMARK    8  A    between atoms: N_22  and  C_23
REMARK    9  A    between atoms: C_23  and  C_24
REMARK   10  A    between atoms: C_24  and  C_26
REMARK   11  A    between atoms: C_24  and  O_27
REMARK   12  A    between atoms: O_27  and  C_28
REMARK                            x       y       z     vdW  Elec       q    Type
REMARK                         _______ _______ _______ _____ _____    ______ ____
ROOT
ATOM      1  C   UNL     1       2.188  -4.524  -3.798  0.00  0.00    +0.216 C 
ATOM      2  O   UNL     1       2.621  -3.720  -4.597  0.00  0.00    -0.276 OA
ATOM      3  N   UNL     1       2.329  -5.845  -4.027  0.00  0.00    -0.300 N 
ATOM      4  C   UNL     1       1.865  -6.968  -3.179  0.00  0.00    +0.121 C 
ATOM      5  C   UNL     1       1.352  -8.027  -4.181  0.00  0.00    +0.100 C 
ATOM      6  C   UNL     1       2.091  -7.716  -5.493  0.00  0.00    -0.004 C 
ATOM      7  C   UNL     1       2.979  -6.502  -5.187  0.00  0.00    +0.115 C 
ATOM      8  C   UNL     1       1.093  -7.368  -6.593  0.00  0.00    -0.010 C 
ATOM      9  C   UNL     1       1.848  -7.119  -7.902  0.00  0.00    -0.082 C 
ATOM     10  N   UNL     1       2.608  -8.321  -8.266  0.00  0.00    +0.379 N 
ATOM     11  C   UNL     1       3.629  -8.596  -7.248  0.00  0.00    -0.082 C 
ATOM     12  C   UNL     1       2.949  -8.907  -5.911  0.00  0.00    -0.010 C 
ATOM     13  H   UNL     1       1.980  -9.108  -8.331  0.00  0.00    -0.086 HD
ATOM     14  H   UNL     1       3.055  -8.177  -9.159  0.00  0.00    -0.086 HD
ENDROOT
BRANCH   5  15
ATOM     15  C   UNL     1      -0.137  -7.891  -4.370  0.00  0.00    +0.218 C 
ATOM     16  O   UNL     1      -0.679  -6.825  -4.172  0.00  0.00    -0.275 OA
ATOM     17  N   UNL     1      -0.866  -8.956  -4.760  0.00  0.00    -0.312 N 
ATOM     18  H   UNL     1      -0.433  -9.809  -4.918  0.00  0.00    +0.149 HD
BRANCH  17  19
ATOM     19  C   UNL     1      -2.314  -8.824  -4.944  0.00  0.00    +0.148 C 
BRANCH  19  20
ATOM     20  C   UNL     1      -2.896 -10.169  -5.384  0.00  0.00    +0.187 C 
ATOM     21  C   UNL     1      -4.408 -10.031  -5.576  0.00  0.00    +0.053 C 
BRANCH  20  22
ATOM     22  O   UNL     1      -2.294 -10.568  -6.617  0.00  0.00    -0.486 OA
BRANCH  22  23
ATOM     23  C   UNL     1      -2.274 -11.899  -6.891  0.00  0.00    +0.139 A 
ATOM     24  C   UNL     1      -2.922 -12.791  -6.051  0.00  0.00    +0.047 A 
ATOM     25  C   UNL     1      -2.901 -14.144  -6.332  0.00  0.00    +0.004 A 
ATOM     26  C   UNL     1      -2.233 -14.608  -7.451  0.00  0.00    +0.002 A 
ATOM     27  C   UNL     1      -1.586 -13.722  -8.290  0.00  0.00    +0.023 A 
ATOM     28  C   UNL     1      -1.609 -12.367  -8.017  0.00  0.00    +0.083 A 
ATOM     29 CL   UNL     1      -0.802 -11.252  -9.076  0.00  0.00    -0.080 Cl
ENDBRANCH  22  23
ENDBRANCH  20  22
ENDBRANCH  19  20
ENDBRANCH  17  19
ENDBRANCH   5  15
BRANCH   1  30
ATOM     30  C   UNL     1       1.492  -4.046  -2.550  0.00  0.00    +0.096 C 
BRANCH  30  31
ATOM     31  C   UNL     1       1.466  -2.516  -2.535  0.00  0.00    +0.009 C 
BRANCH  31  32
ATOM     32  C   UNL     1       0.759  -2.031  -1.268  0.00  0.00    +0.000 C 
BRANCH  32  33
ATOM     33  C   UNL     1       0.733  -0.501  -1.253  0.00  0.00    -0.000 C 
BRANCH  33  35
ATOM     34  C   UNL     1       0.000   1.514   0.030  0.00  0.00    +0.004 C 
ATOM     35  C   UNL     1       0.026  -0.016   0.014  0.00  0.00    -0.003 C 
ENDBRANCH  33  35
ENDBRANCH  32  33
ENDBRANCH  31  32
ENDBRANCH  30  31
ENDBRANCH   1  30
TORSDOF 10
