REMARK  Name = ZINC34750002
REMARK  8 active torsions:
REMARK  status: ('A' for Active; 'I' for Inactive)
REMARK    1  A    between atoms: C_1  and  C_2
REMARK    2  A    between atoms: C_2  and  C_34
REMARK    3  A    between atoms: C_9  and  N_17
REMARK    4  A    between atoms: C_11  and  S_13
REMARK    5  A    between atoms: S_13  and  C_14
REMARK    6  A    between atoms: C_14  and  C_15
REMARK    7  A    between atoms: N_20  and  C_23
REMARK    8  A    between atoms: C_23  and  C_24
REMARK                            x       y       z     vdW  Elec       q    Type
REMARK                         _______ _______ _______ _____ _____    ______ ____
ROOT
ATOM      1  C   UNL     1      -6.383   3.459  -1.716  0.00  0.00    +0.041 C 
ATOM      2  C   UNL     1      -4.856   3.384  -1.766  0.00  0.00    +0.068 C 
ATOM      3  C   UNL     1      -4.395   2.038  -1.199  0.00  0.00    +0.071 C 
ATOM      4  C   UNL     1      -4.667   2.037   0.304  0.00  0.00    -0.020 A 
ATOM      5  C   UNL     1      -4.878   3.213   0.941  0.00  0.00    +0.021 A 
ATOM      6  S   UNL     1      -5.149   2.781   2.639  0.00  0.00    -0.071 S 
ATOM      7  C   UNL     1      -4.981   1.030   2.496  0.00  0.00    +0.115 A 
ATOM      8  C   UNL     1      -4.716   0.835   1.116  0.00  0.00    +0.051 A 
ATOM      9  C   UNL     1      -4.528  -0.508   0.679  0.00  0.00    +0.134 A 
ATOM     10  N   UNL     1      -4.622  -1.446   1.619  0.00  0.00    -0.206 NA
ATOM     11  C   UNL     1      -4.874  -1.191   2.894  0.00  0.00    +0.191 A 
ATOM     12  N   UNL     1      -5.059   0.044   3.367  0.00  0.00    -0.215 NA
ATOM     13  C   UNL     1      -4.874   4.572   0.315  0.00  0.00    +0.203 C 
ATOM     14  O   UNL     1      -4.303   4.456  -0.997  0.00  0.00    -0.368 OA
ATOM     15  C   UNL     1      -4.389   3.507  -3.217  0.00  0.00    +0.041 C 
ENDROOT
BRANCH   9  16
ATOM     16  N   UNL     1      -4.264  -0.820  -0.642  0.00  0.00    -0.318 N 
ATOM     17  C   UNL     1      -2.891  -0.778  -1.169  0.00  0.00    +0.088 C 
ATOM     18  C   UNL     1      -2.609  -2.098  -1.895  0.00  0.00    -0.059 C 
ATOM     19  N   UNL     1      -3.643  -2.326  -2.913  0.00  0.00    +0.387 N 
ATOM     20  C   UNL     1      -4.950  -2.502  -2.267  0.00  0.00    -0.059 C 
ATOM     21  C   UNL     1      -5.347  -1.208  -1.559  0.00  0.00    +0.088 C 
ATOM     22  H   UNL     1      -3.680  -1.534  -3.536  0.00  0.00    -0.081 HD
BRANCH  19  23
ATOM     23  C   UNL     1      -3.312  -3.534  -3.681  0.00  0.00    +0.019 C 
BRANCH  23  24
ATOM     24  C   UNL     1      -4.303  -3.702  -4.803  0.00  0.00    +0.199 C 
ATOM     25  O   UNL     1      -5.197  -2.896  -4.949  0.00  0.00    -0.278 OA
ATOM     26  N   UNL     1      -4.196  -4.749  -5.646  0.00  0.00    -0.299 N 
ATOM     27  C   UNL     1      -3.123  -5.744  -5.485  0.00  0.00    +0.136 C 
ATOM     28  C   UNL     1      -3.754  -7.141  -5.495  0.00  0.00    +0.179 C 
ATOM     29  O   UNL     1      -4.578  -7.277  -6.655  0.00  0.00    -0.377 OA
ATOM     30  C   UNL     1      -5.680  -6.368  -6.700  0.00  0.00    +0.179 C 
ATOM     31  C   UNL     1      -5.152  -4.935  -6.749  0.00  0.00    +0.136 C 
ENDBRANCH  23  24
ENDBRANCH  19  23
ENDBRANCH   9  16
BRANCH  11  32
ATOM     32  S   UNL     1      -4.968  -2.544   4.019  0.00  0.00    -0.082 S 
BRANCH  32  33
ATOM     33  C   UNL     1      -5.320  -1.762   5.618  0.00  0.00    +0.104 C 
BRANCH  33  34
ATOM     34  C   UNL     1      -5.427  -2.822   6.683  0.00  0.00    -0.023 C 
ATOM     35  C   UNL     1      -4.552  -2.863   7.657  0.00  0.00    +0.005 C 
ENDBRANCH  33  34
ENDBRANCH  32  33
ENDBRANCH  11  32
TORSDOF 6
