REMARK  Name = ZINC38918439
REMARK  13 active torsions:
REMARK  status: ('A' for Active; 'I' for Inactive)
REMARK    1  A    between atoms: C_1  and  C_2
REMARK    2  A    between atoms: C_7  and  C_14
REMARK    3  A    between atoms: C_14  and  N_15
REMARK    4  A    between atoms: N_15  and  C_16
REMARK    5  A    between atoms: C_19  and  O_22
REMARK    6  A    between atoms: O_22  and  C_23
REMARK    7  A    between atoms: C_24  and  C_26
REMARK    8  A    between atoms: C_28  and  O_36
REMARK    9  A    between atoms: C_29  and  O_34
REMARK   10  A    between atoms: C_30  and  O_32
REMARK   11  A    between atoms: O_32  and  C_33
REMARK   12  A    between atoms: O_34  and  C_35
REMARK   13  A    between atoms: O_36  and  C_37
REMARK                            x       y       z     vdW  Elec       q    Type
REMARK                         _______ _______ _______ _____ _____    ______ ____
ROOT
ATOM      1  N   UNL     1       0.656  -5.814   3.878  0.00  0.00    -0.266 N 
ATOM      2  C   UNL     1       1.953  -5.524   4.104  0.00  0.00    +0.251 C 
ATOM      3  O   UNL     1       2.465  -5.816   5.168  0.00  0.00    -0.270 OA
ENDROOT
BRANCH   1   4
ATOM      4  C   UNL     1      -0.079  -6.524   4.835  0.00  0.00    +0.037 A 
ATOM      5  C   UNL     1      -0.124  -7.911   4.788  0.00  0.00    +0.027 A 
ATOM      6  C   UNL     1      -0.849  -8.611   5.732  0.00  0.00    +0.047 A 
ATOM      7  C   UNL     1      -1.533  -7.928   6.727  0.00  0.00    +0.120 A 
ATOM      8  C   UNL     1      -1.490  -6.543   6.774  0.00  0.00    +0.047 A 
ATOM      9  C   UNL     1      -0.760  -5.842   5.835  0.00  0.00    +0.027 A 
BRANCH   7  10
ATOM     10  O   UNL     1      -2.248  -8.618   7.656  0.00  0.00    -0.495 OA
ATOM     11  C   UNL     1      -3.016  -7.850   8.585  0.00  0.00    +0.277 C 
ENDBRANCH   7  10
ENDBRANCH   1   4
BRANCH   2  12
ATOM     12  C   UNL     1       2.751  -4.850   3.061  0.00  0.00    +0.044 A 
ATOM     13  C   UNL     1       2.370  -3.590   2.593  0.00  0.00    +0.062 A 
ATOM     14  C   UNL     1       3.120  -2.962   1.616  0.00  0.00    +0.166 A 
ATOM     15  C   UNL     1       4.253  -3.584   1.099  0.00  0.00    +0.204 A 
ATOM     16  C   UNL     1       4.635  -4.839   1.564  0.00  0.00    +0.166 A 
ATOM     17  C   UNL     1       3.892  -5.469   2.545  0.00  0.00    +0.062 A 
BRANCH  16  18
ATOM     18  O   UNL     1       5.742  -5.444   1.056  0.00  0.00    -0.491 OA
ATOM     19  C   UNL     1       6.075  -6.732   1.579  0.00  0.00    +0.277 C 
ENDBRANCH  16  18
BRANCH  15  20
ATOM     20  O   UNL     1       4.988  -2.964   0.138  0.00  0.00    -0.488 OA
ATOM     21  C   UNL     1       6.051  -2.118   0.580  0.00  0.00    +0.277 C 
ENDBRANCH  15  20
BRANCH  14  22
ATOM     22  O   UNL     1       2.749  -1.736   1.159  0.00  0.00    -0.491 OA
ATOM     23  C   UNL     1       1.452  -1.268   1.535  0.00  0.00    +0.277 C 
ENDBRANCH  14  22
ENDBRANCH   2  12
BRANCH   1  24
ATOM     24  C   UNL     1       0.017  -5.387   2.631  0.00  0.00    +0.131 C 
BRANCH  24  31
ATOM     25  C   UNL     1      -5.731  -4.782  -2.144  0.00  0.00    +0.044 C 
ATOM     26  C   UNL     1      -4.657  -5.263  -1.202  0.00  0.00    -0.049 A 
ATOM     27  C   UNL     1      -3.936  -6.409  -1.539  0.00  0.00    +0.004 A 
ATOM     28  C   UNL     1      -2.956  -6.891  -0.731  0.00  0.00    +0.010 A 
ATOM     29  C   UNL     1      -2.659  -6.185   0.516  0.00  0.00    -0.007 A 
ATOM     30  C   UNL     1      -1.685  -6.631   1.358  0.00  0.00    -0.003 C 
ATOM     31  C   UNL     1      -1.445  -5.838   2.628  0.00  0.00    +0.116 C 
ATOM     32  C   UNL     1      -2.307  -4.616   2.857  0.00  0.00    +0.226 C 
ATOM     33  O   UNL     1      -2.157  -3.943   3.858  0.00  0.00    -0.275 OA
ATOM     34  N   UNL     1      -3.223  -4.283   1.963  0.00  0.00    -0.284 N 
ATOM     35  C   UNL     1      -3.437  -4.978   0.846  0.00  0.00    +0.041 A 
ATOM     36  C   UNL     1      -4.427  -4.561  -0.062  0.00  0.00    +0.027 A 
ATOM     37  H   UNL     1      -3.765  -3.496   2.129  0.00  0.00    +0.155 HD
ENDBRANCH  24  31
ENDBRANCH   1  24
TORSDOF 8
