REMARK  Name = ZINC55758048
REMARK  9 active torsions:
REMARK  status: ('A' for Active; 'I' for Inactive)
REMARK    1  A    between atoms: C_1  and  C_2
REMARK    2  A    between atoms: N_11  and  C_15
REMARK    3  A    between atoms: C_15  and  C_16
REMARK    4  A    between atoms: N_18  and  C_19
REMARK    5  A    between atoms: C_19  and  C_21
REMARK    6  A    between atoms: C_19  and  C_22
REMARK    7  A    between atoms: C_22  and  N_23
REMARK    8  A    between atoms: C_25  and  C_32
REMARK    9  A    between atoms: C_28  and  C_31
REMARK                            x       y       z     vdW  Elec       q    Type
REMARK                         _______ _______ _______ _____ _____    ______ ____
ROOT
ATOM      1  C   UNL     1       0.946   0.119   5.562  0.00  0.00    +0.231 C 
ATOM      2  O   UNL     1       1.306  -1.034   5.453  0.00  0.00    -0.274 OA
ATOM      3  N   UNL     1       0.953   0.716   6.770  0.00  0.00    -0.313 N 
ATOM      4  H   UNL     1       0.664   1.638   6.857  0.00  0.00    +0.149 HD
ENDROOT
BRANCH   3   5
ATOM      5  C   UNL     1       1.395  -0.028   7.952  0.00  0.00    +0.053 C 
ATOM      6  C   UNL     1       2.915   0.086   8.087  0.00  0.00    +0.026 C 
BRANCH   5   7
ATOM      7  C   UNL     1       0.727   0.553   9.200  0.00  0.00    -0.057 C 
BRANCH   7   8
ATOM      8  N   UNL     1      -0.731   0.541   9.025  0.00  0.00    +0.381 N 
ATOM      9  C   UNL     1      -1.363   1.234  10.154  0.00  0.00    -0.076 C 
ATOM     10  C   UNL     1      -2.877   1.295   9.937  0.00  0.00    -0.031 C 
ATOM     11  C   UNL     1      -3.430  -0.129   9.836  0.00  0.00    +0.003 C 
ATOM     12  C   UNL     1      -2.711  -0.867   8.703  0.00  0.00    -0.031 C 
ATOM     13  C   UNL     1      -1.204  -0.848   8.966  0.00  0.00    -0.076 C 
ATOM     14  C   UNL     1      -3.202  -2.315   8.644  0.00  0.00    +0.005 C 
ATOM     15  C   UNL     1      -3.533   2.017  11.116  0.00  0.00    +0.005 C 
ATOM     16  H   UNL     1      -0.970   1.013   8.167  0.00  0.00    -0.082 HD
ENDBRANCH   7   8
ENDBRANCH   5   7
ENDBRANCH   3   5
BRANCH   1  17
ATOM     17  C   UNL     1       0.491   0.884   4.346  0.00  0.00    +0.213 C 
BRANCH  17  27
ATOM     18  C   UNL     1      -0.700   0.417   0.077  0.00  0.00    +0.010 C 
ATOM     19  C   UNL     1      -0.721  -1.099   0.276  0.00  0.00    +0.018 C 
ATOM     20  C   UNL     1      -0.137  -1.784  -0.963  0.00  0.00    +0.006 C 
ATOM     21  C   UNL     1      -0.141  -3.300  -0.755  0.00  0.00    +0.000 C 
ATOM     22  C   UNL     1       0.716  -3.652   0.464  0.00  0.00    +0.003 C 
ATOM     23  C   UNL     1       0.135  -2.974   1.707  0.00  0.00    +0.035 C 
ATOM     24  C   UNL     1       0.112  -1.464   1.500  0.00  0.00    +0.115 C 
ATOM     25  C   UNL     1      -0.426  -0.770   2.730  0.00  0.00    +0.247 C 
ATOM     26  O   UNL     1      -1.527  -0.897   3.222  0.00  0.00    -0.273 OA
ATOM     27  N   UNL     1       0.576   0.021   3.165  0.00  0.00    -0.215 N 
ATOM     28  C   UNL     1       1.659  -0.081   2.385  0.00  0.00    +0.310 C 
ATOM     29  O   UNL     1       2.689   0.535   2.574  0.00  0.00    -0.252 OA
ATOM     30  N   UNL     1       1.478  -0.942   1.365  0.00  0.00    -0.285 N 
ATOM     31  H   UNL     1       2.123  -1.173   0.678  0.00  0.00    +0.151 HD
ENDBRANCH  17  27
ENDBRANCH   1  17
TORSDOF 5
