REMARK  Name = ZINC64069873
REMARK  8 active torsions:
REMARK  status: ('A' for Active; 'I' for Inactive)
REMARK    1  A    between atoms: C_1  and  C_2
REMARK    2  A    between atoms: N_4  and  C_5
REMARK    3  A    between atoms: C_5  and  C_7
REMARK    4  A    between atoms: C_5  and  C_17
REMARK    5  A    between atoms: C_7  and  C_8
REMARK    6  A    between atoms: C_26  and  C_32
REMARK    7  A    between atoms: C_32  and  O_34
REMARK    8  A    between atoms: O_34  and  C_35
REMARK                            x       y       z     vdW  Elec       q    Type
REMARK                         _______ _______ _______ _____ _____    ______ ____
ROOT
ATOM      1  C   UNL     1       1.264  -2.626  -0.481  0.00  0.00    +0.236 C 
ATOM      2  O   UNL     1       1.862  -1.893   0.279  0.00  0.00    -0.274 OA
ATOM      3  N   UNL     1       1.712  -3.877  -0.703  0.00  0.00    -0.295 N 
ATOM      4  C   UNL     1       1.007  -4.780  -1.625  0.00  0.00    +0.114 C 
ATOM      5  C   UNL     1       1.922  -5.099  -2.812  0.00  0.00    +0.072 C 
ATOM      6  C   UNL     1       3.301  -5.433  -2.295  0.00  0.00    +0.023 A 
ATOM      7  C   UNL     1       3.746  -5.109  -1.062  0.00  0.00    -0.002 A 
ATOM      8  C   UNL     1       5.105  -5.596  -0.956  0.00  0.00    +0.005 A 
ATOM      9  C   UNL     1       6.051  -5.550   0.069  0.00  0.00    +0.025 A 
ATOM     10  C   UNL     1       7.290  -6.141  -0.196  0.00  0.00    +0.060 A 
ATOM     11  C   UNL     1       7.564  -6.748  -1.427  0.00  0.00    +0.017 A 
ATOM     12  C   UNL     1       6.643  -6.798  -2.439  0.00  0.00    +0.027 A 
ATOM     13  C   UNL     1       5.396  -6.215  -2.201  0.00  0.00    +0.047 A 
ATOM     14  N   UNL     1       4.286  -6.098  -2.980  0.00  0.00    -0.358 N 
ATOM     15  H   UNL     1       4.203  -6.435  -3.886  0.00  0.00    +0.166 HD
ATOM     16  C   UNL     1       2.926  -4.377  -0.033  0.00  0.00    +0.145 C 
ENDROOT
BRANCH  10  17
ATOM     17  C   UNL     1       8.333  -6.125   0.847  0.00  0.00    +0.339 C 
ATOM     18  O   UNL     1       8.110  -5.602   1.921  0.00  0.00    -0.245 OA
BRANCH  17  19
ATOM     19  O   UNL     1       9.533  -6.690   0.609  0.00  0.00    -0.464 OA
ATOM     20  C   UNL     1      10.495  -6.638   1.664  0.00  0.00    +0.280 C 
ENDBRANCH  17  19
ENDBRANCH  10  17
BRANCH   1  21
ATOM     21  C   UNL     1       0.020  -2.136  -1.177  0.00  0.00    +0.163 C 
BRANCH  21  25
ATOM     22  C   UNL     1      -0.018   1.503   0.010  0.00  0.00    +0.109 C 
ATOM     23  C   UNL     1       0.002  -0.004   0.002  0.00  0.00    +0.211 C 
ATOM     24  O   UNL     1       0.020  -0.616   1.049  0.00  0.00    -0.276 OA
ATOM     25  N   UNL     1       0.000  -0.672  -1.169  0.00  0.00    -0.304 N 
ATOM     26  H   UNL     1      -0.015  -0.182  -2.006  0.00  0.00    +0.149 HD
ENDBRANCH  21  25
BRANCH  21  27
ATOM     27  C   UNL     1      -1.215  -2.667  -0.447  0.00  0.00    +0.065 C 
BRANCH  27  28
ATOM     28  C   UNL     1      -2.455  -2.281  -1.211  0.00  0.00    -0.039 C 
ATOM     29  C   UNL     1      -3.119  -3.034  -2.117  0.00  0.00    -0.001 A 
ATOM     30  C   UNL     1      -2.894  -4.386  -2.643  0.00  0.00    +0.010 A 
ATOM     31  C   UNL     1      -3.750  -4.882  -3.566  0.00  0.00    +0.001 A 
ATOM     32  C   UNL     1      -4.843  -4.139  -4.032  0.00  0.00    +0.002 A 
ATOM     33  C   UNL     1      -5.115  -2.891  -3.596  0.00  0.00    +0.026 A 
ATOM     34  C   UNL     1      -4.282  -2.271  -2.625  0.00  0.00    +0.043 A 
ATOM     35  N   UNL     1      -4.334  -1.091  -2.055  0.00  0.00    -0.380 N 
ATOM     36  C   UNL     1      -3.213  -0.976  -1.115  0.00  0.00    +0.144 C 
ATOM     37  H   UNL     1      -5.004  -0.410  -2.223  0.00  0.00    +0.160 HD
ENDBRANCH  27  28
ENDBRANCH  21  27
ENDBRANCH   1  21
TORSDOF 6
