REMARK  Name = ZINC58997616
REMARK  10 active torsions:
REMARK  status: ('A' for Active; 'I' for Inactive)
REMARK    1  A    between atoms: C_1  and  S_2
REMARK    2  A    between atoms: S_2  and  C_3
REMARK    3  A    between atoms: C_8  and  N_9
REMARK    4  A    between atoms: C_10  and  C_12
REMARK    5  A    between atoms: C_12  and  S_13
REMARK    6  A    between atoms: S_13  and  C_14
REMARK    7  A    between atoms: N_19  and  N_20
REMARK    8  A    between atoms: C_21  and  C_22
REMARK    9  A    between atoms: C_24  and  N_29
REMARK   10  A    between atoms: C_27  and  O_28
REMARK                            x       y       z     vdW  Elec       q    Type
REMARK                         _______ _______ _______ _____ _____    ______ ____
ROOT
ATOM      1  C   UNL     1       0.185  -7.911   0.420  0.00  0.00    +0.211 A 
ATOM      2  N   UNL     1       0.091  -9.232   0.518  0.00  0.00    -0.186 NA
ATOM      3  C   UNL     1       1.329  -9.718   0.574  0.00  0.00    +0.232 A 
ATOM      4  N   UNL     1       2.186  -8.649   0.507  0.00  0.00    -0.245 N 
ATOM      5  N   UNL     1       1.478  -7.577   0.409  0.00  0.00    -0.144 NA
ATOM      6  N   UNL     1       1.675 -11.017   0.678  0.00  0.00    -0.205 N 
ATOM      7  H   UNL     1       2.612 -11.268   0.713  0.00  0.00    +0.177 HD
ATOM      8  H   UNL     1       3.155  -8.693   0.527  0.00  0.00    +0.192 HD
ENDROOT
BRANCH   6   9
ATOM      9  N   UNL     1       0.761 -11.926   0.732  0.00  0.00    -0.187 NA
ATOM     10  C   UNL     1       1.103 -13.207   0.835  0.00  0.00    +0.142 C 
BRANCH  10  11
ATOM     11  C   UNL     1       0.107 -14.198   0.893  0.00  0.00    +0.038 A 
ATOM     12  C   UNL     1       0.455 -15.563   1.008  0.00  0.00    +0.045 A 
ATOM     13  C   UNL     1      -0.521 -16.509   1.064  0.00  0.00    +0.127 A 
ATOM     14  C   UNL     1      -1.867 -16.160   1.010  0.00  0.00    +0.036 A 
ATOM     15  C   UNL     1      -2.263 -14.843   0.898  0.00  0.00    +0.048 A 
ATOM     16  C   UNL     1      -1.311 -13.834   0.842  0.00  0.00    +0.126 A 
BRANCH  13  17
ATOM     17  N   UNL     1      -0.144 -17.935   1.184  0.00  0.00    +0.056 N 
ATOM     18  O   UNL     1       1.126 -18.279   1.236  0.00  0.00    -0.126 OA
ATOM     19  O   UNL     1      -1.079 -18.861   1.239  0.00  0.00    -0.126 OA
ENDBRANCH  13  17
BRANCH  16  20
ATOM     20  O   UNL     1      -1.686 -12.538   0.738  0.00  0.00    -0.506 OA
ATOM     21  H   UNL     1      -1.781 -12.229  -0.173  0.00  0.00    +0.292 HD
ENDBRANCH  16  20
ENDBRANCH  10  11
ENDBRANCH   6   9
BRANCH   1  22
ATOM     22  S   UNL     1      -1.169  -6.789   0.313  0.00  0.00    -0.075 S 
BRANCH  22  23
ATOM     23  C   UNL     1      -0.380  -5.160   0.194  0.00  0.00    +0.173 C 
BRANCH  23  25
ATOM     24  N   UNL     1      -1.087  -2.797  -0.002  0.00  0.00    -0.284 N 
ATOM     25  C   UNL     1      -1.441  -4.094   0.096  0.00  0.00    +0.228 C 
ATOM     26  O   UNL     1      -2.614  -4.403   0.105  0.00  0.00    -0.275 OA
ATOM     27  H   UNL     1      -0.152  -2.555  -0.090  0.00  0.00    +0.155 HD
BRANCH  24  33
ATOM     28  C   UNL     1      -1.822  -0.559  -0.567  0.00  0.00    +0.029 A 
ATOM     29  C   UNL     1      -2.802   0.424  -0.543  0.00  0.00    +0.016 A 
ATOM     30  C   UNL     1      -4.016   0.175   0.069  0.00  0.00    +0.001 A 
ATOM     31  C   UNL     1      -4.258  -1.052   0.659  0.00  0.00    +0.002 A 
ATOM     32  C   UNL     1      -3.288  -2.037   0.640  0.00  0.00    +0.024 A 
ATOM     33  C   UNL     1      -2.070  -1.798   0.023  0.00  0.00    +0.047 A 
BRANCH  28  35
ATOM     34  C   UNL     1      -0.425   1.460  -1.950  0.00  0.00    +0.090 C 
ATOM     35  S   UNL     1      -0.274  -0.244  -1.347  0.00  0.00    -0.127 S 
ENDBRANCH  28  35
ENDBRANCH  24  33
ENDBRANCH  23  25
ENDBRANCH  22  23
ENDBRANCH   1  22
TORSDOF 9
