REMARK  Name = ZINC33913961
REMARK  10 active torsions:
REMARK  status: ('A' for Active; 'I' for Inactive)
REMARK    1  A    between atoms: C_1  and  C_2
REMARK    2  A    between atoms: C_7  and  C_8
REMARK    3  A    between atoms: N_16  and  C_19
REMARK    4  A    between atoms: C_19  and  C_20
REMARK    5  A    between atoms: C_20  and  N_21
REMARK    6  A    between atoms: N_21  and  C_22
REMARK    7  A    between atoms: C_22  and  C_23
REMARK    8  A    between atoms: C_29  and  C_31
REMARK    9  A    between atoms: C_29  and  C_33
REMARK   10  A    between atoms: C_31  and  O_32
REMARK                            x       y       z     vdW  Elec       q    Type
REMARK                         _______ _______ _______ _____ _____    ______ ____
ROOT
ATOM      1  C   UNL     1       0.058  -0.146   2.604  0.00  0.00    -0.026 C 
ATOM      2  C   UNL     1      -1.355  -0.037   3.169  0.00  0.00    +0.077 C 
ATOM      3  C   UNL     1      -0.947   0.184   4.675  0.00  0.00    +0.088 C 
ATOM      4  C   UNL     1      -2.165   0.712   5.240  0.00  0.00    +0.225 C 
ATOM      5  O   UNL     1      -2.592   0.542   6.362  0.00  0.00    -0.275 OA
ATOM      6  N   UNL     1      -2.734   1.448   4.231  0.00  0.00    -0.244 N 
ATOM      7  C   UNL     1      -2.160   1.212   2.999  0.00  0.00    +0.224 C 
ATOM      8  O   UNL     1      -2.273   1.875   1.991  0.00  0.00    -0.275 OA
ATOM      9  C   UNL     1       0.043  -0.872   4.920  0.00  0.00    +0.071 C 
ATOM     10  N   UNL     1       0.758  -1.024   3.598  0.00  0.00    +0.397 N 
ATOM     11  H   UNL     1       0.708  -1.987   3.299  0.00  0.00    -0.083 HD
ATOM     12  H   UNL     1       1.723  -0.741   3.684  0.00  0.00    -0.083 HD
ENDROOT
BRANCH   1  19
ATOM     13  C   UNL     1       2.463  -0.220   1.005  0.00  0.00    +0.044 C 
ATOM     14  C   UNL     1       1.189  -0.828   0.478  0.00  0.00    -0.049 A 
ATOM     15  C   UNL     1       1.173  -1.426  -0.768  0.00  0.00    +0.003 A 
ATOM     16  C   UNL     1       0.004  -1.984  -1.252  0.00  0.00    +0.000 A 
ATOM     17  C   UNL     1      -1.148  -1.945  -0.489  0.00  0.00    +0.000 A 
ATOM     18  C   UNL     1      -1.131  -1.347   0.757  0.00  0.00    +0.002 A 
ATOM     19  C   UNL     1       0.038  -0.793   1.243  0.00  0.00    -0.058 A 
ENDBRANCH   1  19
BRANCH   9  20
ATOM     20  C   UNL     1      -0.643  -2.151   5.325  0.00  0.00    +0.348 C 
ATOM     21  O   UNL     1      -0.501  -3.158   4.653  0.00  0.00    -0.248 OA
ATOM     22  O   UNL     1      -1.339  -2.179   6.326  0.00  0.00    -0.248 OA
ENDBRANCH   9  20
BRANCH   6  23
ATOM     23  C   UNL     1      -3.847   2.380   4.435  0.00  0.00    +0.097 C 
BRANCH  23  24
ATOM     24  C   UNL     1      -3.296   3.771   4.755  0.00  0.00    -0.062 C 
BRANCH  24  25
ATOM     25  N   UNL     1      -4.411   4.704   4.960  0.00  0.00    +0.383 N 
ATOM     26  H   UNL     1      -4.970   4.749   4.121  0.00  0.00    -0.085 HD
ATOM     27  H   UNL     1      -4.981   4.384   5.728  0.00  0.00    -0.085 HD
BRANCH  25  28
ATOM     28  C   UNL     1      -3.882   6.040   5.266  0.00  0.00    -0.047 C 
BRANCH  28  29
ATOM     29  C   UNL     1      -5.026   6.998   5.476  0.00  0.00    -0.064 A 
ATOM     30  C   UNL     1      -5.546   7.698   4.404  0.00  0.00    +0.002 A 
ATOM     31  C   UNL     1      -6.596   8.576   4.596  0.00  0.00    +0.000 A 
ATOM     32  C   UNL     1      -7.126   8.755   5.861  0.00  0.00    +0.000 A 
ATOM     33  C   UNL     1      -6.606   8.054   6.933  0.00  0.00    +0.000 A 
ATOM     34  C   UNL     1      -5.559   7.172   6.740  0.00  0.00    +0.002 A 
ENDBRANCH  28  29
ENDBRANCH  25  28
ENDBRANCH  24  25
ENDBRANCH  23  24
ENDBRANCH   6  23
BRANCH   9  35
ATOM     35  C   UNL     1       1.036  -0.433   5.998  0.00  0.00    +0.155 C 
BRANCH  35  36
ATOM     36  O   UNL     1       2.056  -1.424   6.138  0.00  0.00    -0.396 OA
ATOM     37  H   UNL     1       2.722  -1.211   6.806  0.00  0.00    +0.209 HD
ENDBRANCH  35  36
ENDBRANCH   9  35
TORSDOF 9
