REMARK  Name = ZINC15733763
REMARK  10 active torsions:
REMARK  status: ('A' for Active; 'I' for Inactive)
REMARK    1  A    between atoms: C_1  and  C_2
REMARK    2  A    between atoms: C_2  and  C_3
REMARK    3  A    between atoms: C_3  and  C_4
REMARK    4  A    between atoms: C_4  and  C_6
REMARK    5  A    between atoms: C_4  and  N_7
REMARK    6  A    between atoms: N_10  and  S_13
REMARK    7  A    between atoms: S_13  and  C_16
REMARK    8  A    between atoms: C_21  and  C_22
REMARK    9  A    between atoms: C_28  and  C_32
REMARK   10  A    between atoms: C_28  and  C_33
REMARK                            x       y       z     vdW  Elec       q    Type
REMARK                         _______ _______ _______ _____ _____    ______ ____
ROOT
ATOM      1  C   UNL     1       2.683  -5.589  -2.591  0.00  0.00    +0.110 A 
ATOM      2  C   UNL     1       2.754  -6.942  -2.337  0.00  0.00    +0.055 A 
ATOM      3  C   UNL     1       3.535  -7.413  -1.288  0.00  0.00    +0.049 A 
ATOM      4  C   UNL     1       4.249  -6.497  -0.493  0.00  0.00    +0.011 A 
ATOM      5  C   UNL     1       4.166  -5.134  -0.762  0.00  0.00    +0.016 A 
ATOM      6  C   UNL     1       3.391  -4.688  -1.811  0.00  0.00    -0.023 A 
ATOM      7  C   UNL     1       3.307  -3.212  -2.106  0.00  0.00    +0.046 C 
ATOM      8  C   UNL     1       4.955  -7.309   0.500  0.00  0.00    +0.046 A 
ATOM      9  C   UNL     1       4.630  -8.632   0.238  0.00  0.00    +0.028 A 
ATOM     10  N   UNL     1       3.795  -8.684  -0.807  0.00  0.00    -0.357 N 
ATOM     11  H   UNL     1       3.422  -9.500  -1.176  0.00  0.00    +0.166 HD
ATOM     12  C   UNL     1       5.192  -9.769   1.060  0.00  0.00    +0.060 C 
ATOM     13  C   UNL     1       6.536  -9.314   1.643  0.00  0.00    -0.023 C 
ATOM     14  C   UNL     1       6.363  -8.025   2.446  0.00  0.00    +0.086 C 
ATOM     15  C   UNL     1       5.819  -6.929   1.555  0.00  0.00    +0.166 C 
ATOM     16  O   UNL     1       6.113  -5.766   1.739  0.00  0.00    -0.292 OA
ATOM     17  C   UNL     1       7.525  -9.069   0.502  0.00  0.00    +0.011 C 
ATOM     18  C   UNL     1       7.085 -10.410   2.559  0.00  0.00    +0.011 C 
ENDROOT
BRANCH   1  19
ATOM     19  S   UNL     1       1.691  -5.002  -3.923  0.00  0.00    +0.061 S 
ATOM     20  O   UNL     1       1.119  -6.147  -4.540  0.00  0.00    -0.153 OA
ATOM     21  O   UNL     1       2.487  -4.068  -4.641  0.00  0.00    -0.153 OA
BRANCH  19  25
ATOM     22  N   UNL     1      -1.130  -2.910  -1.317  0.00  0.00    -0.297 NA
ATOM     23  C   UNL     1       0.169  -2.320  -1.667  0.00  0.00    +0.102 C 
ATOM     24  C   UNL     1       0.518  -2.683  -3.114  0.00  0.00    +0.125 C 
ATOM     25  N   UNL     1       0.439  -4.145  -3.260  0.00  0.00    -0.174 NA
ATOM     26  C   UNL     1      -0.782  -4.825  -2.802  0.00  0.00    +0.125 C 
ATOM     27  C   UNL     1      -1.080  -4.377  -1.368  0.00  0.00    +0.102 C 
BRANCH  22  28
ATOM     28  C   UNL     1      -1.582  -2.444   0.001  0.00  0.00    +0.054 C 
ATOM     29  C   UNL     1      -0.752  -3.122   1.094  0.00  0.00    +0.024 C 
BRANCH  28  30
ATOM     30  C   UNL     1      -3.059  -2.799   0.189  0.00  0.00    +0.018 C 
BRANCH  30  32
ATOM     31  C   UNL     1      -5.358  -2.506  -0.745  0.00  0.00    +0.004 C 
ATOM     32  C   UNL     1      -3.896  -2.070  -0.864  0.00  0.00    -0.002 C 
ENDBRANCH  30  32
ENDBRANCH  28  30
ENDBRANCH  22  28
ENDBRANCH  19  25
ENDBRANCH   1  19
TORSDOF 5
