REMARK  Name = ZINC20731266
REMARK  5 active torsions:
REMARK  status: ('A' for Active; 'I' for Inactive)
REMARK    1  A    between atoms: C_1  and  C_2
REMARK    2  A    between atoms: C_2  and  C_3
REMARK    3  A    between atoms: C_3  and  C_4
REMARK    4  A    between atoms: C_4  and  N_5
REMARK    5  A    between atoms: C_16  and  O_24
REMARK                            x       y       z     vdW  Elec       q    Type
REMARK                         _______ _______ _______ _____ _____    ______ ____
ROOT
ATOM      1  N   UNL     1       1.425  -2.500  -2.470  0.00  0.00    -0.270 N 
ATOM      2  C   UNL     1       0.789  -2.755  -3.673  0.00  0.00    +0.041 A 
ATOM      3  C   UNL     1      -0.561  -2.630  -4.005  0.00  0.00    +0.024 A 
ATOM      4  C   UNL     1      -0.928  -2.957  -5.301  0.00  0.00    +0.002 A 
ATOM      5  C   UNL     1      -0.007  -3.389  -6.234  0.00  0.00    +0.000 A 
ATOM      6  C   UNL     1       1.340  -3.518  -5.916  0.00  0.00    +0.007 A 
ATOM      7  C   UNL     1       1.713  -3.194  -4.629  0.00  0.00    -0.006 A 
ATOM      8  C   UNL     1       3.043  -3.208  -3.947  0.00  0.00    +0.112 C 
ATOM      9  C   UNL     1       2.753  -2.733  -2.541  0.00  0.00    +0.235 C 
ATOM     10  O   UNL     1       3.559  -2.590  -1.647  0.00  0.00    -0.274 OA
ATOM     11  C   UNL     1       3.641  -4.613  -3.924  0.00  0.00    +0.121 C 
ATOM     12  C   UNL     1       4.325  -4.941  -5.220  0.00  0.00    +0.191 C 
ATOM     13  N   UNL     1       4.923  -4.056  -5.960  0.00  0.00    -0.198 NA
ATOM     14  C   UNL     1       4.902  -2.744  -5.587  0.00  0.00    +0.156 A 
ATOM     15  C   UNL     1       4.014  -2.281  -4.621  0.00  0.00    +0.036 A 
ATOM     16  C   UNL     1       4.230  -0.925  -4.464  0.00  0.00    +0.141 A 
ATOM     17  N   UNL     1       5.183  -0.557  -5.289  0.00  0.00    -0.180 NA
ATOM     18  N   UNL     1       5.615  -1.680  -6.013  0.00  0.00    -0.260 N 
ATOM     19  H   UNL     1       6.303  -1.690  -6.697  0.00  0.00    +0.191 HD
ENDROOT
BRANCH  12  20
ATOM     20  O   UNL     1       4.320  -6.223  -5.638  0.00  0.00    -0.495 OA
ATOM     21  H   UNL     1       4.777  -6.364  -6.478  0.00  0.00    +0.293 HD
ENDBRANCH  12  20
BRANCH   1  22
ATOM     22  C   UNL     1       0.739  -2.027  -1.265  0.00  0.00    +0.114 C 
BRANCH  22  23
ATOM     23  C   UNL     1       0.718  -0.497  -1.257  0.00  0.00    +0.019 C 
BRANCH  23  25
ATOM     24  C   UNL     1      -0.019   1.526   0.010  0.00  0.00    +0.004 C 
ATOM     25  C   UNL     1       0.002  -0.004   0.002  0.00  0.00    -0.002 C 
ENDBRANCH  23  25
ENDBRANCH  22  23
ENDBRANCH   1  22
TORSDOF 4
