REMARK  Name = ZINC12803370
REMARK  9 active torsions:
REMARK  status: ('A' for Active; 'I' for Inactive)
REMARK    1  A    between atoms: C_1  and  C_2
REMARK    2  A    between atoms: C_2  and  C_3
REMARK    3  A    between atoms: C_6  and  C_9
REMARK    4  A    between atoms: C_9  and  C_11
REMARK    5  A    between atoms: C_9  and  N_51
REMARK    6  A    between atoms: C_11  and  N_12
REMARK    7  A    between atoms: N_15  and  C_16
REMARK    8  A    between atoms: C_25  and  N_51
REMARK    9  A    between atoms: C_26  and  N_51
REMARK                            x       y       z     vdW  Elec       q    Type
REMARK                         _______ _______ _______ _____ _____    ______ ____
ROOT
ATOM      1  N   UNL     1       6.607  -1.673   4.446  0.00  0.00    -0.300 N 
ATOM      2  C   UNL     1       5.335  -1.501   4.038  0.00  0.00    +0.304 C 
ATOM      3  O   UNL     1       4.623  -2.468   3.841  0.00  0.00    -0.253 OA
ATOM      4  N   UNL     1       4.851  -0.258   3.847  0.00  0.00    -0.269 N 
ATOM      5  H   UNL     1       7.175  -0.903   4.603  0.00  0.00    +0.150 HD
ATOM      6  H   UNL     1       5.432   0.511   3.954  0.00  0.00    +0.156 HD
ENDROOT
BRANCH   4   7
ATOM      7  C   UNL     1       3.506  -0.076   3.494  0.00  0.00    +0.038 A 
ATOM      8  C   UNL     1       2.526  -0.885   4.052  0.00  0.00    +0.027 A 
ATOM      9  C   UNL     1       1.201  -0.707   3.706  0.00  0.00    +0.051 A 
ATOM     10  C   UNL     1       0.846   0.281   2.801  0.00  0.00    +0.166 A 
ATOM     11  C   UNL     1       1.827   1.094   2.239  0.00  0.00    +0.168 A 
ATOM     12  C   UNL     1       3.155   0.914   2.586  0.00  0.00    +0.073 A 
ATOM     13  O   UNL     1       1.227   1.977   1.388  0.00  0.00    -0.453 OA
ATOM     14  C   UNL     1      -0.168   1.967   1.744  0.00  0.00    +0.466 C 
ATOM     15  O   UNL     1      -0.370   0.655   2.302  0.00  0.00    -0.453 OA
ENDBRANCH   4   7
BRANCH   1  16
ATOM     16  C   UNL     1       7.134  -3.025   4.654  0.00  0.00    +0.095 C 
BRANCH  16  17
ATOM     17  C   UNL     1       8.638  -2.951   4.920  0.00  0.00    -0.021 C 
BRANCH  17  21
ATOM     18  C   UNL     1      10.096  -6.835   5.939  0.00  0.00    -0.048 A 
ATOM     19  C   UNL     1       9.634  -5.989   6.929  0.00  0.00    +0.004 A 
ATOM     20  C   UNL     1       9.162  -4.732   6.599  0.00  0.00    +0.002 A 
ATOM     21  C   UNL     1       9.153  -4.321   5.280  0.00  0.00    -0.059 A 
ATOM     22  C   UNL     1       9.610  -5.169   4.289  0.00  0.00    +0.002 A 
ATOM     23  C   UNL     1      10.087  -6.424   4.619  0.00  0.00    +0.004 A 
BRANCH  18  25
ATOM     24  C   UNL     1       9.456  -9.209   6.260  0.00  0.00    +0.009 C 
ATOM     25  C   UNL     1      10.610  -8.205   6.298  0.00  0.00    +0.032 C 
ENDBRANCH  18  25
ENDBRANCH  17  21
BRANCH  17  28
ATOM     26  C   UNL     1       8.624  -2.904   2.500  0.00  0.00    -0.096 C 
ATOM     27  C   UNL     1       9.477  -1.009   3.742  0.00  0.00    -0.096 C 
ATOM     28  N   UNL     1       9.353  -2.481   3.714  0.00  0.00    +0.382 N 
ATOM     29  H   UNL     1      10.292  -2.895   3.701  0.00  0.00    -0.082 HD
ENDBRANCH  17  28
ENDBRANCH  16  17
ENDBRANCH   1  16
TORSDOF 6
