REMARK  Name = ZINC21225340
REMARK  7 active torsions:
REMARK  status: ('A' for Active; 'I' for Inactive)
REMARK    1  A    between atoms: C_1  and  C_2
REMARK    2  A    between atoms: C_2  and  O_3
REMARK    3  A    between atoms: O_3  and  C_4
REMARK    4  A    between atoms: C_7  and  C_12
REMARK    5  A    between atoms: C_9  and  O_10
REMARK    6  A    between atoms: O_10  and  C_11
REMARK    7  A    between atoms: C_17  and  C_27
REMARK                            x       y       z     vdW  Elec       q    Type
REMARK                         _______ _______ _______ _____ _____    ______ ____
ROOT
ATOM      1  C   UNL     1      -2.609   2.599  -1.973  0.00  0.00    +0.032 C 
ATOM      2  C   UNL     1      -2.530   1.461  -0.957  0.00  0.00    +0.059 C 
ATOM      3  C   UNL     1      -1.087   1.253  -0.527  0.00  0.00    +0.017 C 
ATOM      4  C   UNL     1      -0.247   2.298  -0.443  0.00  0.00    +0.037 C 
ATOM      5  C   UNL     1       1.195   2.242   0.003  0.00  0.00    +0.139 C 
ATOM      6  N   UNL     1       1.738   0.904   0.102  0.00  0.00    -0.331 N 
ATOM      7  C   UNL     1       1.241  -0.009   1.031  0.00  0.00    +0.049 A 
ATOM      8  C   UNL     1       2.004  -0.433   2.107  0.00  0.00    +0.025 A 
ATOM      9  C   UNL     1       1.433  -1.256   3.062  0.00  0.00    +0.002 A 
ATOM     10  C   UNL     1       0.114  -1.655   2.945  0.00  0.00    +0.002 A 
ATOM     11  C   UNL     1      -0.644  -1.249   1.861  0.00  0.00    +0.025 A 
ATOM     12  C   UNL     1      -0.070  -0.439   0.896  0.00  0.00    +0.052 A 
ATOM     13  N   UNL     1      -0.761  -0.033  -0.240  0.00  0.00    -0.316 N 
ATOM     14  C   UNL     1      -0.686   3.595  -0.799  0.00  0.00    +0.163 C 
ATOM     15  O   UNL     1       0.091   4.524  -0.696  0.00  0.00    -0.292 OA
ATOM     16  C   UNL     1      -2.073   3.867  -1.297  0.00  0.00    +0.088 C 
ATOM     17  H   UNL     1       2.558   0.593  -0.562  0.00  0.00    +0.147 HD
ATOM     18  H   UNL     1      -1.046  -0.840  -0.931  0.00  0.00    +0.152 HD
ENDROOT
BRANCH   5  19
ATOM     19  C   UNL     1       1.304   2.904   1.352  0.00  0.00    +0.014 A 
ATOM     20  C   UNL     1       2.396   3.702   1.644  0.00  0.00    +0.048 A 
ATOM     21  C   UNL     1       2.493   4.315   2.881  0.00  0.00    +0.020 A 
ATOM     22  C   UNL     1       1.506   4.121   3.828  0.00  0.00    +0.003 A 
ATOM     23  C   UNL     1       0.417   3.320   3.538  0.00  0.00    +0.020 A 
ATOM     24  C   UNL     1       0.316   2.711   2.300  0.00  0.00    +0.048 A 
ATOM     25 CL   UNL     1      -1.052   1.705   1.936  0.00  0.00    -0.083 Cl
ATOM     26 CL   UNL     1       3.641   3.939   0.457  0.00  0.00    -0.083 Cl
ENDBRANCH   5  19
BRANCH   1  30
ATOM     27  C   UNL     1      -6.674   3.201  -3.158  0.00  0.00    +0.162 A 
ATOM     28  C   UNL     1      -6.309   3.341  -1.829  0.00  0.00    +0.050 A 
ATOM     29  C   UNL     1      -4.995   3.140  -1.448  0.00  0.00    +0.008 A 
ATOM     30  C   UNL     1      -4.041   2.811  -2.393  0.00  0.00    -0.040 A 
ATOM     31  C   UNL     1      -4.398   2.671  -3.721  0.00  0.00    +0.053 A 
ATOM     32  C   UNL     1      -5.714   2.865  -4.109  0.00  0.00    +0.162 A 
BRANCH  32  33
ATOM     33  O   UNL     1      -6.068   2.727  -5.414  0.00  0.00    -0.491 OA
ATOM     34  C   UNL     1      -5.030   2.380  -6.334  0.00  0.00    +0.277 C 
ENDBRANCH  32  33
BRANCH  27  35
ATOM     35  O   UNL     1      -7.967   3.393  -3.534  0.00  0.00    -0.489 OA
BRANCH  35  37
ATOM     36  C   UNL     1     -10.290   3.910  -3.114  0.00  0.00    +0.048 C 
ATOM     37  C   UNL     1      -8.897   3.736  -2.505  0.00  0.00    +0.226 C 
ENDBRANCH  35  37
ENDBRANCH  27  35
ENDBRANCH   1  30
TORSDOF 5
