REMARK  Name = ZINC21228621
REMARK  5 active torsions:
REMARK  status: ('A' for Active; 'I' for Inactive)
REMARK    1  A    between atoms: C_1  and  N_2
REMARK    2  A    between atoms: N_2  and  C_3
REMARK    3  A    between atoms: N_2  and  C_4
REMARK    4  A    between atoms: C_7  and  C_10
REMARK    5  A    between atoms: C_15  and  C_25
REMARK                            x       y       z     vdW  Elec       q    Type
REMARK                         _______ _______ _______ _____ _____    ______ ____
ROOT
ATOM      1  C   UNL     1       6.036  -0.656   3.562  0.00  0.00    +0.032 C 
ATOM      2  C   UNL     1       4.935  -1.714   3.579  0.00  0.00    +0.059 C 
ATOM      3  C   UNL     1       4.345  -1.871   2.187  0.00  0.00    +0.017 C 
ATOM      4  C   UNL     1       4.272  -0.818   1.357  0.00  0.00    +0.036 C 
ATOM      5  C   UNL     1       3.690  -0.826  -0.037  0.00  0.00    +0.136 C 
ATOM      6  N   UNL     1       3.424  -2.148  -0.564  0.00  0.00    -0.331 N 
ATOM      7  C   UNL     1       2.472  -2.979   0.016  0.00  0.00    +0.049 A 
ATOM      8  C   UNL     1       1.297  -3.304  -0.642  0.00  0.00    +0.025 A 
ATOM      9  C   UNL     1       0.330  -4.043   0.018  0.00  0.00    +0.002 A 
ATOM     10  C   UNL     1       0.534  -4.455   1.323  0.00  0.00    +0.002 A 
ATOM     11  C   UNL     1       1.716  -4.150   1.975  0.00  0.00    +0.025 A 
ATOM     12  C   UNL     1       2.691  -3.426   1.310  0.00  0.00    +0.052 A 
ATOM     13  N   UNL     1       3.917  -3.124   1.891  0.00  0.00    -0.316 N 
ATOM     14  C   UNL     1       4.770   0.444   1.760  0.00  0.00    +0.163 C 
ATOM     15  O   UNL     1       4.677   1.383   0.994  0.00  0.00    -0.292 OA
ATOM     16  C   UNL     1       5.408   0.664   3.098  0.00  0.00    +0.088 C 
ATOM     17  H   UNL     1       3.980  -2.513  -1.441  0.00  0.00    +0.147 HD
ATOM     18  H   UNL     1       4.559  -3.990   2.111  0.00  0.00    +0.152 HD
ENDROOT
BRANCH   5  19
ATOM     19  C   UNL     1       2.399  -0.049  -0.021  0.00  0.00    -0.015 A 
ATOM     20  C   UNL     1       1.772   0.211   1.159  0.00  0.00    +0.006 A 
ATOM     21  C   UNL     1       0.578   0.927   1.194  0.00  0.00    +0.001 A 
ATOM     22  C   UNL     1       0.003   1.388   0.050  0.00  0.00    +0.008 A 
ATOM     23  C   UNL     1       0.620   1.138  -1.188  0.00  0.00    -0.018 A 
ATOM     24  C   UNL     1       1.835   0.409  -1.223  0.00  0.00    -0.013 A 
ATOM     25  C   UNL     1       2.453   0.160  -2.461  0.00  0.00    +0.009 A 
ATOM     26  C   UNL     1       1.878   0.620  -3.605  0.00  0.00    +0.001 A 
ATOM     27  C   UNL     1       0.683   1.337  -3.570  0.00  0.00    +0.001 A 
ATOM     28  C   UNL     1       0.056   1.597  -2.390  0.00  0.00    +0.008 A 
ENDBRANCH   5  19
BRANCH   1  32
ATOM     29  C   UNL     1       7.658  -0.191   7.489  0.00  0.00    +0.029 A 
ATOM     30  C   UNL     1       8.478  -0.585   6.440  0.00  0.00    +0.023 A 
ATOM     31  C   UNL     1       7.951  -0.735   5.172  0.00  0.00    +0.006 A 
ATOM     32  C   UNL     1       6.608  -0.492   4.947  0.00  0.00    -0.043 A 
ATOM     33  C   UNL     1       5.790  -0.094   5.988  0.00  0.00    +0.006 A 
ATOM     34  C   UNL     1       6.310   0.052   7.260  0.00  0.00    +0.023 A 
BRANCH  29  36
ATOM     35  C   UNL     1       9.610  -0.296   9.013  0.00  0.00    +0.129 C 
ATOM     36  N   UNL     1       8.188  -0.039   8.773  0.00  0.00    -0.336 N 
ATOM     37  C   UNL     1       7.322   0.377   9.878  0.00  0.00    +0.129 C 
ENDBRANCH  29  36
ENDBRANCH   1  32
TORSDOF 3
