REMARK  Name = ZINC12170458
REMARK  12 active torsions:
REMARK  status: ('A' for Active; 'I' for Inactive)
REMARK    1  A    between atoms: C_1  and  C_2
REMARK    2  A    between atoms: C_4  and  O_11
REMARK    3  A    between atoms: C_7  and  C_8
REMARK    4  A    between atoms: C_8  and  C_9
REMARK    5  A    between atoms: C_8  and  C_10
REMARK    6  A    between atoms: O_11  and  C_12
REMARK    7  A    between atoms: C_12  and  C_13
REMARK    8  A    between atoms: C_13  and  C_15
REMARK    9  A    between atoms: C_13  and  O_37
REMARK   10  A    between atoms: C_15  and  N_73
REMARK   11  A    between atoms: C_18  and  C_21
REMARK   12  A    between atoms: C_21  and  N_22
REMARK                            x       y       z     vdW  Elec       q    Type
REMARK                         _______ _______ _______ _____ _____    ______ ____
ROOT
ATOM      1  C   UNL     1       6.283   6.057   2.350  0.00  0.00    -0.078 C 
ATOM      2  C   UNL     1       7.697   6.620   2.516  0.00  0.00    -0.014 C 
ATOM      3  C   UNL     1       7.651   8.145   2.391  0.00  0.00    +0.003 C 
ATOM      4  C   UNL     1       7.050   8.521   1.034  0.00  0.00    -0.014 C 
ATOM      5  C   UNL     1       5.655   7.903   0.911  0.00  0.00    -0.078 C 
ATOM      6  N   UNL     1       5.771   6.433   1.015  0.00  0.00    +0.381 N 
ATOM      7  H   UNL     1       6.428   6.099   0.300  0.00  0.00    -0.082 HD
ENDROOT
BRANCH   6   8
ATOM      8  C   UNL     1       4.453   5.805   0.786  0.00  0.00    -0.044 C 
BRANCH   8   9
ATOM      9  C   UNL     1       4.640   4.291   0.678  0.00  0.00    +0.135 C 
BRANCH   9  10
ATOM     10  O   UNL     1       5.531   3.997  -0.400  0.00  0.00    -0.390 OA
ATOM     11  H   UNL     1       5.222   4.308  -1.262  0.00  0.00    +0.210 HD
ENDBRANCH   9  10
BRANCH   9  12
ATOM     12  C   UNL     1       3.287   3.627   0.417  0.00  0.00    +0.258 C 
BRANCH  12  13
ATOM     13  O   UNL     1       3.442   2.206   0.432  0.00  0.00    -0.489 OA
BRANCH  13  17
ATOM     14  C   UNL     1       1.354  -2.184  -0.004  0.00  0.00    +0.044 C 
ATOM     15  C   UNL     1       1.270  -0.679  -0.005  0.00  0.00    -0.044 A 
ATOM     16  C   UNL     1       2.405   0.076   0.216  0.00  0.00    +0.049 A 
ATOM     17  C   UNL     1       2.327   1.461   0.215  0.00  0.00    +0.121 A 
ATOM     18  C   UNL     1       1.107   2.084  -0.008  0.00  0.00    +0.046 A 
ATOM     19  C   UNL     1      -0.025   1.325  -0.228  0.00  0.00    +0.008 A 
ATOM     20  C   UNL     1       0.056  -0.056  -0.226  0.00  0.00    -0.042 A 
BRANCH  20  21
ATOM     21  C   UNL     1      -1.182  -0.882  -0.466  0.00  0.00    +0.013 C 
ATOM     22  C   UNL     1      -2.163  -0.679   0.691  0.00  0.00    +0.012 C 
ATOM     23  C   UNL     1      -1.841  -0.446  -1.776  0.00  0.00    +0.012 C 
ENDBRANCH  20  21
ENDBRANCH  13  17
ENDBRANCH  12  13
ENDBRANCH   9  12
ENDBRANCH   8   9
ENDBRANCH   6   8
BRANCH   3  24
ATOM     24  C   UNL     1       9.070   8.709   2.495  0.00  0.00    +0.120 C 
BRANCH  24  25
ATOM     25  N   UNL     1       9.600   8.452   3.837  0.00  0.00    -0.234 N 
ATOM     26  C   UNL     1       9.402   9.373   4.799  0.00  0.00    +0.254 C 
ATOM     27  O   UNL     1       8.792  10.394   4.544  0.00  0.00    -0.270 OA
ATOM     28  C   UNL     1       9.915   9.149   6.159  0.00  0.00    +0.046 A 
ATOM     29  C   UNL     1       9.729  10.068   7.181  0.00  0.00    +0.014 A 
ATOM     30  C   UNL     1      10.237   9.813   8.450  0.00  0.00    +0.001 A 
ATOM     31  C   UNL     1      10.926   8.667   8.728  0.00  0.00    +0.008 A 
ATOM     32  C   UNL     1      11.136   7.710   7.720  0.00  0.00    -0.016 A 
ATOM     33  C   UNL     1      10.625   7.957   6.428  0.00  0.00    +0.006 A 
ATOM     34  C   UNL     1      10.819   7.014   5.393  0.00  0.00    +0.046 A 
ATOM     35  C   UNL     1      11.517   5.848   5.668  0.00  0.00    +0.014 A 
ATOM     36  C   UNL     1      12.015   5.616   6.944  0.00  0.00    +0.001 A 
ATOM     37  C   UNL     1      11.837   6.515   7.956  0.00  0.00    +0.008 A 
ATOM     38  C   UNL     1      10.272   7.307   4.060  0.00  0.00    +0.254 C 
ATOM     39  O   UNL     1      10.427   6.511   3.155  0.00  0.00    -0.270 OA
ENDBRANCH  24  25
ENDBRANCH   3  24
TORSDOF 9
