REMARK  Name = ZINC08379280
REMARK  4 active torsions:
REMARK  status: ('A' for Active; 'I' for Inactive)
REMARK    1  A    between atoms: C_6  and  C_7
REMARK    2  A    between atoms: C_10  and  N_11
REMARK    3  A    between atoms: N_11  and  C_12
REMARK    4  A    between atoms: C_15  and  N_18
REMARK                            x       y       z     vdW  Elec       q    Type
REMARK                         _______ _______ _______ _____ _____    ______ ____
ROOT
ATOM      1  C   UNL     1      -1.265  -0.763   0.011  0.00  0.00    +0.232 C 
ATOM      2  N   UNL     1      -1.342  -2.063   0.009  0.00  0.00    -0.204 NA
ATOM      3  C   UNL     1      -2.659  -2.433   0.020  0.00  0.00    +0.165 C 
ATOM      4  C   UNL     1      -3.166  -3.715   0.023  0.00  0.00    +0.107 C 
ATOM      5  C   UNL     1      -3.418  -1.177   0.027  0.00  0.00    +0.366 C 
ATOM      6  O   UNL     1      -4.628  -1.045   0.037  0.00  0.00    -0.243 OA
ATOM      7  O   UNL     1      -2.488  -0.198   0.026  0.00  0.00    -0.402 OA
ENDROOT
BRANCH   1  13
ATOM      8  C   UNL     1      -0.017   1.392   0.010  0.00  0.00    +0.014 A 
ATOM      9  C   UNL     1       1.170   2.095   0.002  0.00  0.00    +0.021 A 
ATOM     10  C   UNL     1       2.378   1.419  -0.013  0.00  0.00    +0.041 A 
ATOM     11  C   UNL     1       2.404   0.034  -0.021  0.00  0.00    +0.021 A 
ATOM     12  C   UNL     1       1.224  -0.680  -0.013  0.00  0.00    +0.014 A 
ATOM     13  C   UNL     1       0.002  -0.004   0.002  0.00  0.00    +0.037 A 
ATOM     14 CL   UNL     1       3.868   2.311  -0.024  0.00  0.00    -0.084 Cl
ENDBRANCH   1  13
BRANCH   4  15
ATOM     15  N   UNL     1      -2.321  -4.782   0.015  0.00  0.00    -0.319 N 
ATOM     16  H   UNL     1      -1.361  -4.640   0.007  0.00  0.00    +0.152 HD
BRANCH  15  17
ATOM     17  C   UNL     1      -2.835  -6.081   0.018  0.00  0.00    +0.031 A 
ATOM     18  C   UNL     1      -4.210  -6.285   0.024  0.00  0.00    +0.025 A 
ATOM     19  C   UNL     1      -4.715  -7.571   0.027  0.00  0.00    +0.034 A 
ATOM     20  C   UNL     1      -3.854  -8.653   0.025  0.00  0.00    +0.126 A 
ATOM     21  C   UNL     1      -2.486  -8.453   0.020  0.00  0.00    +0.034 A 
ATOM     22  C   UNL     1      -1.974  -7.171   0.010  0.00  0.00    +0.025 A 
BRANCH  20  23
ATOM     23  N   UNL     1      -4.399 -10.030   0.029  0.00  0.00    +0.056 N 
ATOM     24  O   UNL     1      -5.595 -10.206   0.034  0.00  0.00    -0.126 OA
ATOM     25  O   UNL     1      -3.648 -10.977   0.027  0.00  0.00    -0.126 OA
ENDBRANCH  20  23
ENDBRANCH  15  17
ENDBRANCH   4  15
TORSDOF 4
