REMARK  Name = ZINC12653549
REMARK  8 active torsions:
REMARK  status: ('A' for Active; 'I' for Inactive)
REMARK    1  A    between atoms: C_1  and  C_2
REMARK    2  A    between atoms: C_2  and  C_3
REMARK    3  A    between atoms: C_3  and  N_4
REMARK    4  A    between atoms: C_14  and  S_15
REMARK    5  A    between atoms: S_15  and  C_16
REMARK    6  A    between atoms: C_16  and  C_17
REMARK    7  A    between atoms: N_19  and  C_20
REMARK    8  A    between atoms: C_23  and  N_27
REMARK                            x       y       z     vdW  Elec       q    Type
REMARK                         _______ _______ _______ _____ _____    ______ ____
ROOT
ATOM      1  S   UNL     1      -2.656  -2.899   0.039  0.00  0.00    -0.078 S 
ENDROOT
BRANCH   1  12
ATOM      2  N   UNL     1       0.036  -2.769   0.034  0.00  0.00    -0.287 N 
ATOM      3  C   UNL     1       1.239  -2.149   0.036  0.00  0.00    +0.262 A 
ATOM      4  O   UNL     1       2.277  -2.785   0.030  0.00  0.00    -0.267 OA
ATOM      5  C   UNL     1       1.246  -0.680   0.045  0.00  0.00    +0.065 A 
ATOM      6  C   UNL     1       2.433   0.051   0.048  0.00  0.00    +0.015 A 
ATOM      7  C   UNL     1       2.382   1.418   0.058  0.00  0.00    +0.001 A 
ATOM      8  C   UNL     1       1.163   2.083   0.065  0.00  0.00    +0.002 A 
ATOM      9  C   UNL     1      -0.015   1.391   0.062  0.00  0.00    +0.028 A 
ATOM     10  C   UNL     1       0.003  -0.007   0.052  0.00  0.00    +0.079 A 
ATOM     11  N   UNL     1      -1.136  -0.729   0.050  0.00  0.00    -0.223 NA
ATOM     12  C   UNL     1      -1.119  -2.039   0.041  0.00  0.00    +0.173 A 
BRANCH   2  13
ATOM     13  C   UNL     1      -0.029  -4.232   0.024  0.00  0.00    +0.127 C 
BRANCH  13  15
ATOM     14  C   UNL     1      -0.117  -6.280   1.453  0.00  0.00    +0.005 C 
ATOM     15  C   UNL     1      -0.049  -4.751   1.463  0.00  0.00    +0.018 C 
ENDBRANCH  13  15
ENDBRANCH   2  13
ENDBRANCH   1  12
BRANCH   1  16
ATOM     16  C   UNL     1      -3.801  -1.497   0.051  0.00  0.00    +0.173 C 
BRANCH  16  17
ATOM     17  C   UNL     1      -5.219  -2.006   0.051  0.00  0.00    +0.228 C 
ATOM     18  O   UNL     1      -5.435  -3.199   0.044  0.00  0.00    -0.275 OA
ATOM     19  N   UNL     1      -6.248  -1.135   0.060  0.00  0.00    -0.284 N 
ATOM     20  H   UNL     1      -6.077  -0.183   0.131  0.00  0.00    +0.155 HD
BRANCH  19  21
ATOM     21  C   UNL     1      -7.563  -1.605  -0.035  0.00  0.00    +0.052 A 
ATOM     22  C   UNL     1      -7.915  -2.812   0.553  0.00  0.00    +0.027 A 
ATOM     23  C   UNL     1      -9.214  -3.273   0.458  0.00  0.00    +0.034 A 
ATOM     24  C   UNL     1     -10.164  -2.533  -0.222  0.00  0.00    +0.128 A 
ATOM     25  C   UNL     1      -9.817  -1.331  -0.810  0.00  0.00    +0.054 A 
ATOM     26  C   UNL     1      -8.521  -0.861  -0.714  0.00  0.00    +0.064 A 
ATOM     27 CL   UNL     1      -8.088   0.653  -1.445  0.00  0.00    -0.082 Cl
BRANCH  24  28
ATOM     28  N   UNL     1     -11.554  -3.030  -0.322  0.00  0.00    +0.056 N 
ATOM     29  O   UNL     1     -11.861  -4.089   0.196  0.00  0.00    -0.126 OA
ATOM     30  O   UNL     1     -12.392  -2.380  -0.921  0.00  0.00    -0.126 OA
ENDBRANCH  24  28
ENDBRANCH  19  21
ENDBRANCH  16  17
ENDBRANCH   1  16
TORSDOF 7
