REMARK  Name = ZINC09666129
REMARK  11 active torsions:
REMARK  status: ('A' for Active; 'I' for Inactive)
REMARK    1  A    between atoms: C_1  and  C_2
REMARK    2  A    between atoms: C_2  and  C_3
REMARK    3  A    between atoms: C_3  and  N_59
REMARK    4  A    between atoms: C_4  and  C_5
REMARK    5  A    between atoms: C_4  and  N_59
REMARK    6  A    between atoms: C_8  and  C_10
REMARK    7  A    between atoms: C_15  and  C_16
REMARK    8  A    between atoms: C_15  and  N_59
REMARK    9  A    between atoms: N_18  and  C_19
REMARK   10  A    between atoms: C_24  and  C_25
REMARK   11  A    between atoms: N_27  and  C_28
REMARK                            x       y       z     vdW  Elec       q    Type
REMARK                         _______ _______ _______ _____ _____    ______ ____
ROOT
ATOM      1  C   UNL     1       6.522   1.674   2.746  0.00  0.00    +0.201 C 
ATOM      2  O   UNL     1       5.703   1.609   3.638  0.00  0.00    -0.278 OA
ATOM      3  N   UNL     1       7.834   1.535   3.025  0.00  0.00    -0.286 N 
ATOM      4  H   UNL     1       8.494   1.659   2.325  0.00  0.00    +0.155 HD
ENDROOT
BRANCH   3   5
ATOM      5  C   UNL     1       8.241   1.212   4.317  0.00  0.00    +0.046 A 
ATOM      6  C   UNL     1       7.524   1.677   5.411  0.00  0.00    +0.024 A 
ATOM      7  C   UNL     1       7.926   1.352   6.691  0.00  0.00    +0.002 A 
ATOM      8  C   UNL     1       9.052   0.571   6.895  0.00  0.00    +0.001 A 
ATOM      9  C   UNL     1       9.780   0.105   5.821  0.00  0.00    +0.015 A 
ATOM     10  C   UNL     1       9.382   0.421   4.520  0.00  0.00    +0.058 A 
BRANCH  10  11
ATOM     11  C   UNL     1      10.156  -0.073   3.366  0.00  0.00    +0.250 C 
ATOM     12  O   UNL     1       9.859   0.275   2.240  0.00  0.00    -0.270 OA
ATOM     13  N   UNL     1      11.194  -0.911   3.561  0.00  0.00    -0.281 N 
ATOM     14  H   UNL     1      11.387  -1.246   4.450  0.00  0.00    +0.155 HD
BRANCH  13  15
ATOM     15  C   UNL     1      11.993  -1.298   2.479  0.00  0.00    +0.034 A 
ATOM     16  C   UNL     1      13.362  -1.457   2.647  0.00  0.00    +0.026 A 
ATOM     17  C   UNL     1      14.148  -1.845   1.580  0.00  0.00    +0.040 A 
ATOM     18  C   UNL     1      13.574  -2.063   0.339  0.00  0.00    +0.124 A 
ATOM     19  C   UNL     1      12.209  -1.900   0.167  0.00  0.00    +0.040 A 
ATOM     20  C   UNL     1      11.419  -1.518   1.233  0.00  0.00    +0.026 A 
ATOM     21  F   UNL     1      14.345  -2.437  -0.705  0.00  0.00    -0.205 F 
ENDBRANCH  13  15
ENDBRANCH  10  11
ENDBRANCH   3   5
BRANCH   1  22
ATOM     22  C   UNL     1       6.074   1.911   1.327  0.00  0.00    +0.020 C 
BRANCH  22  23
ATOM     23  N   UNL     1       4.597   1.922   1.292  0.00  0.00    +0.391 N 
ATOM     24  H   UNL     1       4.248   2.495   2.069  0.00  0.00    -0.080 HD
BRANCH  23  25
ATOM     25  C   UNL     1       4.078   0.546   1.439  0.00  0.00    -0.078 C 
BRANCH  25  27
ATOM     26  C   UNL     1       3.905  -1.719   0.398  0.00  0.00    +0.002 C 
ATOM     27  C   UNL     1       4.499  -0.317   0.248  0.00  0.00    -0.022 C 
ENDBRANCH  25  27
ENDBRANCH  23  25
BRANCH  23  28
ATOM     28  C   UNL     1       4.126   2.505   0.018  0.00  0.00    +0.021 C 
BRANCH  28  29
ATOM     29  C   UNL     1       2.635   2.707   0.097  0.00  0.00    +0.202 A 
ATOM     30  N   UNL     1       2.025   3.771   0.538  0.00  0.00    -0.114 NA
ATOM     31  N   UNL     1       0.752   3.602   0.462  0.00  0.00    -0.107 NA
ATOM     32  C   UNL     1       0.503   2.410  -0.036  0.00  0.00    +0.255 A 
ATOM     33  O   UNL     1       1.693   1.822  -0.276  0.00  0.00    -0.422 OA
BRANCH  32  34
ATOM     34  C   UNL     1      -0.825   1.828  -0.283  0.00  0.00    +0.076 A 
ATOM     35  C   UNL     1      -2.073   2.375  -0.053  0.00  0.00    +0.021 A 
ATOM     36  C   UNL     1      -3.184   1.630  -0.374  0.00  0.00    +0.008 A 
ATOM     37  C   UNL     1      -3.021   0.384  -0.892  0.00  0.00    +0.046 A 
ATOM     38  S   UNL     1      -1.244   0.226  -0.951  0.00  0.00    -0.092 S 
ENDBRANCH  32  34
ENDBRANCH  28  29
ENDBRANCH  23  28
ENDBRANCH  22  23
ENDBRANCH   1  22
TORSDOF 10
