REMARK  Name = ZINC08801664
REMARK  11 active torsions:
REMARK  status: ('A' for Active; 'I' for Inactive)
REMARK    1  A    between atoms: C_1  and  C_2
REMARK    2  A    between atoms: C_4  and  S_11
REMARK    3  A    between atoms: C_6  and  C_10
REMARK    4  A    between atoms: C_7  and  O_8
REMARK    5  A    between atoms: O_8  and  C_9
REMARK    6  A    between atoms: S_11  and  N_14
REMARK    7  A    between atoms: N_14  and  C_15
REMARK    8  A    between atoms: C_15  and  C_16
REMARK    9  A    between atoms: C_16  and  C_18
REMARK   10  A    between atoms: C_16  and  N_67
REMARK   11  A    between atoms: N_26  and  C_27
REMARK                            x       y       z     vdW  Elec       q    Type
REMARK                         _______ _______ _______ _____ _____    ______ ____
ROOT
ATOM      1  C   UNL     1      -0.825   1.968  -1.120  0.00  0.00    -0.022 C 
ENDROOT
BRANCH   1   2
ATOM      2  C   UNL     1      -0.370   1.580  -2.503  0.00  0.00    -0.059 A 
ATOM      3  C   UNL     1       0.973   1.629  -2.831  0.00  0.00    +0.004 A 
ATOM      4  C   UNL     1       1.393   1.273  -4.095  0.00  0.00    +0.023 A 
ATOM      5  C   UNL     1       0.466   0.872  -5.055  0.00  0.00    +0.033 A 
ATOM      6  C   UNL     1      -0.881   0.827  -4.717  0.00  0.00    -0.025 A 
ATOM      7  C   UNL     1      -1.296   1.180  -3.450  0.00  0.00    +0.007 A 
ATOM      8  C   UNL     1      -1.653   0.351  -5.931  0.00  0.00    +0.056 C 
ATOM      9  C   UNL     1      -0.545  -0.249  -6.828  0.00  0.00    +0.109 C 
ATOM     10  N   UNL     1       0.661   0.485  -6.387  0.00  0.00    -0.332 N 
ATOM     11  C   UNL     1       1.863  -0.348  -6.522  0.00  0.00    +0.129 C 
ENDBRANCH   1   2
BRANCH   1  17
ATOM     12  C   UNL     1      -0.110   1.681   1.175  0.00  0.00    -0.078 C 
ATOM     13  C   UNL     1       1.118   1.519   2.075  0.00  0.00    -0.019 C 
ATOM     14  C   UNL     1       1.957   2.799   2.019  0.00  0.00    -0.004 C 
ATOM     15  C   UNL     1       2.354   3.076   0.567  0.00  0.00    -0.019 C 
ATOM     16  C   UNL     1       1.091   3.193  -0.289  0.00  0.00    -0.078 C 
ATOM     17  N   UNL     1       0.340   1.921  -0.212  0.00  0.00    +0.385 N 
ATOM     18  H   UNL     1       0.957   1.153  -0.500  0.00  0.00    -0.081 HD
ENDBRANCH   1  17
BRANCH   1  19
ATOM     19  C   UNL     1      -1.421   3.377  -1.155  0.00  0.00    +0.095 C 
BRANCH  19  20
ATOM     20  N   UNL     1      -1.928   3.725   0.175  0.00  0.00    -0.191 NA
ATOM     21  H   UNL     1      -2.123   3.026   0.818  0.00  0.00    +0.148 HD
BRANCH  20  22
ATOM     22  S   UNL     1      -2.168   5.313   0.579  0.00  0.00    +0.058 S 
ATOM     23  O   UNL     1      -2.683   5.322   1.903  0.00  0.00    -0.153 OA
ATOM     24  O   UNL     1      -0.983   6.008   0.218  0.00  0.00    -0.153 OA
BRANCH  22  28
ATOM     25  C   UNL     1      -7.214   6.221  -0.435  0.00  0.00    +0.047 C 
ATOM     26  C   UNL     1      -5.776   6.319  -0.875  0.00  0.00    -0.007 A 
ATOM     27  C   UNL     1      -4.769   5.838  -0.060  0.00  0.00    +0.035 A 
ATOM     28  C   UNL     1      -3.450   5.928  -0.463  0.00  0.00    +0.106 A 
ATOM     29  C   UNL     1      -3.133   6.503  -1.680  0.00  0.00    +0.035 A 
ATOM     30  C   UNL     1      -4.136   6.981  -2.501  0.00  0.00    -0.007 A 
ATOM     31  C   UNL     1      -5.461   6.892  -2.099  0.00  0.00    +0.126 A 
ATOM     32  C   UNL     1      -3.792   7.603  -3.829  0.00  0.00    +0.047 C 
BRANCH  31  33
ATOM     33  O   UNL     1      -6.450   7.365  -2.903  0.00  0.00    -0.495 OA
ATOM     34  C   UNL     1      -6.829   8.732  -2.728  0.00  0.00    +0.277 C 
ENDBRANCH  31  33
ENDBRANCH  22  28
ENDBRANCH  20  22
ENDBRANCH  19  20
ENDBRANCH   1  19
TORSDOF 7
