REMARK  Name = ZINC19939129
REMARK  5 active torsions:
REMARK  status: ('A' for Active; 'I' for Inactive)
REMARK    1  A    between atoms: C_1  and  C_2
REMARK    2  A    between atoms: C_6  and  N_9
REMARK    3  A    between atoms: C_7  and  C_8
REMARK    4  A    between atoms: N_19  and  C_22
REMARK    5  A    between atoms: C_22  and  C_23
REMARK                            x       y       z     vdW  Elec       q    Type
REMARK                         _______ _______ _______ _____ _____    ______ ____
ROOT
ATOM      1  N   UNL     1       2.236  -3.741   4.568  0.00  0.00    -0.277 N 
ATOM      2  C   UNL     1       2.043  -2.992   3.425  0.00  0.00    +0.116 A 
ATOM      3  C   UNL     1       2.682  -3.358   2.279  0.00  0.00    +0.069 A 
ATOM      4  C   UNL     1       3.511  -4.494   2.288  0.00  0.00    +0.258 A 
ATOM      5  O   UNL     1       4.089  -4.838   1.271  0.00  0.00    -0.267 OA
ATOM      6  N   UNL     1       3.666  -5.200   3.425  0.00  0.00    -0.302 N 
ATOM      7  H   UNL     1       4.310  -6.091   3.435  0.00  0.00    +0.171 HD
ATOM      8  C   UNL     1       3.035  -4.822   4.551  0.00  0.00    +0.166 A 
ATOM      9  S   UNL     1       3.252  -5.733   5.985  0.00  0.00    -0.012 S 
ATOM     10  C   UNL     1       2.524  -2.579   1.000  0.00  0.00    +0.130 C 
ATOM     11  N   UNL     1       1.368  -1.678   1.115  0.00  0.00    -0.279 NA
ATOM     12  C   UNL     1       1.430  -0.958   2.397  0.00  0.00    +0.191 C 
ATOM     13  N   UNL     1       1.206  -1.911   3.487  0.00  0.00    -0.317 N 
ATOM     14  H   UNL     1       0.430  -1.713   4.241  0.00  0.00    +0.149 HD
ENDROOT
BRANCH   1  20
ATOM     15  C   UNL     1      -1.660  -4.059   7.551  0.00  0.00    +0.044 C 
ATOM     16  C   UNL     1      -0.294  -3.511   7.227  0.00  0.00    -0.046 A 
ATOM     17  C   UNL     1       0.327  -2.641   8.105  0.00  0.00    +0.004 A 
ATOM     18  C   UNL     1       1.579  -2.135   7.811  0.00  0.00    +0.002 A 
ATOM     19  C   UNL     1       2.215  -2.498   6.640  0.00  0.00    +0.026 A 
ATOM     20  C   UNL     1       1.594  -3.371   5.757  0.00  0.00    +0.053 A 
ATOM     21  C   UNL     1       0.333  -3.872   6.051  0.00  0.00    -0.024 A 
ATOM     22  C   UNL     1      -0.347  -4.815   5.092  0.00  0.00    +0.046 C 
ENDBRANCH   1  20
BRANCH  11  23
ATOM     23  C   UNL     1       1.317  -0.740  -0.015  0.00  0.00    +0.113 C 
BRANCH  23  24
ATOM     24  C   UNL     1       0.002  -0.004   0.002  0.00  0.00    -0.019 C 
ATOM     25  C   UNL     1      -0.016   1.306   0.009  0.00  0.00    +0.005 C 
ENDBRANCH  23  24
ENDBRANCH  11  23
TORSDOF 3
