REMARK  Name = ZINC09646421
REMARK  10 active torsions:
REMARK  status: ('A' for Active; 'I' for Inactive)
REMARK    1  A    between atoms: C_1  and  C_2
REMARK    2  A    between atoms: C_2  and  C_3
REMARK    3  A    between atoms: C_2  and  C_4
REMARK    4  A    between atoms: C_2  and  C_5
REMARK    5  A    between atoms: C_7  and  N_10
REMARK    6  A    between atoms: C_11  and  C_13
REMARK    7  A    between atoms: C_13  and  S_14
REMARK    8  A    between atoms: S_14  and  C_15
REMARK    9  A    between atoms: C_18  and  C_27
REMARK   10  A    between atoms: N_19  and  C_20
REMARK                            x       y       z     vdW  Elec       q    Type
REMARK                         _______ _______ _______ _____ _____    ______ ____
ROOT
ATOM      1  C   UNL     1      -5.218   0.872   0.032  0.00  0.00    +0.197 A 
ATOM      2  N   UNL     1      -5.130  -0.441   0.024  0.00  0.00    -0.122 NA
ATOM      3  N   UNL     1      -6.304  -0.963   0.028  0.00  0.00    -0.128 NA
ATOM      4  C   UNL     1      -7.216  -0.018   0.037  0.00  0.00    +0.169 A 
ATOM      5  N   UNL     1      -6.548   1.187   0.045  0.00  0.00    -0.270 N 
ENDROOT
BRANCH   5   6
ATOM      6  C   UNL     1      -7.115   2.470   0.061  0.00  0.00    +0.051 A 
ATOM      7  C   UNL     1      -7.856   2.889   1.158  0.00  0.00    +0.029 A 
ATOM      8  C   UNL     1      -8.408   4.154   1.175  0.00  0.00    +0.040 A 
ATOM      9  C   UNL     1      -8.233   5.002   0.094  0.00  0.00    +0.124 A 
ATOM     10  C   UNL     1      -7.499   4.584  -1.004  0.00  0.00    +0.040 A 
ATOM     11  C   UNL     1      -6.940   3.321  -1.022  0.00  0.00    +0.029 A 
ATOM     12  F   UNL     1      -8.778   6.237   0.110  0.00  0.00    -0.205 F 
ENDBRANCH   5   6
BRANCH   4  13
ATOM     13  C   UNL     1      -8.681  -0.211   0.044  0.00  0.00    +0.022 A 
ATOM     14  C   UNL     1      -9.547   0.849  -0.251  0.00  0.00    +0.031 A 
ATOM     15  C   UNL     1     -10.908   0.623  -0.238  0.00  0.00    +0.111 A 
ATOM     16  N   UNL     1     -11.394  -0.568   0.057  0.00  0.00    -0.263 NA
ATOM     17  C   UNL     1     -10.613  -1.592   0.345  0.00  0.00    +0.111 A 
ATOM     18  C   UNL     1      -9.241  -1.457   0.351  0.00  0.00    +0.031 A 
ENDBRANCH   4  13
BRANCH   1  19
ATOM     19  S   UNL     1      -3.874   2.010   0.031  0.00  0.00    -0.076 S 
BRANCH  19  20
ATOM     20  C   UNL     1      -2.482   0.853   0.018  0.00  0.00    +0.173 C 
BRANCH  20  22
ATOM     21  N   UNL     1      -0.011   0.966   0.007  0.00  0.00    -0.254 N 
ATOM     22  C   UNL     1      -1.187   1.624   0.017  0.00  0.00    +0.230 C 
ATOM     23  O   UNL     1      -1.204   2.836   0.023  0.00  0.00    -0.274 OA
ATOM     24  H   UNL     1       0.002  -0.004   0.002  0.00  0.00    +0.158 HD
BRANCH  21  27
ATOM     25  C   UNL     1       3.277   2.293  -0.017  0.00  0.00    +0.091 A 
ATOM     26  C   UNL     1       2.443   1.157  -0.015  0.00  0.00    +0.092 A 
ATOM     27  C   UNL     1       1.181   1.676  -0.000  0.00  0.00    +0.224 A 
ATOM     28  O   UNL     1       1.323   3.011  -0.000  0.00  0.00    -0.339 OA
ATOM     29  N   UNL     1       2.489   3.331  -0.004  0.00  0.00    -0.081 NA
BRANCH  25  31
ATOM     30  C   UNL     1       5.283   1.944  -1.432  0.00  0.00    +0.017 C 
ATOM     31  C   UNL     1       4.784   2.306  -0.032  0.00  0.00    +0.008 C 
ATOM     32  C   UNL     1       5.286   3.701   0.345  0.00  0.00    +0.017 C 
ATOM     33  C   UNL     1       5.312   1.284   0.978  0.00  0.00    +0.017 C 
ENDBRANCH  25  31
ENDBRANCH  21  27
ENDBRANCH  20  22
ENDBRANCH  19  20
ENDBRANCH   1  19
TORSDOF 7
