REMARK  Name = ZINC57505081
REMARK  5 active torsions:
REMARK  status: ('A' for Active; 'I' for Inactive)
REMARK    1  A    between atoms: C_1  and  C_2
REMARK    2  A    between atoms: C_2  and  C_4
REMARK    3  A    between atoms: C_2  and  N_12
REMARK    4  A    between atoms: C_13  and  C_15
REMARK    5  A    between atoms: C_15  and  N_16
REMARK                            x       y       z     vdW  Elec       q    Type
REMARK                         _______ _______ _______ _____ _____    ______ ____
ROOT
ATOM      1  N   UNL     1       0.711  -0.489   1.189  0.00  0.00    -0.307 N 
ATOM      2  C   UNL     1       2.054  -0.600   1.174  0.00  0.00    +0.231 C 
ATOM      3  O   UNL     1       2.676  -0.297   0.177  0.00  0.00    -0.274 OA
ATOM      4  H   UNL     1       0.213  -0.731   1.986  0.00  0.00    +0.149 HD
ENDROOT
BRANCH   1   6
ATOM      5  C   UNL     1      -0.019   1.526   0.010  0.00  0.00    +0.033 C 
ATOM      6  C   UNL     1       0.002  -0.004   0.002  0.00  0.00    +0.103 C 
BRANCH   6   7
ATOM      7  C   UNL     1      -1.412  -0.526   0.013  0.00  0.00    +0.008 A 
ATOM      8  C   UNL     1      -2.014  -0.864   1.210  0.00  0.00    +0.011 A 
ATOM      9  C   UNL     1      -3.311  -1.342   1.221  0.00  0.00    +0.039 A 
ATOM     10  C   UNL     1      -4.008  -1.483   0.033  0.00  0.00    +0.126 A 
ATOM     11  C   UNL     1      -3.405  -1.145  -1.166  0.00  0.00    +0.077 A 
ATOM     12  C   UNL     1      -2.108  -0.661  -1.176  0.00  0.00    +0.131 A 
ATOM     13  F   UNL     1      -1.521  -0.325  -2.345  0.00  0.00    -0.205 F 
ATOM     14  F   UNL     1      -5.275  -1.951   0.044  0.00  0.00    -0.205 F 
ENDBRANCH   6   7
ENDBRANCH   1   6
BRANCH   2  15
ATOM     15  C   UNL     1       2.783  -1.099   2.395  0.00  0.00    +0.213 C 
BRANCH  15  16
ATOM     16  N   UNL     1       4.223  -1.127   2.126  0.00  0.00    -0.215 N 
ATOM     17  C   UNL     1       4.878  -2.188   1.607  0.00  0.00    +0.247 C 
ATOM     18  O   UNL     1       4.407  -3.259   1.287  0.00  0.00    -0.273 OA
ATOM     19  C   UNL     1       6.319  -1.758   1.512  0.00  0.00    +0.113 C 
ATOM     20  C   UNL     1       6.814  -1.806   0.060  0.00  0.00    +0.035 C 
ATOM     21  C   UNL     1       8.296  -2.243   0.183  0.00  0.00    +0.003 C 
ATOM     22  C   UNL     1       8.259  -3.262   1.350  0.00  0.00    +0.003 C 
ATOM     23  C   UNL     1       7.228  -2.672   2.337  0.00  0.00    +0.035 C 
ATOM     24  N   UNL     1       6.327  -0.388   2.028  0.00  0.00    -0.285 N 
ATOM     25  C   UNL     1       5.052  -0.102   2.359  0.00  0.00    +0.310 C 
ATOM     26  O   UNL     1       4.696   0.965   2.821  0.00  0.00    -0.252 OA
ATOM     27  H   UNL     1       7.096   0.198   2.112  0.00  0.00    +0.151 HD
ENDBRANCH  15  16
ENDBRANCH   2  15
TORSDOF 4
