REMARK  Name = ZINC39711110
REMARK  13 active torsions:
REMARK  status: ('A' for Active; 'I' for Inactive)
REMARK    1  A    between atoms: C_1  and  C_2
REMARK    2  A    between atoms: C_5  and  C_41
REMARK    3  A    between atoms: C_10  and  C_14
REMARK    4  A    between atoms: C_14  and  C_16
REMARK    5  A    between atoms: C_14  and  N_26
REMARK    6  A    between atoms: N_21  and  C_22
REMARK    7  A    between atoms: C_22  and  C_23
REMARK    8  A    between atoms: C_22  and  C_24
REMARK    9  A    between atoms: C_22  and  C_25
REMARK   10  A    between atoms: N_26  and  C_27
REMARK   11  A    between atoms: N_26  and  C_35
REMARK   12  A    between atoms: C_27  and  C_28
REMARK   13  A    between atoms: C_35  and  C_36
REMARK                            x       y       z     vdW  Elec       q    Type
REMARK                         _______ _______ _______ _____ _____    ______ ____
ROOT
ATOM      1  C   UNL     1       2.535  -1.725   5.108  0.00  0.00    -0.010 C 
ENDROOT
BRANCH   1  11
ATOM      2  C   UNL     1      -1.011   1.393   3.087  0.00  0.00    +0.044 C 
ATOM      3  C   UNL     1      -0.888   0.069   2.377  0.00  0.00    -0.042 A 
ATOM      4  C   UNL     1      -1.431  -0.108   1.145  0.00  0.00    +0.004 A 
ATOM      5  C   UNL     1      -1.327  -1.326   0.473  0.00  0.00    +0.005 A 
ATOM      6  C   UNL     1      -0.685  -2.401   1.000  0.00  0.00    -0.029 A 
ATOM      7  C   UNL     1      -0.088  -2.324   2.272  0.00  0.00    +0.043 A 
ATOM      8  N   UNL     1       0.538  -3.385   2.779  0.00  0.00    -0.284 N 
ATOM      9  C   UNL     1       1.120  -3.381   3.967  0.00  0.00    +0.223 C 
ATOM     10  O   UNL     1       1.678  -4.381   4.377  0.00  0.00    -0.275 OA
ATOM     11  C   UNL     1       1.089  -2.128   4.813  0.00  0.00    +0.088 C 
ATOM     12  C   UNL     1       0.377  -0.918   4.240  0.00  0.00    -0.006 C 
ATOM     13  C   UNL     1      -0.178  -1.047   3.002  0.00  0.00    -0.004 A 
ATOM     14  C   UNL     1      -0.613  -3.687   0.217  0.00  0.00    +0.045 C 
ATOM     15  H   UNL     1       0.569  -4.199   2.252  0.00  0.00    +0.155 HD
ENDBRANCH   1  11
BRANCH   1  16
ATOM     16  C   UNL     1       3.306  -1.593   3.793  0.00  0.00    +0.183 C 
ATOM     17  N   UNL     1       3.990  -2.856   3.460  0.00  0.00    -0.229 N 
ATOM     18  N   UNL     1       5.358  -2.557   3.438  0.00  0.00    -0.064 NA
ATOM     19  N   UNL     1       5.588  -1.378   3.691  0.00  0.00    -0.061 NA
ATOM     20  N   UNL     1       4.421  -0.637   3.935  0.00  0.00    -0.211 N 
ATOM     21  H   UNL     1       3.578  -3.718   3.291  0.00  0.00    +0.172 HD
BRANCH  20  22
ATOM     22  C   UNL     1       4.326   0.787   4.263  0.00  0.00    +0.047 C 
ATOM     23  C   UNL     1       3.416   0.972   5.478  0.00  0.00    +0.033 C 
ATOM     24  C   UNL     1       5.720   1.331   4.582  0.00  0.00    +0.033 C 
ATOM     25  C   UNL     1       3.744   1.548   3.069  0.00  0.00    +0.033 C 
ENDBRANCH  20  22
ENDBRANCH   1  16
BRANCH   1  26
ATOM     26  N   UNL     1       3.169  -2.752   5.946  0.00  0.00    +0.392 N 
ATOM     27  H   UNL     1       3.082  -3.652   5.498  0.00  0.00    -0.080 HD
BRANCH  26  28
ATOM     28  C   UNL     1       2.506  -2.791   7.256  0.00  0.00    -0.040 C 
BRANCH  28  29
ATOM     29  C   UNL     1       2.831  -1.534   8.021  0.00  0.00    -0.046 A 
ATOM     30  C   UNL     1       3.973  -1.472   8.797  0.00  0.00    +0.003 A 
ATOM     31  C   UNL     1       4.271  -0.319   9.499  0.00  0.00    +0.000 A 
ATOM     32  C   UNL     1       3.426   0.773   9.425  0.00  0.00    +0.001 A 
ATOM     33  C   UNL     1       2.284   0.712   8.650  0.00  0.00    +0.020 A 
ATOM     34  C   UNL     1       1.988  -0.440   7.943  0.00  0.00    +0.042 A 
ATOM     35 CL   UNL     1       0.557  -0.514   6.963  0.00  0.00    -0.083 Cl
ENDBRANCH  28  29
ENDBRANCH  26  28
BRANCH  26  36
ATOM     36  C   UNL     1       4.590  -2.429   6.125  0.00  0.00    -0.002 C 
BRANCH  36  37
ATOM     37  C   UNL     1       5.286  -3.583   6.800  0.00  0.00    +0.089 A 
ATOM     38  C   UNL     1       5.778  -4.673   6.184  0.00  0.00    +0.042 A 
ATOM     39  C   UNL     1       6.342  -5.492   7.190  0.00  0.00    +0.041 A 
ATOM     40  C   UNL     1       6.160  -4.853   8.360  0.00  0.00    +0.195 A 
ATOM     41  O   UNL     1       5.526  -3.694   8.117  0.00  0.00    -0.470 OA
ENDBRANCH  36  37
ENDBRANCH  26  36
ENDBRANCH   1  26
TORSDOF 8
