REMARK  Name = ZINC33923372
REMARK  6 active torsions:
REMARK  status: ('A' for Active; 'I' for Inactive)
REMARK    1  A    between atoms: C_3  and  S_23
REMARK    2  A    between atoms: C_6  and  C_7
REMARK    3  A    between atoms: C_7  and  N_8
REMARK    4  A    between atoms: C_9  and  C_11
REMARK    5  A    between atoms: C_14  and  C_16
REMARK    6  A    between atoms: S_23  and  N_26
REMARK                            x       y       z     vdW  Elec       q    Type
REMARK                         _______ _______ _______ _____ _____    ______ ____
ROOT
ATOM      1  N   UNL     1      -1.726  -1.018  -1.368  0.00  0.00    -0.306 N 
ATOM      2  C   UNL     1      -2.867  -1.694  -1.606  0.00  0.00    +0.263 C 
ATOM      3  O   UNL     1      -3.537  -2.104  -0.677  0.00  0.00    -0.269 OA
ATOM      4  H   UNL     1      -1.192  -0.691  -2.108  0.00  0.00    +0.149 HD
ENDROOT
BRANCH   2   5
ATOM      5  C   UNL     1      -3.302  -1.938  -2.992  0.00  0.00    +0.133 A 
ATOM      6  C   UNL     1      -4.457  -2.616  -3.280  0.00  0.00    +0.080 A 
ATOM      7  S   UNL     1      -4.470  -2.608  -4.960  0.00  0.00    -0.080 S 
ATOM      8  C   UNL     1      -3.045  -1.766  -5.239  0.00  0.00    +0.080 A 
ATOM      9  N   UNL     1      -2.596  -1.506  -4.042  0.00  0.00    -0.239 NA
BRANCH   8  10
ATOM     10  C   UNL     1      -2.431  -1.392  -6.564  0.00  0.00    +0.028 C 
ATOM     11  C   UNL     1      -3.406  -0.509  -7.348  0.00  0.00    +0.006 C 
ATOM     12  C   UNL     1      -2.805  -0.199  -8.723  0.00  0.00    -0.018 C 
ATOM     13  C   UNL     1      -2.500  -1.512  -9.447  0.00  0.00    -0.083 C 
ATOM     14  N   UNL     1      -1.543  -2.299  -8.660  0.00  0.00    +0.379 N 
ATOM     15  C   UNL     1      -2.139  -2.660  -7.368  0.00  0.00    -0.072 C 
ATOM     16  H   UNL     1      -1.303  -3.138  -9.165  0.00  0.00    -0.086 HD
ATOM     17  H   UNL     1      -0.709  -1.753  -8.503  0.00  0.00    -0.086 HD
ENDBRANCH   8  10
ENDBRANCH   2   5
BRANCH   1  18
ATOM     18  C   UNL     1      -1.293  -0.775   0.011  0.00  0.00    +0.140 C 
BRANCH  18  24
ATOM     19  C   UNL     1      -0.017   1.378   0.010  0.00  0.00    +0.007 A 
ATOM     20  C   UNL     1       1.171   2.086   0.002  0.00  0.00    +0.029 A 
ATOM     21  C   UNL     1       2.377   1.411  -0.013  0.00  0.00    +0.105 A 
ATOM     22  C   UNL     1       2.396   0.029  -0.020  0.00  0.00    +0.029 A 
ATOM     23  C   UNL     1       1.208  -0.679  -0.012  0.00  0.00    +0.007 A 
ATOM     24  C   UNL     1       0.002  -0.004   0.002  0.00  0.00    -0.030 A 
BRANCH  21  25
ATOM     25  S   UNL     1       3.891   2.312  -0.024  0.00  0.00    +0.056 S 
ATOM     26  O   UNL     1       4.872   1.453  -0.588  0.00  0.00    -0.153 OA
ATOM     27  O   UNL     1       3.597   3.593  -0.566  0.00  0.00    -0.153 OA
BRANCH  25  28
ATOM     28  N   UNL     1       4.327   2.556   1.555  0.00  0.00    -0.204 NA
ATOM     29  H   UNL     1       3.768   2.215   2.271  0.00  0.00    +0.144 HD
ATOM     30  H   UNL     1       5.142   3.039   1.764  0.00  0.00    +0.144 HD
ENDBRANCH  25  28
ENDBRANCH  21  25
ENDBRANCH  18  24
ENDBRANCH   1  18
TORSDOF 6
