REMARK  Name = ZINC19324436
REMARK  4 active torsions:
REMARK  status: ('A' for Active; 'I' for Inactive)
REMARK    1  A    between atoms: C_1  and  C_2
REMARK    2  A    between atoms: C_6  and  C_24
REMARK    3  A    between atoms: C_8  and  N_9
REMARK    4  A    between atoms: N_13  and  C_16
REMARK                            x       y       z     vdW  Elec       q    Type
REMARK                         _______ _______ _______ _____ _____    ______ ____
ROOT
ATOM      1  N   UNL     1       0.102  -4.826   3.699  0.00  0.00    -0.181 NA
ATOM      2  C   UNL     1       0.113  -6.137   3.574  0.00  0.00    +0.185 C 
ATOM      3  N   UNL     1      -0.029  -6.758   2.347  0.00  0.00    -0.304 N 
ATOM      4  C   UNL     1      -0.873  -7.963   2.300  0.00  0.00    +0.193 C 
ATOM      5  N   UNL     1      -0.470  -8.865   3.390  0.00  0.00    -0.268 NA
ATOM      6  C   UNL     1      -0.567  -8.189   4.694  0.00  0.00    +0.193 C 
ATOM      7  N   UNL     1       0.273  -6.976   4.659  0.00  0.00    -0.304 N 
ATOM      8  H   UNL     1       0.907  -6.776   5.365  0.00  0.00    +0.150 HD
ATOM      9  H   UNL     1       0.409  -6.415   1.552  0.00  0.00    +0.150 HD
ENDROOT
BRANCH   1  17
ATOM     10  C   UNL     1      -0.409   1.746   0.838  0.00  0.00    +0.044 C 
ATOM     11  C   UNL     1      -0.396   0.245   0.704  0.00  0.00    -0.048 A 
ATOM     12  C   UNL     1      -0.548  -0.332  -0.554  0.00  0.00    +0.004 A 
ATOM     13  C   UNL     1      -0.540  -1.686  -0.710  0.00  0.00    +0.012 A 
ATOM     14  C   UNL     1      -0.377  -2.510   0.412  0.00  0.00    +0.022 A 
ATOM     15  C   UNL     1      -0.361  -3.915   0.310  0.00  0.00    +0.051 A 
ATOM     16  N   UNL     1      -0.203  -4.623   1.407  0.00  0.00    -0.215 NA
ATOM     17  C   UNL     1      -0.059  -4.039   2.601  0.00  0.00    +0.254 A 
ATOM     18  N   UNL     1      -0.066  -2.724   2.756  0.00  0.00    -0.211 NA
ATOM     19  C   UNL     1      -0.221  -1.923   1.695  0.00  0.00    +0.077 A 
ATOM     20  C   UNL     1      -0.229  -0.525   1.815  0.00  0.00    +0.032 A 
ATOM     21  C   UNL     1      -0.522  -4.591  -1.027  0.00  0.00    +0.066 C 
ENDBRANCH   1  17
BRANCH   5  22
ATOM     22  C   UNL     1      -1.269 -10.098   3.376  0.00  0.00    +0.060 C 
ATOM     23  C   UNL     1      -0.842 -11.017   4.539  0.00  0.00    +0.019 C 
ATOM     24  C   UNL     1      -0.936 -12.446   3.947  0.00  0.00    +0.002 C 
ATOM     25  C   UNL     1      -0.430 -12.248   2.497  0.00  0.00    +0.002 C 
ATOM     26  C   UNL     1      -1.007 -10.880   2.078  0.00  0.00    +0.019 C 
ENDBRANCH   5  22
TORSDOF 2
