REMARK  Name = ZINC08738003
REMARK  2 active torsions:
REMARK  status: ('A' for Active; 'I' for Inactive)
REMARK    1  A    between atoms: C_4  and  C_7
REMARK    2  A    between atoms: C_7  and  N_8
REMARK                            x       y       z     vdW  Elec       q    Type
REMARK                         _______ _______ _______ _____ _____    ______ ____
ROOT
ATOM      1  N   UNL     1       1.096   2.099   0.003  0.00  0.00    -0.284 N 
ATOM      2  C   UNL     1       2.345   1.581  -0.011  0.00  0.00    +0.263 A 
ATOM      3  O   UNL     1       3.337   2.287  -0.018  0.00  0.00    -0.267 OA
ATOM      4  C   UNL     1       2.436   0.102  -0.018  0.00  0.00    +0.074 A 
ATOM      5  C   UNL     1       3.648  -0.698  -0.030  0.00  0.00    -0.023 A 
ATOM      6  C   UNL     1       3.464  -2.038  -0.035  0.00  0.00    -0.004 A 
ATOM      7  S   UNL     1       1.704  -2.257  -0.024  0.00  0.00    -0.075 S 
ATOM      8  C   UNL     1       1.227  -0.613  -0.011  0.00  0.00    +0.092 A 
ATOM      9  N   UNL     1       0.002  -0.004   0.002  0.00  0.00    -0.329 N 
ATOM     10  H   UNL     1      -0.914  -0.613   0.006  0.00  0.00    +0.168 HD
ATOM     11  C   UNL     1      -0.016   1.351   0.009  0.00  0.00    +0.162 A 
ATOM     12  S   UNL     1      -1.533   2.146   0.021  0.00  0.00    -0.013 S 
ATOM     13  C   UNL     1       4.522  -3.096  -0.046  0.00  0.00    +0.049 C 
ATOM     14  C   UNL     1       5.862  -2.444  -0.411  0.00  0.00    -0.024 C 
ATOM     15  C   UNL     1       5.865  -2.084  -1.897  0.00  0.00    +0.007 C 
ATOM     16  C   UNL     1       5.687  -3.354  -2.732  0.00  0.00    +0.001 C 
ATOM     17  C   UNL     1       6.833  -4.323  -2.436  0.00  0.00    +0.000 C 
ATOM     18  C   UNL     1       6.822  -4.687  -0.950  0.00  0.00    +0.001 C 
ATOM     19  C   UNL     1       7.001  -3.418  -0.114  0.00  0.00    +0.007 C 
ATOM     20  C   UNL     1       6.042  -1.175   0.425  0.00  0.00    +0.012 C 
ATOM     21  C   UNL     1       5.052  -0.103  -0.034  0.00  0.00    +0.037 C 
ENDROOT
BRANCH   1  22
ATOM     22  C   UNL     1       0.951   3.557   0.011  0.00  0.00    +0.162 C 
BRANCH  22  26
ATOM     23  C   UNL     1       0.845   4.957   4.045  0.00  0.00    +0.000 A 
ATOM     24  C   UNL     1       2.054   4.848   3.382  0.00  0.00    +0.000 A 
ATOM     25  C   UNL     1       2.088   4.396   2.077  0.00  0.00    +0.005 A 
ATOM     26  C   UNL     1       0.913   4.050   1.434  0.00  0.00    -0.028 A 
ATOM     27  C   UNL     1      -0.295   4.163   2.095  0.00  0.00    +0.005 A 
ATOM     28  C   UNL     1      -0.329   4.612   3.402  0.00  0.00    +0.000 A 
ENDBRANCH  22  26
ENDBRANCH   1  22
TORSDOF 2
