REMARK  Name = ZINC65622139
REMARK  9 active torsions:
REMARK  status: ('A' for Active; 'I' for Inactive)
REMARK    1  A    between atoms: C_1  and  C_2
REMARK    2  A    between atoms: C_4  and  C_13
REMARK    3  A    between atoms: C_6  and  S_9
REMARK    4  A    between atoms: C_7  and  C_8
REMARK    5  A    between atoms: S_9  and  N_12
REMARK    6  A    between atoms: N_15  and  C_16
REMARK    7  A    between atoms: C_16  and  C_17
REMARK    8  A    between atoms: C_23  and  C_28
REMARK    9  A    between atoms: C_24  and  C_27
REMARK                            x       y       z     vdW  Elec       q    Type
REMARK                         _______ _______ _______ _____ _____    ______ ____
ROOT
ATOM      1  C   UNL     1       0.029  -2.818  -2.485  0.00  0.00    +0.244 C 
ATOM      2  O   UNL     1       0.046  -4.034  -2.487  0.00  0.00    -0.270 OA
ATOM      3  N   UNL     1       0.013  -2.143  -3.651  0.00  0.00    -0.307 N 
ATOM      4  H   UNL     1      -0.000  -1.173  -3.649  0.00  0.00    +0.149 HD
ENDROOT
BRANCH   1   8
ATOM      5  C   UNL     1      -0.018   1.503   0.010  0.00  0.00    +0.044 C 
ATOM      6  C   UNL     1       0.002  -0.004   0.002  0.00  0.00    -0.045 A 
ATOM      7  C   UNL     1       0.006  -0.686  -1.198  0.00  0.00    +0.016 A 
ATOM      8  C   UNL     1       0.025  -2.081  -1.203  0.00  0.00    +0.039 A 
ATOM      9  C   UNL     1       0.041  -2.778   0.006  0.00  0.00    +0.041 A 
ATOM     10  C   UNL     1       0.037  -2.084   1.198  0.00  0.00    +0.109 A 
ATOM     11  C   UNL     1       0.023  -0.701   1.197  0.00  0.00    -0.021 A 
ATOM     12  C   UNL     1       0.025   0.051   2.503  0.00  0.00    +0.046 C 
BRANCH  10  13
ATOM     13  S   UNL     1       0.056  -2.962   2.726  0.00  0.00    +0.056 S 
ATOM     14  O   UNL     1      -0.974  -2.401   3.529  0.00  0.00    -0.153 OA
ATOM     15  O   UNL     1       0.100  -4.344   2.400  0.00  0.00    -0.153 OA
BRANCH  13  16
ATOM     16  N   UNL     1       1.488  -2.607   3.477  0.00  0.00    -0.204 NA
ATOM     17  H   UNL     1       1.540  -2.603   4.446  0.00  0.00    +0.144 HD
ATOM     18  H   UNL     1       2.276  -2.403   2.948  0.00  0.00    +0.144 HD
ENDBRANCH  13  16
ENDBRANCH  10  13
ENDBRANCH   1   8
BRANCH   3  19
ATOM     19  C   UNL     1       0.017  -2.873  -4.921  0.00  0.00    +0.139 C 
BRANCH  19  20
ATOM     20  C   UNL     1      -0.003  -1.892  -6.065  0.00  0.00    -0.030 A 
ATOM     21  C   UNL     1      -1.217  -1.456  -6.577  0.00  0.00    +0.007 A 
ATOM     22  C   UNL     1      -1.258  -0.560  -7.623  0.00  0.00    +0.026 A 
ATOM     23  C   UNL     1      -0.071  -0.085  -8.172  0.00  0.00    +0.047 A 
ATOM     24  C   UNL     1       1.157  -0.530  -7.649  0.00  0.00    +0.003 A 
ATOM     25  C   UNL     1       1.175  -1.434  -6.585  0.00  0.00    +0.015 A 
ATOM     26  C   UNL     1       2.197   0.144  -8.430  0.00  0.00    -0.022 A 
ATOM     27  C   UNL     1       1.572   0.915  -9.333  0.00  0.00    +0.017 A 
ATOM     28  N   UNL     1       0.217   0.792  -9.194  0.00  0.00    -0.358 N 
ATOM     29  H   UNL     1      -0.443   1.253  -9.734  0.00  0.00    +0.166 HD
ATOM     30  C   UNL     1       2.261   1.789 -10.350  0.00  0.00    +0.063 C 
ATOM     31  C   UNL     1       3.687  -0.002  -8.253  0.00  0.00    +0.046 C 
ENDBRANCH  19  20
ENDBRANCH   3  19
TORSDOF 5
