REMARK  Name = ZINC65385356
REMARK  8 active torsions:
REMARK  status: ('A' for Active; 'I' for Inactive)
REMARK    1  A    between atoms: C_1  and  C_2
REMARK    2  A    between atoms: C_2  and  C_10
REMARK    3  A    between atoms: C_3  and  C_4
REMARK    4  A    between atoms: C_18  and  C_22
REMARK    5  A    between atoms: N_20  and  C_21
REMARK    6  A    between atoms: C_22  and  C_23
REMARK    7  A    between atoms: C_22  and  C_24
REMARK    8  A    between atoms: C_22  and  C_25
REMARK                            x       y       z     vdW  Elec       q    Type
REMARK                         _______ _______ _______ _____ _____    ______ ____
ROOT
ATOM      1  C   UNL     1       0.801   0.130  -2.338  0.00  0.00    +0.059 C 
ATOM      2  C   UNL     1       0.182   1.158  -3.291  0.00  0.00    +0.108 C 
ATOM      3  C   UNL     1       0.791   1.065  -4.662  0.00  0.00    +0.219 C 
ATOM      4  O   UNL     1       0.079   1.207  -5.633  0.00  0.00    -0.275 OA
ATOM      5  N   UNL     1       2.108   0.828  -4.846  0.00  0.00    -0.270 N 
ATOM      6  C   UNL     1       2.873   0.472  -3.735  0.00  0.00    +0.127 A 
ATOM      7  C   UNL     1       2.295   0.139  -2.538  0.00  0.00    +0.023 A 
ATOM      8  C   UNL     1       3.310  -0.159  -1.641  0.00  0.00    +0.074 A 
ATOM      9  N   UNL     1       4.458  -0.029  -2.265  0.00  0.00    -0.174 NA
ATOM     10  N   UNL     1       4.201   0.361  -3.591  0.00  0.00    -0.253 N 
ATOM     11  C   UNL     1       5.205   0.600  -4.631  0.00  0.00    +0.174 C 
ATOM     12  H   UNL     1       2.510   0.903  -5.725  0.00  0.00    +0.156 HD
ENDROOT
BRANCH   8  13
ATOM     13  C   UNL     1       3.128  -0.561  -0.200  0.00  0.00    +0.007 C 
ATOM     14  C   UNL     1       2.250  -1.812  -0.127  0.00  0.00    +0.017 C 
ATOM     15  C   UNL     1       4.493  -0.859   0.423  0.00  0.00    +0.017 C 
ATOM     16  C   UNL     1       2.455   0.579   0.567  0.00  0.00    +0.017 C 
ENDBRANCH   8  13
BRANCH   1  18
ATOM     17  C   UNL     1       0.792   1.881  -0.402  0.00  0.00    +0.040 C 
ATOM     18  C   UNL     1       0.477   0.499  -0.913  0.00  0.00    -0.064 C 
ATOM     19  C   UNL     1      -0.086  -0.392  -0.110  0.00  0.00    +0.007 C 
BRANCH  19  20
ATOM     20  C   UNL     1      -0.519   0.005   1.247  0.00  0.00    -0.025 A 
ATOM     21  C   UNL     1      -1.006   1.292   1.478  0.00  0.00    +0.008 A 
ATOM     22  C   UNL     1      -1.409   1.656   2.746  0.00  0.00    +0.001 A 
ATOM     23  C   UNL     1      -1.329   0.749   3.788  0.00  0.00    +0.000 A 
ATOM     24  C   UNL     1      -0.847  -0.528   3.565  0.00  0.00    +0.001 A 
ATOM     25  C   UNL     1      -0.447  -0.907   2.300  0.00  0.00    +0.008 A 
ENDBRANCH  19  20
ENDBRANCH   1  18
TORSDOF 3
