REMARK  Name = ZINC54863227
REMARK  4 active torsions:
REMARK  status: ('A' for Active; 'I' for Inactive)
REMARK    1  A    between atoms: C_1  and  C_2
REMARK    2  A    between atoms: C_7  and  C_9
REMARK    3  A    between atoms: C_7  and  C_10
REMARK    4  A    between atoms: C_14  and  C_16
REMARK                            x       y       z     vdW  Elec       q    Type
REMARK                         _______ _______ _______ _____ _____    ______ ____
ROOT
ATOM      1  C   UNL     1      -0.019   1.526   0.010  0.00  0.00    +0.039 C 
ATOM      2  C   UNL     1       0.002  -0.004   0.002  0.00  0.00    +0.133 C 
ATOM      3  C   UNL     1      -1.436  -0.536   0.015  0.00  0.00    +0.138 C 
ATOM      4  N   UNL     1      -1.389  -1.995   0.196  0.00  0.00    -0.304 N 
ATOM      5  C   UNL     1      -0.578  -2.530   1.302  0.00  0.00    +0.141 C 
ATOM      6  C   UNL     1       0.818  -1.901   1.226  0.00  0.00    +0.080 C 
ATOM      7  O   UNL     1       0.691  -0.479   1.161  0.00  0.00    -0.368 OA
ATOM      8  C   UNL     1       1.621  -2.287   2.469  0.00  0.00    +0.043 C 
ATOM      9  C   UNL     1       1.538  -2.406  -0.026  0.00  0.00    +0.043 C 
ATOM     10  C   UNL     1      -2.084  -2.836  -0.644  0.00  0.00    +0.161 A 
ATOM     11  N   UNL     1      -2.148  -4.157  -0.610  0.00  0.00    -0.232 NA
ATOM     12  C   UNL     1      -2.853  -4.830  -1.480  0.00  0.00    +0.131 A 
ATOM     13  C   UNL     1      -3.530  -4.078  -2.439  0.00  0.00    +0.073 A 
ATOM     14  S   UNL     1      -3.058  -2.426  -1.953  0.00  0.00    -0.050 S 
ENDROOT
BRANCH  13  15
ATOM     15  C   UNL     1      -4.359  -4.503  -3.494  0.00  0.00    +0.267 C 
ATOM     16  O   UNL     1      -4.568  -5.688  -3.662  0.00  0.00    -0.295 OA
ENDBRANCH  13  15
TORSDOF 1
