REMARK  Name = ZINC38966387
REMARK  5 active torsions:
REMARK  status: ('A' for Active; 'I' for Inactive)
REMARK    1  A    between atoms: C_1  and  C_2
REMARK    2  A    between atoms: C_4  and  C_8
REMARK    3  A    between atoms: C_12  and  S_24
REMARK    4  A    between atoms: N_14  and  N_15
REMARK    5  A    between atoms: C_16  and  C_17
REMARK                            x       y       z     vdW  Elec       q    Type
REMARK                         _______ _______ _______ _____ _____    ______ ____
ROOT
ATOM      1  C   UNL     1      -0.976  -2.937  -1.266  0.00  0.00    +0.206 C 
ATOM      2  N   UNL     1      -2.454  -2.950  -1.353  0.00  0.00    -0.231 NA
ATOM      3  N   UNL     1      -2.776  -4.278  -1.899  0.00  0.00    -0.225 NA
ATOM      4  C   UNL     1      -1.776  -5.161  -1.244  0.00  0.00    +0.231 C 
ATOM      5  N   UNL     1      -0.545  -4.344  -1.197  0.00  0.00    -0.207 N 
ATOM      6  H   UNL     1      -2.870  -2.823  -0.443  0.00  0.00    +0.143 HD
ATOM      7  H   UNL     1      -3.716  -4.552  -1.654  0.00  0.00    +0.143 HD
ENDROOT
BRANCH   1  11
ATOM      8  C   UNL     1      -0.018   1.503   0.010  0.00  0.00    +0.067 C 
ATOM      9  C   UNL     1       0.002  -0.004   0.002  0.00  0.00    +0.058 C 
ATOM     10  C   UNL     1      -1.086  -0.777   0.003  0.00  0.00    +0.029 C 
ATOM     11  C   UNL     1      -0.531  -2.190  -0.007  0.00  0.00    +0.190 C 
ATOM     12  N   UNL     1       0.926  -1.973  -0.013  0.00  0.00    -0.177 NA
ATOM     13  N   UNL     1       1.125  -0.756  -0.013  0.00  0.00    -0.159 NA
ENDBRANCH   1  11
BRANCH   5  14
ATOM     14  N   UNL     1       0.771  -4.815  -1.105  0.00  0.00    -0.188 NA
ATOM     15  C   UNL     1       1.002  -6.090  -1.052  0.00  0.00    +0.138 C 
BRANCH  15  16
ATOM     16  C   UNL     1       2.388  -6.586  -0.955  0.00  0.00    -0.004 A 
ATOM     17  C   UNL     1       3.454  -5.684  -0.915  0.00  0.00    +0.009 A 
ATOM     18  C   UNL     1       4.748  -6.153  -0.824  0.00  0.00    +0.002 A 
ATOM     19  C   UNL     1       4.992  -7.514  -0.772  0.00  0.00    +0.020 A 
ATOM     20  C   UNL     1       3.941  -8.414  -0.812  0.00  0.00    +0.042 A 
ATOM     21  C   UNL     1       2.640  -7.958  -0.898  0.00  0.00    +0.029 A 
ATOM     22 CL   UNL     1       4.258 -10.120  -0.747  0.00  0.00    -0.084 Cl
ENDBRANCH  15  16
ENDBRANCH   5  14
BRANCH   4  23
ATOM     23  S   UNL     1      -2.317  -5.596   0.432  0.00  0.00    -0.138 S 
ATOM     24  H   UNL     1      -3.473  -6.257   0.240  0.00  0.00    +0.105 HD
ENDBRANCH   4  23
TORSDOF 4
