REMARK  Name = ZINC39636199
REMARK  7 active torsions:
REMARK  status: ('A' for Active; 'I' for Inactive)
REMARK    1  A    between atoms: C_1  and  O_2
REMARK    2  A    between atoms: O_2  and  C_3
REMARK    3  A    between atoms: C_8  and  C_9
REMARK    4  A    between atoms: C_9  and  C_10
REMARK    5  A    between atoms: C_10  and  N_11
REMARK    6  A    between atoms: C_12  and  C_14
REMARK    7  A    between atoms: C_25  and  C_27
REMARK                            x       y       z     vdW  Elec       q    Type
REMARK                         _______ _______ _______ _____ _____    ______ ____
ROOT
ATOM      1  C   UNL     1       3.076  -5.175   2.736  0.00  0.00    +0.100 C 
ATOM      2  C   UNL     1       3.105  -6.597   2.132  0.00  0.00    +0.121 C 
ATOM      3  N   UNL     1       4.070  -7.341   2.975  0.00  0.00    -0.296 N 
ATOM      4  C   UNL     1       3.802  -6.864   4.353  0.00  0.00    +0.115 C 
ATOM      5  C   UNL     1       3.533  -5.354   4.193  0.00  0.00    -0.004 C 
ATOM      6  C   UNL     1       4.812  -4.561   4.447  0.00  0.00    -0.010 C 
ATOM      7  C   UNL     1       5.215  -4.710   5.917  0.00  0.00    -0.082 C 
ATOM      8  N   UNL     1       4.131  -4.218   6.776  0.00  0.00    +0.379 N 
ATOM      9  C   UNL     1       2.933  -5.045   6.593  0.00  0.00    -0.082 C 
ATOM     10  C   UNL     1       2.433  -4.910   5.152  0.00  0.00    -0.010 C 
ATOM     11  C   UNL     1       4.985  -8.248   2.578  0.00  0.00    +0.247 C 
ATOM     12  O   UNL     1       5.174  -8.442   1.393  0.00  0.00    -0.270 OA
ATOM     13  H   UNL     1       4.423  -4.260   7.741  0.00  0.00    -0.086 HD
ATOM     14  H   UNL     1       3.919  -3.262   6.533  0.00  0.00    -0.086 HD
ENDROOT
BRANCH  11  15
ATOM     15  C   UNL     1       5.759  -9.005   3.584  0.00  0.00    +0.038 A 
ATOM     16  C   UNL     1       5.281  -9.126   4.891  0.00  0.00    +0.014 A 
ATOM     17  C   UNL     1       6.007  -9.834   5.825  0.00  0.00    +0.022 A 
ATOM     18  C   UNL     1       7.208 -10.425   5.471  0.00  0.00    +0.059 A 
ATOM     19  C   UNL     1       7.688 -10.309   4.176  0.00  0.00    +0.060 A 
ATOM     20  C   UNL     1       6.967  -9.608   3.230  0.00  0.00    +0.034 A 
ATOM     21 CL   UNL     1       9.195 -11.053   3.740  0.00  0.00    -0.082 Cl
ATOM     22 CL   UNL     1       8.117 -11.314   6.653  0.00  0.00    -0.082 Cl
ENDBRANCH  11  15
BRANCH   1  24
ATOM     23  N   UNL     1       1.489  -3.284   2.575  0.00  0.00    -0.315 N 
ATOM     24  C   UNL     1       1.678  -4.614   2.690  0.00  0.00    +0.218 C 
ATOM     25  O   UNL     1       0.723  -5.358   2.757  0.00  0.00    -0.275 OA
ATOM     26  H   UNL     1       2.252  -2.688   2.521  0.00  0.00    +0.149 HD
BRANCH  23  27
ATOM     27  C   UNL     1       0.130  -2.739   2.530  0.00  0.00    +0.109 C 
BRANCH  27  28
ATOM     28  C   UNL     1       0.196  -1.216   2.397  0.00  0.00    +0.057 C 
BRANCH  28  34
ATOM     29  C   UNL     1      -1.883  -0.389   3.531  0.00  0.00    +0.123 A 
ATOM     30  C   UNL     1      -3.168   0.132   3.486  0.00  0.00    +0.046 A 
ATOM     31  C   UNL     1      -3.768   0.381   2.267  0.00  0.00    +0.004 A 
ATOM     32  C   UNL     1      -3.090   0.110   1.093  0.00  0.00    +0.000 A 
ATOM     33  C   UNL     1      -1.810  -0.410   1.135  0.00  0.00    +0.007 A 
ATOM     34  C   UNL     1      -1.202  -0.655   2.352  0.00  0.00    -0.004 A 
BRANCH  29  36
ATOM     35  C   UNL     1      -2.049  -0.337   5.902  0.00  0.00    +0.277 C 
ATOM     36  O   UNL     1      -1.289  -0.634   4.729  0.00  0.00    -0.495 OA
ENDBRANCH  29  36
ENDBRANCH  28  34
ENDBRANCH  27  28
ENDBRANCH  23  27
ENDBRANCH   1  24
TORSDOF 6
