REMARK  Name = ZINC47084343
REMARK  7 active torsions:
REMARK  status: ('A' for Active; 'I' for Inactive)
REMARK    1  A    between atoms: C_1  and  C_2
REMARK    2  A    between atoms: C_6  and  C_8
REMARK    3  A    between atoms: C_8  and  C_14
REMARK    4  A    between atoms: C_14  and  N_15
REMARK    5  A    between atoms: N_18  and  N_19
REMARK    6  A    between atoms: N_19  and  C_20
REMARK    7  A    between atoms: C_20  and  C_27
REMARK                            x       y       z     vdW  Elec       q    Type
REMARK                         _______ _______ _______ _____ _____    ______ ____
ROOT
ATOM      1  N   UNL     1       1.409  -1.144   3.607  0.00  0.00    -0.298 N 
ATOM      2  C   UNL     1       2.518  -0.638   4.184  0.00  0.00    +0.313 C 
ATOM      3  O   UNL     1       3.477  -1.355   4.391  0.00  0.00    -0.252 OA
ATOM      4  N   UNL     1       2.562   0.664   4.531  0.00  0.00    -0.234 N 
ATOM      5  H   UNL     1       0.644  -0.572   3.442  0.00  0.00    +0.150 HD
ATOM      6  H   UNL     1       3.359   1.028   4.947  0.00  0.00    +0.171 HD
ENDROOT
BRANCH   4   7
ATOM      7  N   UNL     1       1.484   1.470   4.299  0.00  0.00    -0.232 NA
ATOM      8  H   UNL     1       0.653   1.097   4.734  0.00  0.00    +0.145 HD
BRANCH   7   9
ATOM      9  C   UNL     1       1.745   2.842   4.752  0.00  0.00    +0.054 C 
ATOM     10  C   UNL     1       3.010   3.353   4.063  0.00  0.00    +0.047 C 
ATOM     11  C   UNL     1       2.648   4.055   2.724  0.00  0.00    +0.168 C 
ATOM     12  S   UNL     1       1.113   4.938   3.245  0.00  0.00    -0.029 S 
ATOM     13  O   UNL     1       1.469   6.132   3.928  0.00  0.00    -0.174 OA
ATOM     14  O   UNL     1       0.213   4.999   2.147  0.00  0.00    -0.174 OA
ATOM     15  C   UNL     1       0.499   3.703   4.465  0.00  0.00    +0.189 C 
ATOM     16  C   UNL     1       1.989   2.820   6.262  0.00  0.00    +0.031 C 
ENDBRANCH   7   9
ENDBRANCH   4   7
BRANCH   1  17
ATOM     17  C   UNL     1       1.361  -2.559   3.230  0.00  0.00    +0.117 C 
BRANCH  17  18
ATOM     18  C   UNL     1      -0.001  -2.875   2.608  0.00  0.00    +0.011 C 
ATOM     19  C   UNL     1      -1.102  -2.634   3.643  0.00  0.00    +0.013 C 
ATOM     20  C   UNL     1      -0.871  -3.541   4.854  0.00  0.00    +0.001 C 
ATOM     21  C   UNL     1      -0.901  -5.004   4.408  0.00  0.00    +0.000 C 
ATOM     22  C   UNL     1       0.200  -5.245   3.373  0.00  0.00    +0.001 C 
ATOM     23  C   UNL     1      -0.031  -4.338   2.162  0.00  0.00    +0.013 C 
BRANCH  18  29
ATOM     24  C   UNL     1       1.433  -1.190  -1.881  0.00  0.00    +0.044 C 
ATOM     25  C   UNL     1       0.459  -1.175  -0.732  0.00  0.00    -0.050 A 
ATOM     26  C   UNL     1      -0.644  -0.342  -0.771  0.00  0.00    +0.003 A 
ATOM     27  C   UNL     1      -1.538  -0.328   0.283  0.00  0.00    +0.001 A 
ATOM     28  C   UNL     1      -1.330  -1.148   1.377  0.00  0.00    +0.004 A 
ATOM     29  C   UNL     1      -0.228  -1.982   1.416  0.00  0.00    -0.039 A 
ATOM     30  C   UNL     1       0.664  -1.998   0.359  0.00  0.00    +0.007 A 
ENDBRANCH  18  29
ENDBRANCH  17  18
ENDBRANCH   1  17
TORSDOF 5
