REMARK  Name = ZINC36019090
REMARK  14 active torsions:
REMARK  status: ('A' for Active; 'I' for Inactive)
REMARK    1  A    between atoms: C_1  and  C_2
REMARK    2  A    between atoms: C_2  and  O_3
REMARK    3  A    between atoms: O_3  and  C_4
REMARK    4  A    between atoms: C_4  and  C_6
REMARK    5  A    between atoms: C_7  and  C_24
REMARK    6  A    between atoms: N_8  and  C_21
REMARK    7  A    between atoms: C_12  and  C_14
REMARK    8  A    between atoms: C_21  and  C_22
REMARK    9  A    between atoms: C_24  and  N_25
REMARK   10  A    between atoms: C_29  and  C_32
REMARK   11  A    between atoms: N_35  and  C_36
REMARK   12  A    between atoms: C_36  and  C_37
REMARK   13  A    between atoms: C_36  and  C_38
REMARK   14  A    between atoms: C_36  and  C_39
REMARK                            x       y       z     vdW  Elec       q    Type
REMARK                         _______ _______ _______ _____ _____    ______ ____
ROOT
ATOM      1  C   UNL     1      -3.066  -2.989  -0.805  0.00  0.00    +0.080 C 
ATOM      2  C   UNL     1      -3.188  -4.332  -0.729  0.00  0.00    +0.041 C 
ATOM      3  N   UNL     1      -4.417  -4.926  -0.693  0.00  0.00    -0.254 N 
ATOM      4  C   UNL     1      -5.571  -4.248  -0.729  0.00  0.00    +0.307 C 
ATOM      5  O   UNL     1      -6.617  -4.866  -0.692  0.00  0.00    -0.252 OA
ATOM      6  N   UNL     1      -5.611  -2.903  -0.805  0.00  0.00    -0.288 N 
ATOM      7  C   UNL     1      -4.337  -2.166  -0.843  0.00  0.00    +0.144 C 
ATOM      8  H   UNL     1      -6.458  -2.432  -0.830  0.00  0.00    +0.151 HD
ENDROOT
BRANCH   7   9
ATOM      9  C   UNL     1      -4.320  -1.342  -2.105  0.00  0.00    -0.022 A 
ATOM     10  C   UNL     1      -4.681  -1.917  -3.309  0.00  0.00    +0.007 A 
ATOM     11  C   UNL     1      -4.665  -1.162  -4.467  0.00  0.00    +0.020 A 
ATOM     12  C   UNL     1      -4.289   0.168  -4.420  0.00  0.00    +0.041 A 
ATOM     13  C   UNL     1      -3.928   0.743  -3.215  0.00  0.00    +0.020 A 
ATOM     14  C   UNL     1      -3.949  -0.011  -2.057  0.00  0.00    +0.007 A 
ATOM     15 CL   UNL     1      -4.269   1.117  -5.874  0.00  0.00    -0.084 Cl
ENDBRANCH   7   9
BRANCH   1  16
ATOM     16  C   UNL     1      -1.793  -2.372  -0.842  0.00  0.00    +0.339 C 
ATOM     17  O   UNL     1      -1.359  -1.813   0.148  0.00  0.00    -0.245 OA
BRANCH  16  18
ATOM     18  O   UNL     1      -1.061  -2.403  -1.975  0.00  0.00    -0.462 OA
BRANCH  18  20
ATOM     19  C   UNL     1       0.892  -1.899  -3.306  0.00  0.00    +0.048 C 
ATOM     20  C   UNL     1       0.215  -1.760  -1.941  0.00  0.00    +0.229 C 
ENDBRANCH  18  20
ENDBRANCH  16  18
ENDBRANCH   1  16
BRANCH   3  21
ATOM     21  C   UNL     1      -4.476  -6.388  -0.610  0.00  0.00    +0.141 C 
BRANCH  21  22
ATOM     22  C   UNL     1      -4.493  -6.809   0.837  0.00  0.00    -0.015 C 
ATOM     23  C   UNL     1      -5.454  -7.579   1.283  0.00  0.00    +0.005 C 
ENDBRANCH  21  22
ENDBRANCH   3  21
BRANCH   2  24
ATOM     24  C   UNL     1      -1.949  -5.188  -0.684  0.00  0.00    +0.136 C 
BRANCH  24  25
ATOM     25  N   UNL     1      -1.855  -5.844   0.627  0.00  0.00    -0.294 NA
ATOM     26  C   UNL     1      -1.645  -4.858   1.696  0.00  0.00    +0.104 C 
ATOM     27  C   UNL     1      -1.734  -5.558   3.056  0.00  0.00    +0.125 C 
ATOM     28  N   UNL     1      -0.794  -6.689   3.062  0.00  0.00    -0.280 N 
ATOM     29  C   UNL     1      -0.851  -7.647   1.947  0.00  0.00    +0.088 C 
ATOM     30  C   UNL     1      -0.798  -6.865   0.630  0.00  0.00    +0.107 C 
ATOM     31  C   UNL     1       0.340  -8.604   2.030  0.00  0.00    +0.029 C 
ATOM     32  C   UNL     1       0.097  -6.844   4.061  0.00  0.00    +0.303 C 
ATOM     33  O   UNL     1       0.926  -7.731   4.005  0.00  0.00    -0.253 OA
ATOM     34  N   UNL     1       0.067  -6.015   5.124  0.00  0.00    -0.294 N 
ATOM     35  H   UNL     1      -0.639  -5.355   5.205  0.00  0.00    +0.151 HD
BRANCH  34  36
ATOM     36  C   UNL     1       1.102  -6.112   6.157  0.00  0.00    +0.028 C 
ATOM     37  C   UNL     1       2.474  -5.859   5.528  0.00  0.00    +0.031 C 
ATOM     38  C   UNL     1       0.838  -5.066   7.242  0.00  0.00    +0.031 C 
ATOM     39  C   UNL     1       1.075  -7.510   6.777  0.00  0.00    +0.031 C 
ENDBRANCH  34  36
ENDBRANCH  24  25
ENDBRANCH   2  24
TORSDOF 9
