REMARK  Name = ZINC39276739
REMARK  2 active torsions:
REMARK  status: ('A' for Active; 'I' for Inactive)
REMARK    1  A    between atoms: C_6  and  C_11
REMARK    2  A    between atoms: C_15  and  C_20
REMARK                            x       y       z     vdW  Elec       q    Type
REMARK                         _______ _______ _______ _____ _____    ______ ____
ROOT
ATOM      1  C   UNL     1      -6.044   0.545   0.061  0.00  0.00    +0.199 C 
ATOM      2  N   UNL     1      -6.652   1.773  -0.517  0.00  0.00    -0.262 N 
ATOM      3  N   UNL     1      -7.800   2.187   0.089  0.00  0.00    -0.220 N 
ATOM      4  C   UNL     1      -8.892   2.990  -0.229  0.00  0.00    +0.182 A 
ATOM      5  N   UNL     1      -9.671   3.039   0.823  0.00  0.00    -0.127 NA
ATOM      6  N   UNL     1      -9.174   2.324   1.770  0.00  0.00    -0.120 NA
ATOM      7  C   UNL     1      -8.065   1.780   1.371  0.00  0.00    +0.211 A 
ATOM      8  S   UNL     1      -6.715   0.688   1.774  0.00  0.00    -0.055 S 
ATOM      9  H   UNL     1      -5.977   2.522  -0.565  0.00  0.00    +0.168 HD
ENDROOT
BRANCH   1  15
ATOM     10  C   UNL     1      -0.017   1.384   0.010  0.00  0.00    +0.001 A 
ATOM     11  C   UNL     1       0.002  -0.004   0.002  0.00  0.00    +0.002 A 
ATOM     12  C   UNL     1      -1.173  -0.723   0.009  0.00  0.00    +0.026 A 
ATOM     13  C   UNL     1      -2.392  -0.053   0.024  0.00  0.00    +0.047 A 
ATOM     14  N   UNL     1      -3.704  -0.472   0.034  0.00  0.00    -0.356 N 
ATOM     15  C   UNL     1      -4.539   0.612   0.047  0.00  0.00    +0.050 A 
ATOM     16  H   UNL     1      -3.993  -1.398   0.030  0.00  0.00    +0.166 HD
ATOM     17  C   UNL     1      -3.818   1.744   0.047  0.00  0.00    +0.034 A 
ATOM     18  C   UNL     1      -2.406   1.353   0.032  0.00  0.00    +0.000 A 
ATOM     19  C   UNL     1      -1.203   2.062   0.030  0.00  0.00    +0.010 A 
ENDBRANCH   1  15
BRANCH   4  20
ATOM     20  C   UNL     1      -9.129   3.668  -1.521  0.00  0.00    +0.023 A 
ATOM     21  C   UNL     1      -8.092   3.792  -2.448  0.00  0.00    +0.012 A 
ATOM     22  C   UNL     1      -8.319   4.424  -3.653  0.00  0.00    +0.003 A 
ATOM     23  C   UNL     1      -9.570   4.937  -3.945  0.00  0.00    +0.038 A 
ATOM     24  C   UNL     1     -10.604   4.817  -3.030  0.00  0.00    +0.124 A 
ATOM     25  C   UNL     1     -10.391   4.181  -1.822  0.00  0.00    +0.050 A 
ATOM     26  F   UNL     1     -11.824   5.320  -3.322  0.00  0.00    -0.205 F 
ENDBRANCH   4  20
TORSDOF 2
