REMARK  Name = ZINC02006069
REMARK  4 active torsions:
REMARK  status: ('A' for Active; 'I' for Inactive)
REMARK    1  A    between atoms: C_1  and  C_2
REMARK    2  A    between atoms: C_2  and  C_3
REMARK    3  A    between atoms: C_3  and  C_4
REMARK    4  A    between atoms: C_4  and  C_5
REMARK                            x       y       z     vdW  Elec       q    Type
REMARK                         _______ _______ _______ _____ _____    ______ ____
ROOT
ATOM      1  C   UNL     1       1.190   2.110   0.002  0.00  0.00    +0.134 C 
ATOM      2  C   UNL     1      -0.014   1.203   0.009  0.00  0.00    +0.170 C 
ATOM      3  O   UNL     1       0.002  -0.004   0.002  0.00  0.00    -0.292 OA
ATOM      4  C   UNL     1      -1.243   2.077   0.018  0.00  0.00    +0.101 C 
ATOM      5  C   UNL     1      -0.788   3.514   0.027  0.00  0.00    +0.225 C 
ATOM      6  O   UNL     1      -1.509   4.483   0.042  0.00  0.00    -0.284 OA
ATOM      7  C   UNL     1       0.697   3.534   0.013  0.00  0.00    +0.213 C 
ATOM      8  O   UNL     1       1.391   4.523   0.012  0.00  0.00    -0.288 OA
ENDROOT
BRANCH   1   9
ATOM      9  C   UNL     1       2.021   1.859  -1.258  0.00  0.00    +0.019 C 
BRANCH   9  10
ATOM     10  C   UNL     1       3.303   2.692  -1.198  0.00  0.00    +0.001 C 
BRANCH  10  12
ATOM     11  C   UNL     1       5.416   3.273  -2.398  0.00  0.00    +0.004 C 
ATOM     12  C   UNL     1       4.133   2.441  -2.458  0.00  0.00    -0.003 C 
ENDBRANCH  10  12
ENDBRANCH   9  10
ENDBRANCH   1   9
TORSDOF 3
