REMARK  Name = ZINC13012689
REMARK  3 active torsions:
REMARK  status: ('A' for Active; 'I' for Inactive)
REMARK    1  A    between atoms: C_4  and  C_7
REMARK    2  A    between atoms: C_7  and  C_9
REMARK    3  A    between atoms: C_7  and  N_18
REMARK                            x       y       z     vdW  Elec       q    Type
REMARK                         _______ _______ _______ _____ _____    ______ ____
ROOT
ATOM      1  C   UNL     1       5.420  -2.980  -0.067  0.00  0.00    +0.168 C 
ENDROOT
BRANCH   1   2
ATOM      2  N   UNL     1       3.957  -2.913  -0.052  0.00  0.00    -0.314 N 
ATOM      3  C   UNL     1       3.318  -1.678  -0.039  0.00  0.00    +0.142 A 
ATOM      4  C   UNL     1       4.084  -0.498  -0.040  0.00  0.00    +0.049 A 
ATOM      5  C   UNL     1       3.469   0.715  -0.027  0.00  0.00    +0.055 A 
ATOM      6  C   UNL     1       2.063   0.770  -0.013  0.00  0.00    +0.200 A 
ATOM      7  N   UNL     1       1.180   1.759   0.000  0.00  0.00    -0.107 NA
ATOM      8  N   UNL     1      -0.015   1.286   0.009  0.00  0.00    -0.021 NA
ATOM      9  N   UNL     1       0.002  -0.004   0.002  0.00  0.00    -0.021 NA
ATOM     10  N   UNL     1       1.347  -0.396  -0.013  0.00  0.00    -0.108 N 
ATOM     11  N   UNL     1       2.004  -1.625  -0.026  0.00  0.00    -0.131 NA
ATOM     12  H   UNL     1       3.433  -3.729  -0.052  0.00  0.00    +0.149 HD
ENDBRANCH   1   2
BRANCH   1  13
ATOM     13  C   UNL     1       5.856  -4.286  -0.679  0.00  0.00    +0.131 A 
ATOM     14  C   UNL     1       6.889  -4.431  -1.521  0.00  0.00    +0.055 A 
ATOM     15  C   UNL     1       6.945  -5.859  -1.856  0.00  0.00    +0.020 A 
ATOM     16  C   UNL     1       7.772  -6.639  -2.663  0.00  0.00    +0.011 A 
ATOM     17  C   UNL     1       7.546  -7.984  -2.766  0.00  0.00    +0.001 A 
ATOM     18  C   UNL     1       6.500  -8.575  -2.074  0.00  0.00    +0.004 A 
ATOM     19  C   UNL     1       5.672  -7.820  -1.271  0.00  0.00    +0.047 A 
ATOM     20  C   UNL     1       5.884  -6.452  -1.152  0.00  0.00    +0.135 A 
ATOM     21  O   UNL     1       5.263  -5.473  -0.464  0.00  0.00    -0.457 OA
ENDBRANCH   1  13
BRANCH   1  25
ATOM     22  C   UNL     1       6.896  -2.718   3.933  0.00  0.00    +0.000 A 
ATOM     23  C   UNL     1       7.552  -2.059   2.910  0.00  0.00    +0.000 A 
ATOM     24  C   UNL     1       7.074  -2.144   1.615  0.00  0.00    +0.006 A 
ATOM     25  C   UNL     1       5.941  -2.888   1.344  0.00  0.00    -0.020 A 
ATOM     26  C   UNL     1       5.282  -3.542   2.369  0.00  0.00    +0.006 A 
ATOM     27  C   UNL     1       5.763  -3.461   3.662  0.00  0.00    +0.000 A 
ENDBRANCH   1  25
TORSDOF 3
