REMARK  Name = ZINC10523451
REMARK  9 active torsions:
REMARK  status: ('A' for Active; 'I' for Inactive)
REMARK    1  A    between atoms: C_1  and  C_2
REMARK    2  A    between atoms: C_3  and  C_33
REMARK    3  A    between atoms: N_4  and  C_26
REMARK    4  A    between atoms: C_5  and  N_9
REMARK    5  A    between atoms: C_6  and  C_7
REMARK    6  A    between atoms: C_10  and  C_12
REMARK    7  A    between atoms: C_12  and  N_13
REMARK    8  A    between atoms: C_17  and  C_19
REMARK    9  A    between atoms: C_26  and  C_27
REMARK                            x       y       z     vdW  Elec       q    Type
REMARK                         _______ _______ _______ _____ _____    ______ ____
ROOT
ATOM      1  N   UNL     1      -0.194   1.452  -1.799  0.00  0.00    -0.269 N 
ATOM      2  C   UNL     1       1.099   1.703  -1.513  0.00  0.00    +0.240 C 
ATOM      3  O   UNL     1       1.823   2.191  -2.355  0.00  0.00    -0.273 OA
ATOM      4  H   UNL     1      -0.768   1.048  -1.131  0.00  0.00    +0.156 HD
ENDROOT
BRANCH   1   9
ATOM      5  C   UNL     1      -0.912   1.810  -6.788  0.00  0.00    +0.047 C 
ATOM      6  C   UNL     1      -1.055   1.954  -5.295  0.00  0.00    -0.011 A 
ATOM      7  C   UNL     1      -2.007   2.642  -4.643  0.00  0.00    +0.022 A 
ATOM      8  N   UNL     1      -1.802   2.531  -3.294  0.00  0.00    -0.327 N 
ATOM      9  C   UNL     1      -0.702   1.773  -3.049  0.00  0.00    +0.124 A 
ATOM     10  C   UNL     1      -0.181   1.370  -4.271  0.00  0.00    +0.095 A 
ATOM     11  C   UNL     1      -3.128   3.409  -5.295  0.00  0.00    +0.064 C 
BRANCH  10  12
ATOM     12  C   UNL     1       0.975   0.553  -4.487  0.00  0.00    +0.103 C 
ATOM     13  N   UNL     1       1.892  -0.095  -4.659  0.00  0.00    -0.191 NA
ENDBRANCH  10  12
BRANCH   8  14
ATOM     14  C   UNL     1      -2.644   3.144  -2.264  0.00  0.00    +0.158 C 
BRANCH  14  15
ATOM     15  C   UNL     1      -2.065   4.478  -1.870  0.00  0.00    -0.028 A 
ATOM     16  C   UNL     1      -1.034   4.539  -0.951  0.00  0.00    +0.005 A 
ATOM     17  C   UNL     1      -0.499   5.762  -0.592  0.00  0.00    +0.000 A 
ATOM     18  C   UNL     1      -1.002   6.925  -1.145  0.00  0.00    +0.000 A 
ATOM     19  C   UNL     1      -2.036   6.864  -2.060  0.00  0.00    +0.000 A 
ATOM     20  C   UNL     1      -2.568   5.641  -2.422  0.00  0.00    +0.005 A 
ENDBRANCH  14  15
ENDBRANCH   8  14
ENDBRANCH   1   9
BRANCH   2  21
ATOM     21  C   UNL     1       1.646   1.376  -0.147  0.00  0.00    +0.246 C 
BRANCH  21  22
ATOM     22  N   UNL     1       3.064   1.740  -0.088  0.00  0.00    -0.186 N 
ATOM     23  C   UNL     1       3.573   2.934   0.283  0.00  0.00    +0.439 A 
ATOM     24  O   UNL     1       2.937   3.910   0.633  0.00  0.00    -0.221 OA
ATOM     25  O   UNL     1       4.911   2.845   0.198  0.00  0.00    -0.388 OA
ATOM     26  C   UNL     1       5.240   1.607  -0.232  0.00  0.00    +0.250 A 
ATOM     27  N   UNL     1       4.152   0.917  -0.414  0.00  0.00    -0.126 NA
BRANCH  26  28
ATOM     28  C   UNL     1       6.616   1.116  -0.460  0.00  0.00    +0.039 A 
ATOM     29  C   UNL     1       6.829  -0.190  -0.902  0.00  0.00    +0.016 A 
ATOM     30  C   UNL     1       8.114  -0.641  -1.119  0.00  0.00    +0.039 A 
ATOM     31  C   UNL     1       9.194   0.196  -0.886  0.00  0.00    +0.123 A 
ATOM     32  C   UNL     1       8.988   1.492  -0.442  0.00  0.00    +0.039 A 
ATOM     33  C   UNL     1       7.707   1.956  -0.228  0.00  0.00    +0.016 A 
ATOM     34  F   UNL     1      10.451  -0.253  -1.095  0.00  0.00    -0.205 F 
ENDBRANCH  26  28
ENDBRANCH  21  22
ENDBRANCH   2  21
TORSDOF 7
