REMARK  Name = ZINC39690588
REMARK  8 active torsions:
REMARK  status: ('A' for Active; 'I' for Inactive)
REMARK    1  A    between atoms: C_1  and  C_2
REMARK    2  A    between atoms: C_2  and  C_3
REMARK    3  A    between atoms: C_3  and  C_4
REMARK    4  A    between atoms: C_3  and  C_6
REMARK    5  A    between atoms: C_4  and  C_5
REMARK    6  A    between atoms: C_10  and  C_19
REMARK    7  A    between atoms: N_21  and  C_22
REMARK    8  A    between atoms: C_22  and  C_23
REMARK                            x       y       z     vdW  Elec       q    Type
REMARK                         _______ _______ _______ _____ _____    ______ ____
ROOT
ATOM      1  C   UNL     1      -1.717  -2.062   0.364  0.00  0.00    +0.219 C 
ATOM      2  O   UNL     1      -2.348  -2.844  -0.316  0.00  0.00    -0.275 OA
ATOM      3  N   UNL     1      -0.961  -2.515   1.384  0.00  0.00    -0.300 N 
ATOM      4  C   UNL     1      -0.132  -1.722   2.322  0.00  0.00    +0.121 C 
ATOM      5  C   UNL     1      -0.334  -2.404   3.693  0.00  0.00    +0.100 C 
ATOM      6  C   UNL     1      -0.750  -3.845   3.358  0.00  0.00    -0.004 C 
ATOM      7  C   UNL     1      -0.775  -3.918   1.824  0.00  0.00    +0.115 C 
ATOM      8  C   UNL     1      -2.140  -4.138   3.916  0.00  0.00    -0.010 C 
ATOM      9  C   UNL     1      -2.508  -5.594   3.619  0.00  0.00    -0.082 C 
ATOM     10  N   UNL     1      -1.515  -6.486   4.230  0.00  0.00    +0.379 N 
ATOM     11  C   UNL     1      -0.199  -6.262   3.622  0.00  0.00    -0.082 C 
ATOM     12  C   UNL     1       0.267  -4.834   3.918  0.00  0.00    -0.010 C 
ATOM     13  H   UNL     1      -1.462  -6.300   5.221  0.00  0.00    -0.086 HD
ATOM     14  H   UNL     1      -1.793  -7.445   4.085  0.00  0.00    -0.086 HD
ENDROOT
BRANCH   5  15
ATOM     15  C   UNL     1       0.953  -2.396   4.478  0.00  0.00    +0.218 C 
ATOM     16  O   UNL     1       2.017  -2.346   3.897  0.00  0.00    -0.275 OA
ATOM     17  N   UNL     1       0.922  -2.445   5.824  0.00  0.00    -0.311 N 
ATOM     18  H   UNL     1       0.072  -2.485   6.288  0.00  0.00    +0.149 HD
BRANCH  17  19
ATOM     19  C   UNL     1       2.173  -2.437   6.586  0.00  0.00    +0.140 C 
BRANCH  19  20
ATOM     20  C   UNL     1       1.864  -2.498   8.060  0.00  0.00    -0.016 A 
ATOM     21  C   UNL     1       1.887  -1.343   8.820  0.00  0.00    +0.006 A 
ATOM     22  C   UNL     1       1.603  -1.399  10.171  0.00  0.00    +0.000 A 
ATOM     23  C   UNL     1       1.296  -2.610  10.764  0.00  0.00    +0.001 A 
ATOM     24  C   UNL     1       1.272  -3.764  10.005  0.00  0.00    +0.015 A 
ATOM     25  C   UNL     1       1.551  -3.708   8.652  0.00  0.00    +0.023 A 
ATOM     26 BR   UNL     1       1.512  -5.287   7.612  0.00  0.00    -0.050 Br
ENDBRANCH  19  20
ENDBRANCH  17  19
ENDBRANCH   5  15
BRANCH   1  27
ATOM     27  C   UNL     1      -1.779  -0.586   0.070  0.00  0.00    +0.075 C 
BRANCH  27  29
ATOM     28  C   UNL     1      -0.414   1.450  -0.417  0.00  0.00    +0.004 C 
ATOM     29  C   UNL     1      -0.375  -0.071  -0.255  0.00  0.00    +0.009 C 
ENDBRANCH  27  29
BRANCH  27  30
ATOM     30  C   UNL     1      -2.701  -0.343  -1.127  0.00  0.00    +0.009 C 
ATOM     31  C   UNL     1      -4.138  -0.704  -0.746  0.00  0.00    +0.004 C 
ENDBRANCH  27  30
ENDBRANCH   1  27
TORSDOF 6
