REMARK  Name = ZINC14021803
REMARK  11 active torsions:
REMARK  status: ('A' for Active; 'I' for Inactive)
REMARK    1  A    between atoms: C_1  and  C_2
REMARK    2  A    between atoms: C_2  and  C_3
REMARK    3  A    between atoms: C_2  and  C_4
REMARK    4  A    between atoms: C_4  and  C_5
REMARK    5  A    between atoms: C_5  and  O_6
REMARK    6  A    between atoms: O_6  and  C_7
REMARK    7  A    between atoms: C_10  and  C_13
REMARK    8  A    between atoms: N_15  and  N_16
REMARK    9  A    between atoms: C_17  and  C_19
REMARK   10  A    between atoms: C_19  and  O_20
REMARK   11  A    between atoms: O_20  and  C_21
REMARK                            x       y       z     vdW  Elec       q    Type
REMARK                         _______ _______ _______ _____ _____    ______ ____
ROOT
ATOM      1  C   UNL     1       2.943   6.569   0.009  0.00  0.00    +0.260 C 
ATOM      2  O   UNL     1       4.073   6.120  -0.004  0.00  0.00    -0.269 OA
ATOM      3  N   UNL     1       1.885   5.734   0.015  0.00  0.00    -0.230 N 
ATOM      4  H   UNL     1       0.984   6.093   0.025  0.00  0.00    +0.173 HD
ENDROOT
BRANCH   1   8
ATOM      5  C   UNL     1       2.329  10.771   0.038  0.00  0.00    +0.121 A 
ATOM      6  C   UNL     1       3.622  10.260   0.023  0.00  0.00    +0.046 A 
ATOM      7  C   UNL     1       3.825   8.898   0.013  0.00  0.00    +0.016 A 
ATOM      8  C   UNL     1       2.730   8.030   0.019  0.00  0.00    +0.038 A 
ATOM      9  C   UNL     1       1.432   8.549   0.029  0.00  0.00    +0.016 A 
ATOM     10  C   UNL     1       1.238   9.912   0.044  0.00  0.00    +0.046 A 
BRANCH   5  11
ATOM     11  O   UNL     1       2.134  12.114   0.047  0.00  0.00    -0.492 OA
BRANCH  11  12
ATOM     12  C   UNL     1       0.780  12.572   0.062  0.00  0.00    +0.229 C 
BRANCH  12  13
ATOM     13  C   UNL     1       0.759  14.102   0.071  0.00  0.00    +0.044 C 
BRANCH  13  15
ATOM     14  C   UNL     1      -0.711  16.116   0.222  0.00  0.00    +0.007 C 
ATOM     15  C   UNL     1      -0.690  14.592   0.087  0.00  0.00    -0.014 C 
ATOM     16  C   UNL     1      -1.381  14.185  -1.216  0.00  0.00    +0.007 C 
ENDBRANCH  13  15
ENDBRANCH  12  13
ENDBRANCH  11  12
ENDBRANCH   5  11
ENDBRANCH   1   8
BRANCH   3  17
ATOM     17  N   UNL     1       2.088   4.348   0.005  0.00  0.00    -0.231 N 
ATOM     18  C   UNL     1       1.030   3.512   0.011  0.00  0.00    +0.267 C 
ATOM     19  O   UNL     1      -0.097   3.961   0.024  0.00  0.00    -0.271 OA
ATOM     20  H   UNL     1       2.989   3.989  -0.005  0.00  0.00    +0.173 HD
BRANCH  18  21
ATOM     21  C   UNL     1       1.248   2.021   0.001  0.00  0.00    +0.326 C 
BRANCH  21  22
ATOM     22  O   UNL     1      -0.016   1.355   0.009  0.00  0.00    -0.482 OA
BRANCH  22  23
ATOM     23  C   UNL     1       0.002  -0.004   0.002  0.00  0.00    +0.135 A 
ATOM     24  C   UNL     1       1.212  -0.682  -0.013  0.00  0.00    +0.048 A 
ATOM     25  C   UNL     1       1.229  -2.063  -0.021  0.00  0.00    +0.019 A 
ATOM     26  C   UNL     1       0.040  -2.771  -0.013  0.00  0.00    +0.019 A 
ATOM     27  C   UNL     1      -1.168  -2.098   0.002  0.00  0.00    +0.034 A 
ATOM     28  C   UNL     1      -1.190  -0.715   0.015  0.00  0.00    +0.061 A 
ATOM     29 BR   UNL     1      -2.841   0.205   0.044  0.00  0.00    -0.046 Br
ATOM     30 BR   UNL     1       0.066  -4.662  -0.023  0.00  0.00    -0.050 Br
ENDBRANCH  22  23
ENDBRANCH  21  22
ENDBRANCH  18  21
ENDBRANCH   3  17
TORSDOF 9
