REMARK  Name = ZINC40052154
REMARK  16 active torsions:
REMARK  status: ('A' for Active; 'I' for Inactive)
REMARK    1  A    between atoms: C_1  and  C_2
REMARK    2  A    between atoms: C_2  and  C_3
REMARK    3  A    between atoms: C_3  and  C_4
REMARK    4  A    between atoms: C_4  and  O_5
REMARK    5  A    between atoms: O_5  and  C_6
REMARK    6  A    between atoms: C_11  and  C_12
REMARK    7  A    between atoms: C_14  and  C_24
REMARK    8  A    between atoms: N_18  and  C_19
REMARK    9  A    between atoms: C_19  and  C_20
REMARK   10  A    between atoms: C_20  and  C_21
REMARK   11  A    between atoms: C_21  and  O_22
REMARK   12  A    between atoms: C_24  and  C_26
REMARK   13  A    between atoms: C_29  and  O_33
REMARK   14  A    between atoms: C_30  and  C_32
REMARK   15  A    between atoms: O_33  and  C_34
REMARK   16  A    between atoms: C_34  and  C_35
REMARK                            x       y       z     vdW  Elec       q    Type
REMARK                         _______ _______ _______ _____ _____    ______ ____
ROOT
ATOM      1  C   UNL     1       3.094  -3.962   4.732  0.00  0.00    +0.148 C 
ATOM      2  C   UNL     1       4.441  -3.439   4.292  0.00  0.00    +0.076 C 
ATOM      3  C   UNL     1       5.343  -3.858   5.210  0.00  0.00    +0.249 C 
ATOM      4  C   UNL     1       4.647  -4.645   6.249  0.00  0.00    +0.288 C 
ATOM      5  O   UNL     1       5.183  -5.158   7.211  0.00  0.00    -0.266 OA
ATOM      6  N   UNL     1       3.330  -4.708   5.974  0.00  0.00    -0.283 N 
ATOM      7  O   UNL     1       6.670  -3.599   5.180  0.00  0.00    -0.282 OA
ENDROOT
BRANCH   1  13
ATOM      8  C   UNL     1       1.174  -5.194   3.691  0.00  0.00    +0.126 A 
ATOM      9  C   UNL     1       0.652  -6.032   2.717  0.00  0.00    +0.046 A 
ATOM     10  C   UNL     1       1.478  -6.554   1.740  0.00  0.00    +0.004 A 
ATOM     11  C   UNL     1       2.825  -6.241   1.734  0.00  0.00    +0.001 A 
ATOM     12  C   UNL     1       3.348  -5.406   2.704  0.00  0.00    +0.009 A 
ATOM     13  C   UNL     1       2.525  -4.877   3.679  0.00  0.00    +0.019 A 
BRANCH   8  14
ATOM     14  O   UNL     1       0.363  -4.679   4.652  0.00  0.00    -0.492 OA
BRANCH  14  15
ATOM     15  C   UNL     1      -1.035  -4.951   4.536  0.00  0.00    +0.229 C 
BRANCH  15  16
ATOM     16  C   UNL     1      -1.794  -4.195   5.627  0.00  0.00    +0.041 C 
BRANCH  16  18
ATOM     17  C   UNL     1      -4.011  -3.922   6.748  0.00  0.00    +0.004 C 
ATOM     18  C   UNL     1      -3.274  -4.582   5.581  0.00  0.00    -0.000 C 
ENDBRANCH  16  18
ENDBRANCH  15  16
ENDBRANCH  14  15
ENDBRANCH   8  14
ENDBRANCH   1  13
BRANCH   2  19
ATOM     19  C   UNL     1       4.718  -2.631   3.099  0.00  0.00    +0.195 C 
ATOM     20  O   UNL     1       5.405  -3.085   2.203  0.00  0.00    -0.287 OA
BRANCH  19  21
ATOM     21  C   UNL     1       4.165  -1.267   2.987  0.00  0.00    +0.023 A 
ATOM     22  C   UNL     1       3.481  -0.697   4.065  0.00  0.00    +0.015 A 
ATOM     23  C   UNL     1       2.967   0.575   3.956  0.00  0.00    +0.046 A 
ATOM     24  C   UNL     1       3.127   1.293   2.776  0.00  0.00    +0.124 A 
ATOM     25  C   UNL     1       3.806   0.730   1.701  0.00  0.00    -0.008 A 
ATOM     26  C   UNL     1       4.329  -0.540   1.804  0.00  0.00    +0.018 A 
ATOM     27  C   UNL     1       3.975   1.512   0.424  0.00  0.00    +0.047 C 
BRANCH  24  28
ATOM     28  O   UNL     1       2.618   2.547   2.672  0.00  0.00    -0.488 OA
BRANCH  28  29
ATOM     29  C   UNL     1       2.028   3.107   3.847  0.00  0.00    +0.256 C 
BRANCH  29  30
ATOM     30  C   UNL     1       1.423   4.446   3.516  0.00  0.00    +0.006 C 
ATOM     31  C   UNL     1       0.227   4.752   3.956  0.00  0.00    +0.007 C 
ENDBRANCH  29  30
ENDBRANCH  28  29
ENDBRANCH  24  28
ENDBRANCH  19  21
ENDBRANCH   2  19
BRANCH   6  32
ATOM     32  C   UNL     1       2.313  -5.398   6.772  0.00  0.00    +0.111 C 
BRANCH  32  33
ATOM     33  C   UNL     1       2.276  -6.877   6.381  0.00  0.00    +0.047 C 
BRANCH  33  34
ATOM     34  C   UNL     1       1.132  -7.571   7.123  0.00  0.00    +0.157 C 
BRANCH  34  35
ATOM     35  O   UNL     1       1.097  -8.952   6.759  0.00  0.00    -0.395 OA
ATOM     36  H   UNL     1       0.394  -9.456   7.192  0.00  0.00    +0.209 HD
ENDBRANCH  34  35
ENDBRANCH  33  34
ENDBRANCH  32  33
ENDBRANCH   6  32
TORSDOF 14
