REMARK  Name = ZINC63194996
REMARK  10 active torsions:
REMARK  status: ('A' for Active; 'I' for Inactive)
REMARK    1  A    between atoms: C_1  and  C_2
REMARK    2  A    between atoms: C_4  and  C_9
REMARK    3  A    between atoms: C_5  and  C_8
REMARK    4  A    between atoms: C_9  and  O_10
REMARK    5  A    between atoms: O_10  and  C_11
REMARK    6  A    between atoms: C_14  and  C_17
REMARK    7  A    between atoms: C_17  and  C_18
REMARK    8  A    between atoms: N_20  and  N_21
REMARK    9  A    between atoms: C_22  and  C_24
REMARK   10  A    between atoms: C_24  and  C_25
REMARK                            x       y       z     vdW  Elec       q    Type
REMARK                         _______ _______ _______ _____ _____    ______ ____
ROOT
ATOM      1  C   UNL     1      -0.476   0.257  -9.524  0.00  0.00    +0.233 C 
ATOM      2  O   UNL     1       0.228   1.030  -8.909  0.00  0.00    -0.274 OA
ATOM      3  N   UNL     1      -0.771   0.498 -10.817  0.00  0.00    -0.234 N 
ATOM      4  H   UNL     1      -1.334  -0.120 -11.309  0.00  0.00    +0.173 HD
ENDROOT
BRANCH   3   5
ATOM      5  N   UNL     1      -0.264   1.641 -11.450  0.00  0.00    -0.234 N 
ATOM      6  C   UNL     1      -0.559   1.882 -12.743  0.00  0.00    +0.233 C 
ATOM      7  O   UNL     1      -1.263   1.109 -13.358  0.00  0.00    -0.274 OA
ATOM      8  H   UNL     1       0.298   2.259 -10.958  0.00  0.00    +0.173 HD
BRANCH   6   9
ATOM      9  C   UNL     1      -0.014   3.111 -13.424  0.00  0.00    +0.130 C 
BRANCH   9  10
ATOM     10  C   UNL     1      -0.488   3.144 -14.854  0.00  0.00    -0.033 C 
ATOM     11  C   UNL     1      -1.567   3.802 -15.338  0.00  0.00    -0.001 A 
ATOM     12  C   UNL     1      -2.583   4.649 -14.702  0.00  0.00    +0.010 A 
ATOM     13  C   UNL     1      -3.565   5.179 -15.465  0.00  0.00    +0.001 A 
ATOM     14  C   UNL     1      -3.637   4.941 -16.844  0.00  0.00    +0.002 A 
ATOM     15  C   UNL     1      -2.741   4.174 -17.500  0.00  0.00    +0.026 A 
ATOM     16  C   UNL     1      -1.665   3.566 -16.796  0.00  0.00    +0.043 A 
ATOM     17  N   UNL     1      -0.685   2.793 -17.198  0.00  0.00    -0.380 N 
ATOM     18  C   UNL     1       0.150   2.456 -16.039  0.00  0.00    +0.145 C 
ATOM     19  H   UNL     1      -0.535   2.497 -18.109  0.00  0.00    +0.160 HD
ENDBRANCH   9  10
ENDBRANCH   6   9
ENDBRANCH   3   5
BRANCH   1  20
ATOM     20  C   UNL     1      -1.021  -0.972  -8.843  0.00  0.00    +0.132 C 
BRANCH  20  24
ATOM     21  C   UNL     1       0.323  -1.068  -4.788  0.00  0.00    +0.121 A 
ATOM     22  C   UNL     1      -0.869  -0.435  -5.110  0.00  0.00    +0.046 A 
ATOM     23  C   UNL     1      -1.301  -0.405  -6.422  0.00  0.00    +0.007 A 
ATOM     24  C   UNL     1      -0.547  -1.006  -7.413  0.00  0.00    -0.038 A 
ATOM     25  C   UNL     1       0.641  -1.638  -7.094  0.00  0.00    +0.007 A 
ATOM     26  C   UNL     1       1.080  -1.665  -5.785  0.00  0.00    +0.046 A 
BRANCH  21  27
ATOM     27  O   UNL     1       0.750  -1.098  -3.498  0.00  0.00    -0.488 OA
BRANCH  27  28
ATOM     28  C   UNL     1      -0.081  -0.463  -2.524  0.00  0.00    +0.264 C 
BRANCH  28  31
ATOM     29  C   UNL     1      -0.293  -2.772  -0.274  0.00  0.00    +0.045 C 
ATOM     30  C   UNL     1       0.939  -1.890  -0.483  0.00  0.00    +0.176 C 
ATOM     31  C   UNL     1       0.549  -0.597  -1.162  0.00  0.00    +0.019 C 
ATOM     32  C   UNL     1       0.859   0.391  -0.349  0.00  0.00    +0.041 C 
ATOM     33  N   UNL     1       1.423  -0.084   0.821  0.00  0.00    -0.269 N 
ATOM     34  O   UNL     1       1.494  -1.500   0.782  0.00  0.00    -0.267 OA
ATOM     35  C   UNL     1       0.630   1.849  -0.654  0.00  0.00    +0.065 C 
ATOM     36  H   UNL     1       1.726   0.469   1.559  0.00  0.00    +0.194 HD
ENDBRANCH  28  31
ENDBRANCH  27  28
ENDBRANCH  21  27
ENDBRANCH  20  24
ENDBRANCH   1  20
TORSDOF 8
