REMARK  Name = ZINC39482859
REMARK  11 active torsions:
REMARK  status: ('A' for Active; 'I' for Inactive)
REMARK    1  A    between atoms: C_1  and  C_2
REMARK    2  A    between atoms: C_2  and  C_3
REMARK    3  A    between atoms: C_2  and  S_4
REMARK    4  A    between atoms: S_4  and  C_7
REMARK    5  A    between atoms: C_10  and  N_27
REMARK    6  A    between atoms: C_11  and  N_13
REMARK    7  A    between atoms: C_17  and  C_20
REMARK    8  A    between atoms: C_25  and  O_26
REMARK    9  A    between atoms: N_27  and  S_28
REMARK   10  A    between atoms: S_28  and  S_31
REMARK   11  A    between atoms: S_31  and  C_32
REMARK                            x       y       z     vdW  Elec       q    Type
REMARK                         _______ _______ _______ _____ _____    ______ ____
ROOT
ATOM      1  C   UNL     1      -1.536  -2.381   0.152  0.00  0.00    +0.090 A 
ATOM      2  C   UNL     1      -1.442  -3.156  -0.989  0.00  0.00    +0.029 A 
ATOM      3  C   UNL     1      -1.313  -4.529  -0.888  0.00  0.00    +0.030 A 
ATOM      4  C   UNL     1      -1.278  -5.132   0.360  0.00  0.00    +0.096 A 
ATOM      5  C   UNL     1      -1.373  -4.350   1.511  0.00  0.00    +0.056 A 
ATOM      6  C   UNL     1      -1.497  -2.974   1.401  0.00  0.00    +0.052 A 
ENDROOT
BRANCH   5   7
ATOM      7  N   UNL     1      -1.339  -4.953   2.775  0.00  0.00    -0.331 N 
ATOM      8  C   UNL     1      -0.065  -5.154   3.483  0.00  0.00    +0.086 C 
ATOM      9  C   UNL     1       0.010  -6.614   3.941  0.00  0.00    -0.063 C 
ATOM     10  N   UNL     1      -1.182  -6.939   4.735  0.00  0.00    +0.386 N 
ATOM     11  C   UNL     1      -2.382  -6.851   3.893  0.00  0.00    -0.020 C 
ATOM     12  C   UNL     1      -2.576  -5.398   3.434  0.00  0.00    +0.094 C 
ATOM     13  H   UNL     1      -1.096  -7.876   5.099  0.00  0.00    -0.085 HD
ATOM     14  H   UNL     1      -1.262  -6.288   5.502  0.00  0.00    -0.085 HD
BRANCH  11  15
ATOM     15  C   UNL     1      -3.585  -7.291   4.686  0.00  0.00    -0.018 A 
ATOM     16  C   UNL     1      -3.579  -7.193   6.064  0.00  0.00    +0.005 A 
ATOM     17  C   UNL     1      -4.682  -7.598   6.793  0.00  0.00    +0.000 A 
ATOM     18  C   UNL     1      -5.795  -8.101   6.144  0.00  0.00    +0.004 A 
ATOM     19  C   UNL     1      -5.807  -8.200   4.766  0.00  0.00    +0.045 A 
ATOM     20  C   UNL     1      -4.702  -7.790   4.033  0.00  0.00    +0.118 A 
BRANCH  20  21
ATOM     21  O   UNL     1      -4.713  -7.882   2.677  0.00  0.00    -0.507 OA
ATOM     22  H   UNL     1      -4.383  -8.725   2.337  0.00  0.00    +0.292 HD
ENDBRANCH  20  21
ENDBRANCH  11  15
ENDBRANCH   5   7
BRANCH   1  23
ATOM     23  S   UNL     1      -1.700  -0.632   0.015  0.00  0.00    -0.001 S 
ATOM     24  O   UNL     1      -2.359  -0.234   1.209  0.00  0.00    -0.169 OA
ATOM     25  O   UNL     1      -2.308  -0.423  -1.252  0.00  0.00    -0.169 OA
BRANCH  23  27
ATOM     26  C   UNL     1      -0.019   1.526   0.010  0.00  0.00    +0.032 C 
ATOM     27  C   UNL     1       0.002  -0.004   0.002  0.00  0.00    +0.130 C 
ATOM     28  C   UNL     1       0.742  -0.511   1.242  0.00  0.00    +0.032 C 
ENDBRANCH  23  27
ENDBRANCH   1  23
BRANCH   4  29
ATOM     29  N   UNL     1      -1.148  -6.522   0.465  0.00  0.00    -0.090 NA
BRANCH  29  30
ATOM     30  S   UNL     1      -1.036  -7.449  -0.903  0.00  0.00    +0.116 S 
ATOM     31  O   UNL     1      -2.286  -7.340  -1.571  0.00  0.00    -0.142 OA
ATOM     32  O   UNL     1       0.193  -7.105  -1.527  0.00  0.00    -0.142 OA
BRANCH  30  33
ATOM     33  S   UNL     1      -0.862  -9.401  -0.301  0.00  0.00    +0.016 S 
ATOM     34  C   UNL     1      -2.538  -9.846   0.233  0.00  0.00    +0.112 C 
ENDBRANCH  30  33
ENDBRANCH  29  30
ENDBRANCH   4  29
TORSDOF 8
