REMARK  Name = ZINC45148679
REMARK  12 active torsions:
REMARK  status: ('A' for Active; 'I' for Inactive)
REMARK    1  A    between atoms: C_1  and  C_2
REMARK    2  A    between atoms: C_2  and  C_3
REMARK    3  A    between atoms: C_2  and  C_4
REMARK    4  A    between atoms: C_4  and  C_6
REMARK    5  A    between atoms: C_4  and  N_16
REMARK    6  A    between atoms: C_9  and  C_12
REMARK    7  A    between atoms: C_12  and  C_13
REMARK    8  A    between atoms: C_12  and  C_14
REMARK    9  A    between atoms: C_12  and  C_15
REMARK   10  A    between atoms: N_19  and  N_20
REMARK   11  A    between atoms: N_20  and  C_21
REMARK   12  A    between atoms: C_21  and  C_28
REMARK                            x       y       z     vdW  Elec       q    Type
REMARK                         _______ _______ _______ _____ _____    ______ ____
ROOT
ATOM      1  N   UNL     1      -2.119  -0.061   1.218  0.00  0.00    -0.291 N 
ATOM      2  C   UNL     1      -2.704   1.153   1.228  0.00  0.00    +0.314 C 
ATOM      3  O   UNL     1      -2.663   1.856   0.237  0.00  0.00    -0.252 OA
ATOM      4  N   UNL     1      -3.335   1.588   2.337  0.00  0.00    -0.234 N 
ATOM      5  H   UNL     1      -2.152  -0.622   2.009  0.00  0.00    +0.151 HD
ATOM      6  H   UNL     1      -3.756   2.461   2.345  0.00  0.00    +0.171 HD
ENDROOT
BRANCH   4   7
ATOM      7  N   UNL     1      -3.381   0.798   3.451  0.00  0.00    -0.232 NA
ATOM      8  H   UNL     1      -2.453   0.536   3.747  0.00  0.00    +0.145 HD
BRANCH   7   9
ATOM      9  C   UNL     1      -4.114   1.462   4.537  0.00  0.00    +0.054 C 
ATOM     10  C   UNL     1      -5.507   1.834   4.033  0.00  0.00    +0.047 C 
ATOM     11  C   UNL     1      -6.507   0.677   4.308  0.00  0.00    +0.168 C 
ATOM     12  S   UNL     1      -5.924   0.158   5.982  0.00  0.00    -0.029 S 
ATOM     13  O   UNL     1      -6.466   1.035   6.958  0.00  0.00    -0.174 OA
ATOM     14  O   UNL     1      -6.099  -1.246   6.123  0.00  0.00    -0.174 OA
ATOM     15  C   UNL     1      -4.133   0.527   5.763  0.00  0.00    +0.189 C 
ATOM     16  C   UNL     1      -3.372   2.746   4.913  0.00  0.00    +0.031 C 
ENDBRANCH   7   9
ENDBRANCH   4   7
BRANCH   1  17
ATOM     17  C   UNL     1      -1.433  -0.534   0.013  0.00  0.00    +0.107 C 
BRANCH  17  18
ATOM     18  C   UNL     1      -1.413  -2.041   0.005  0.00  0.00    -0.027 A 
ATOM     19  C   UNL     1      -1.190  -2.735   1.179  0.00  0.00    +0.006 A 
ATOM     20  C   UNL     1      -1.171  -4.117   1.171  0.00  0.00    +0.004 A 
ATOM     21  C   UNL     1      -1.376  -4.805  -0.011  0.00  0.00    -0.042 A 
ATOM     22  C   UNL     1      -1.600  -4.110  -1.185  0.00  0.00    +0.004 A 
ATOM     23  C   UNL     1      -1.623  -2.728  -1.176  0.00  0.00    +0.006 A 
BRANCH  21  24
ATOM     24  C   UNL     1      -1.354  -6.312  -0.019  0.00  0.00    -0.013 C 
ATOM     25  C   UNL     1      -2.447  -6.843   0.911  0.00  0.00    +0.015 C 
ATOM     26  C   UNL     1      -1.605  -6.817  -1.441  0.00  0.00    +0.015 C 
ATOM     27  C   UNL     1       0.011  -6.805   0.464  0.00  0.00    +0.015 C 
ENDBRANCH  21  24
ENDBRANCH  17  18
BRANCH  17  29
ATOM     28  C   UNL     1      -0.019   1.526   0.010  0.00  0.00    +0.009 C 
ATOM     29  C   UNL     1       0.002  -0.004   0.002  0.00  0.00    +0.008 C 
ATOM     30  C   UNL     1       0.742  -0.511   1.242  0.00  0.00    +0.009 C 
ENDBRANCH  17  29
ENDBRANCH   1  17
TORSDOF 6
