REMARK  Name = ZINC20712124
REMARK  4 active torsions:
REMARK  status: ('A' for Active; 'I' for Inactive)
REMARK    1  A    between atoms: C_6  and  S_7
REMARK    2  A    between atoms: S_7  and  N_10
REMARK    3  A    between atoms: N_10  and  C_11
REMARK    4  A    between atoms: C_24  and  C_27
REMARK                            x       y       z     vdW  Elec       q    Type
REMARK                         _______ _______ _______ _____ _____    ______ ____
ROOT
ATOM      1  C   UNL     1      -5.022   3.245  -3.194  0.00  0.00    +0.030 A 
ATOM      2  C   UNL     1      -3.880   2.648  -3.687  0.00  0.00    +0.025 A 
ATOM      3  C   UNL     1      -2.969   2.054  -2.821  0.00  0.00    +0.031 A 
ATOM      4  C   UNL     1      -3.231   2.062  -1.446  0.00  0.00    -0.018 A 
ATOM      5  C   UNL     1      -4.372   2.664  -0.964  0.00  0.00    +0.034 A 
ATOM      6  C   UNL     1      -5.269   3.256  -1.834  0.00  0.00    +0.106 A 
ATOM      7  C   UNL     1      -2.245   1.404  -0.560  0.00  0.00    +0.049 C 
ATOM      8  C   UNL     1      -2.072   1.811   0.858  0.00  0.00    -0.023 C 
ATOM      9  C   UNL     1      -0.805   1.617   1.204  0.00  0.00    -0.030 C 
ATOM     10  C   UNL     1      -0.013   1.086   0.008  0.00  0.00    +0.033 C 
ATOM     11  C   UNL     1      -0.830   1.631  -1.171  0.00  0.00    +0.029 C 
ATOM     12  C   UNL     1      -0.791   0.841  -2.466  0.00  0.00    +0.106 C 
ATOM     13  N   UNL     1      -1.808   1.472  -3.343  0.00  0.00    -0.336 N 
ATOM     14  H   UNL     1      -1.659   1.490  -4.432  0.00  0.00    +0.147 HD
ENDROOT
BRANCH  12  15
ATOM     15  C   UNL     1      -1.164  -0.596  -2.211  0.00  0.00    -0.009 A 
ATOM     16  C   UNL     1      -2.446  -1.036  -2.483  0.00  0.00    +0.008 A 
ATOM     17  C   UNL     1      -2.788  -2.356  -2.255  0.00  0.00    +0.020 A 
ATOM     18  C   UNL     1      -1.849  -3.235  -1.743  0.00  0.00    +0.042 A 
ATOM     19  C   UNL     1      -0.568  -2.794  -1.466  0.00  0.00    +0.040 A 
ATOM     20  C   UNL     1      -0.225  -1.474  -1.700  0.00  0.00    +0.047 A 
ATOM     21 CL   UNL     1       1.382  -0.919  -1.351  0.00  0.00    -0.083 Cl
ATOM     22 CL   UNL     1      -2.280  -4.891  -1.450  0.00  0.00    -0.083 Cl
ENDBRANCH  12  15
BRANCH   6  23
ATOM     23  S   UNL     1      -6.726   4.025  -1.209  0.00  0.00    +0.059 S 
ATOM     24  O   UNL     1      -6.453   4.377   0.140  0.00  0.00    -0.153 OA
ATOM     25  O   UNL     1      -7.129   4.981  -2.180  0.00  0.00    -0.153 OA
BRANCH  23  26
ATOM     26  N   UNL     1      -7.910   2.867  -1.165  0.00  0.00    -0.187 NA
ATOM     27  H   UNL     1      -8.707   2.884  -1.924  0.00  0.00    +0.148 HD
BRANCH  26  28
ATOM     28  C   UNL     1      -7.776   1.716  -0.270  0.00  0.00    +0.077 C 
ATOM     29  C   UNL     1      -7.165   0.542  -1.037  0.00  0.00    +0.020 C 
ATOM     30  C   UNL     1      -7.024  -0.661  -0.101  0.00  0.00    +0.002 C 
ATOM     31  C   UNL     1      -8.404  -1.060   0.427  0.00  0.00    +0.000 C 
ATOM     32  C   UNL     1      -9.015   0.115   1.195  0.00  0.00    +0.002 C 
ATOM     33  C   UNL     1      -9.155   1.317   0.259  0.00  0.00    +0.020 C 
ENDBRANCH  26  28
ENDBRANCH  23  26
ENDBRANCH   6  23
TORSDOF 4
