REMARK  Name = ZINC10784892
REMARK  6 active torsions:
REMARK  status: ('A' for Active; 'I' for Inactive)
REMARK    1  A    between atoms: C_1  and  C_2
REMARK    2  A    between atoms: C_10  and  N_15
REMARK    3  A    between atoms: C_11  and  C_12
REMARK    4  A    between atoms: C_16  and  C_18
REMARK    5  A    between atoms: N_24  and  S_25
REMARK    6  A    between atoms: S_25  and  C_28
REMARK                            x       y       z     vdW  Elec       q    Type
REMARK                         _______ _______ _______ _____ _____    ______ ____
ROOT
ATOM      1  N   UNL     1       0.340  -0.066   0.152  0.00  0.00    -0.278 N 
ATOM      2  C   UNL     1       0.208   1.273   0.065  0.00  0.00    +0.236 C 
ATOM      3  O   UNL     1      -0.895   1.769  -0.026  0.00  0.00    -0.274 OA
ATOM      4  H   UNL     1       1.222  -0.463   0.221  0.00  0.00    +0.155 HD
ENDROOT
BRANCH   1  14
ATOM      5  C   UNL     1      -6.576  -3.486  -1.761  0.00  0.00    +0.109 C 
ATOM      6  C   UNL     1      -5.655  -4.364  -0.953  0.00  0.00    +0.213 C 
ATOM      7  O   UNL     1      -5.718  -5.571  -1.062  0.00  0.00    -0.276 OA
ATOM      8  N   UNL     1      -4.763  -3.809  -0.110  0.00  0.00    -0.297 N 
ATOM      9  C   UNL     1      -3.851  -4.640   0.691  0.00  0.00    +0.113 C 
ATOM     10  C   UNL     1      -2.406  -4.374   0.264  0.00  0.00    +0.056 C 
ATOM     11  C   UNL     1      -2.172  -2.870   0.195  0.00  0.00    -0.020 A 
ATOM     12  C   UNL     1      -3.204  -2.004   0.093  0.00  0.00    +0.013 A 
ATOM     13  S   UNL     1      -2.450  -0.403   0.040  0.00  0.00    -0.076 S 
ATOM     14  C   UNL     1      -0.786  -0.875   0.145  0.00  0.00    +0.084 A 
ATOM     15  C   UNL     1      -0.854  -2.258   0.226  0.00  0.00    +0.068 A 
ATOM     16  C   UNL     1      -4.663  -2.344   0.044  0.00  0.00    +0.150 C 
BRANCH  15  17
ATOM     17  C   UNL     1       0.359  -3.073   0.337  0.00  0.00    +0.244 C 
ATOM     18  O   UNL     1       0.809  -3.348   1.435  0.00  0.00    -0.270 OA
ATOM     19  N   UNL     1       0.977  -3.518  -0.775  0.00  0.00    -0.325 N 
ATOM     20  H   UNL     1       0.619  -3.299  -1.649  0.00  0.00    +0.145 HD
ATOM     21  H   UNL     1       1.780  -4.058  -0.701  0.00  0.00    +0.145 HD
ENDBRANCH  15  17
ENDBRANCH   1  14
BRANCH   2  22
ATOM     22  C   UNL     1       1.432   2.152   0.073  0.00  0.00    +0.166 C 
ATOM     23  C   UNL     1       1.530   2.908  -1.256  0.00  0.00    +0.030 C 
ATOM     24  C   UNL     1       2.693   3.901  -1.189  0.00  0.00    +0.003 C 
ATOM     25  C   UNL     1       2.435   4.917  -0.073  0.00  0.00    +0.017 C 
ATOM     26  C   UNL     1       2.347   4.184   1.269  0.00  0.00    +0.110 C 
ATOM     27  N   UNL     1       1.331   3.127   1.168  0.00  0.00    -0.164 NA
BRANCH  27  28
ATOM     28  S   UNL     1       0.093   3.038   2.265  0.00  0.00    +0.068 S 
ATOM     29  O   UNL     1      -0.365   1.693   2.252  0.00  0.00    -0.152 OA
ATOM     30  O   UNL     1       0.554   3.674   3.449  0.00  0.00    -0.152 OA
BRANCH  28  31
ATOM     31  C   UNL     1      -1.226   4.026   1.643  0.00  0.00    +0.143 A 
ATOM     32  C   UNL     1      -2.332   3.641   0.960  0.00  0.00    +0.036 A 
ATOM     33  C   UNL     1      -3.245   4.602   0.567  0.00  0.00    +0.010 A 
ATOM     34  C   UNL     1      -3.008   5.900   0.876  0.00  0.00    +0.047 A 
ATOM     35  S   UNL     1      -1.457   5.793   1.755  0.00  0.00    -0.077 S 
ENDBRANCH  28  31
ENDBRANCH  27  28
ENDBRANCH   2  22
TORSDOF 5
