REMARK  Name = ZINC63570218
REMARK  11 active torsions:
REMARK  status: ('A' for Active; 'I' for Inactive)
REMARK    1  A    between atoms: C_1  and  C_2
REMARK    2  A    between atoms: C_2  and  N_3
REMARK    3  A    between atoms: N_3  and  C_4
REMARK    4  A    between atoms: N_3  and  C_6
REMARK    5  A    between atoms: C_4  and  C_5
REMARK    6  A    between atoms: C_6  and  C_7
REMARK    7  A    between atoms: C_7  and  N_8
REMARK    8  A    between atoms: N_17  and  C_18
REMARK    9  A    between atoms: C_18  and  C_20
REMARK   10  A    between atoms: C_20  and  N_26
REMARK   11  A    between atoms: C_27  and  C_29
REMARK                            x       y       z     vdW  Elec       q    Type
REMARK                         _______ _______ _______ _____ _____    ______ ____
ROOT
ATOM      1  N   UNL     1      -1.446  -3.677  -1.753  0.00  0.00    -0.314 N 
ATOM      2  C   UNL     1      -1.613  -4.343  -2.962  0.00  0.00    +0.068 A 
ATOM      3  C   UNL     1      -1.561  -3.931  -4.287  0.00  0.00    +0.028 A 
ATOM      4  C   UNL     1      -1.775  -4.844  -5.300  0.00  0.00    +0.002 A 
ATOM      5  C   UNL     1      -2.042  -6.169  -5.001  0.00  0.00    +0.002 A 
ATOM      6  C   UNL     1      -2.097  -6.590  -3.687  0.00  0.00    +0.028 A 
ATOM      7  C   UNL     1      -1.882  -5.680  -2.661  0.00  0.00    +0.066 A 
ATOM      8  N   UNL     1      -1.872  -5.798  -1.275  0.00  0.00    -0.326 N 
ATOM      9  C   UNL     1      -1.601  -4.576  -0.746  0.00  0.00    +0.201 A 
ATOM     10  N   UNL     1      -1.505  -4.303   0.553  0.00  0.00    -0.145 NA
ATOM     11  H   UNL     1      -2.029  -6.613  -0.773  0.00  0.00    +0.169 HD
ENDROOT
BRANCH  10  12
ATOM     12  C   UNL     1      -1.558  -5.287   1.445  0.00  0.00    +0.263 C 
ATOM     13  O   UNL     1      -1.593  -6.444   1.072  0.00  0.00    -0.271 OA
BRANCH  12  14
ATOM     14  C   UNL     1      -1.573  -4.969   2.918  0.00  0.00    +0.113 C 
ATOM     15  C   UNL     1      -3.009  -4.685   3.363  0.00  0.00    +0.035 C 
ATOM     16  C   UNL     1      -3.025  -4.362   4.859  0.00  0.00    +0.003 C 
ATOM     17  C   UNL     1      -2.473  -5.554   5.644  0.00  0.00    +0.000 C 
ATOM     18  C   UNL     1      -1.037  -5.837   5.198  0.00  0.00    +0.003 C 
ATOM     19  C   UNL     1      -1.022  -6.160   3.703  0.00  0.00    +0.035 C 
BRANCH  14  20
ATOM     20  N   UNL     1      -0.742  -3.789   3.171  0.00  0.00    -0.302 N 
ATOM     21  C   UNL     1      -1.040  -2.615   2.582  0.00  0.00    +0.211 C 
ATOM     22  O   UNL     1      -1.997  -2.534   1.841  0.00  0.00    -0.276 OA
ATOM     23  C   UNL     1      -0.185  -1.402   2.842  0.00  0.00    +0.109 C 
ATOM     24  H   UNL     1       0.024  -3.854   3.764  0.00  0.00    +0.150 HD
ENDBRANCH  14  20
ENDBRANCH  12  14
ENDBRANCH  10  12
BRANCH   1  25
ATOM     25  C   UNL     1      -1.147  -2.252  -1.593  0.00  0.00    +0.106 C 
BRANCH  25  26
ATOM     26  C   UNL     1       0.369  -2.047  -1.579  0.00  0.00    -0.057 C 
BRANCH  26  27
ATOM     27  N   UNL     1       0.669  -0.618  -1.418  0.00  0.00    +0.380 N 
ATOM     28  H   UNL     1       0.199  -0.092  -2.140  0.00  0.00    -0.082 HD
BRANCH  27  30
ATOM     29  C   UNL     1       0.382   1.351   0.011  0.00  0.00    -0.017 C 
ATOM     30  C   UNL     1       0.204  -0.165  -0.101  0.00  0.00    -0.082 C 
ENDBRANCH  27  30
BRANCH  27  31
ATOM     31  C   UNL     1       2.119  -0.406  -1.525  0.00  0.00    -0.082 C 
ATOM     32  C   UNL     1       2.580  -0.741  -2.945  0.00  0.00    -0.017 C 
ENDBRANCH  27  31
ENDBRANCH  26  27
ENDBRANCH  25  26
ENDBRANCH   1  25
TORSDOF 8
