REMARK  Name = ZINC59311352
REMARK  9 active torsions:
REMARK  status: ('A' for Active; 'I' for Inactive)
REMARK    1  A    between atoms: C_1  and  C_2
REMARK    2  A    between atoms: C_5  and  N_9
REMARK    3  A    between atoms: C_10  and  C_12
REMARK    4  A    between atoms: C_12  and  S_13
REMARK    5  A    between atoms: S_13  and  C_14
REMARK    6  A    between atoms: N_19  and  N_20
REMARK    7  A    between atoms: C_21  and  C_22
REMARK    8  A    between atoms: C_21  and  C_23
REMARK    9  A    between atoms: C_26  and  N_29
REMARK                            x       y       z     vdW  Elec       q    Type
REMARK                         _______ _______ _______ _____ _____    ______ ____
ROOT
ATOM      1  C   UNL     1      -0.358  -8.691  -2.732  0.00  0.00    +0.211 A 
ATOM      2  N   UNL     1      -0.457  -9.563  -3.741  0.00  0.00    -0.186 NA
ATOM      3  C   UNL     1      -0.512 -10.789  -3.263  0.00  0.00    +0.232 A 
ATOM      4  N   UNL     1      -0.448 -10.715  -1.917  0.00  0.00    -0.245 N 
ATOM      5  N   UNL     1      -0.344  -9.351  -1.598  0.00  0.00    -0.144 NA
ATOM      6  N   UNL     1      -0.617 -11.949  -4.009  0.00  0.00    -0.205 N 
ATOM      7  H   UNL     1      -0.651 -12.810  -3.565  0.00  0.00    +0.177 HD
ATOM      8  H   UNL     1      -0.467 -11.457  -1.292  0.00  0.00    +0.192 HD
ENDROOT
BRANCH   6   9
ATOM      9  N   UNL     1      -0.674 -11.879  -5.407  0.00  0.00    -0.184 NA
ATOM     10  C   UNL     1      -0.773 -12.967  -6.108  0.00  0.00    +0.063 C 
ATOM     11  C   UNL     1      -0.826 -14.306  -5.417  0.00  0.00    +0.068 C 
BRANCH  10  12
ATOM     12  C   UNL     1      -0.833 -12.894  -7.579  0.00  0.00    -0.002 A 
ATOM     13  C   UNL     1      -0.944 -14.063  -8.336  0.00  0.00    +0.012 A 
ATOM     14  C   UNL     1      -1.000 -13.987  -9.712  0.00  0.00    +0.033 A 
ATOM     15  C   UNL     1      -0.945 -12.757 -10.343  0.00  0.00    +0.126 A 
ATOM     16  C   UNL     1      -0.833 -11.595  -9.600  0.00  0.00    +0.033 A 
ATOM     17  C   UNL     1      -0.784 -11.655  -8.223  0.00  0.00    +0.012 A 
BRANCH  15  18
ATOM     18  N   UNL     1      -1.004 -12.684 -11.821  0.00  0.00    +0.056 N 
ATOM     19  O   UNL     1      -1.101 -13.697 -12.473  0.00  0.00    -0.126 OA
ATOM     20  O   UNL     1      -0.956 -11.610 -12.376  0.00  0.00    -0.126 OA
ENDBRANCH  15  18
ENDBRANCH  10  12
ENDBRANCH   6   9
BRANCH   1  21
ATOM     21  S   UNL     1      -0.257  -6.940  -2.898  0.00  0.00    -0.075 S 
BRANCH  21  22
ATOM     22  C   UNL     1      -0.136  -6.343  -1.190  0.00  0.00    +0.173 C 
BRANCH  22  24
ATOM     23  N   UNL     1       0.057  -4.171  -0.023  0.00  0.00    -0.284 N 
ATOM     24  C   UNL     1      -0.042  -4.839  -1.189  0.00  0.00    +0.228 C 
ATOM     25  O   UNL     1      -0.055  -4.230  -2.238  0.00  0.00    -0.275 OA
ATOM     26  H   UNL     1       0.149  -4.660   0.810  0.00  0.00    +0.155 HD
BRANCH  23  31
ATOM     27  C   UNL     1      -0.063   1.502   0.016  0.00  0.00    +0.044 C 
ATOM     28  C   UNL     1      -0.031  -0.005   0.006  0.00  0.00    -0.049 A 
ATOM     29  C   UNL     1      -0.622  -0.701  -1.033  0.00  0.00    +0.005 A 
ATOM     30  C   UNL     1      -0.594  -2.081  -1.045  0.00  0.00    +0.024 A 
ATOM     31  C   UNL     1       0.028  -2.771  -0.013  0.00  0.00    +0.047 A 
ATOM     32  C   UNL     1       0.621  -2.070   1.029  0.00  0.00    +0.039 A 
ATOM     33  C   UNL     1       0.595  -0.688   1.032  0.00  0.00    +0.020 A 
ATOM     34 BR   UNL     1       1.470  -3.004   2.437  0.00  0.00    -0.048 Br
ENDBRANCH  23  31
ENDBRANCH  22  24
ENDBRANCH  21  22
ENDBRANCH   1  21
TORSDOF 7
