REMARK  Name = ZINC09453041
REMARK  6 active torsions:
REMARK  status: ('A' for Active; 'I' for Inactive)
REMARK    1  A    between atoms: C_1  and  C_2
REMARK    2  A    between atoms: C_4  and  N_9
REMARK    3  A    between atoms: C_10  and  C_12
REMARK    4  A    between atoms: C_12  and  N_13
REMARK    5  A    between atoms: C_16  and  C_21
REMARK    6  A    between atoms: C_21  and  C_22
REMARK                            x       y       z     vdW  Elec       q    Type
REMARK                         _______ _______ _______ _____ _____    ______ ____
ROOT
ATOM      1  N   UNL     1       2.407   1.044  -0.012  0.00  0.00    -0.216 N 
ATOM      2  C   UNL     1       2.981   0.573  -1.137  0.00  0.00    +0.244 C 
ATOM      3  O   UNL     1       2.674   0.835  -2.281  0.00  0.00    -0.273 OA
ATOM      4  C   UNL     1       4.090  -0.351  -0.676  0.00  0.00    +0.165 C 
ATOM      5  N   UNL     1       4.004  -0.288   0.793  0.00  0.00    -0.287 N 
ATOM      6  C   UNL     1       2.996   0.554   1.084  0.00  0.00    +0.310 C 
ATOM      7  O   UNL     1       2.657   0.836   2.217  0.00  0.00    -0.252 OA
ATOM      8  H   UNL     1       4.567  -0.759   1.428  0.00  0.00    +0.151 HD
ENDROOT
BRANCH   1   9
ATOM      9  C   UNL     1       1.280   1.980   0.007  0.00  0.00    +0.214 C 
BRANCH   9  11
ATOM     10  N   UNL     1      -1.191   1.867   0.018  0.00  0.00    -0.284 N 
ATOM     11  C   UNL     1      -0.014   1.209   0.007  0.00  0.00    +0.235 C 
ATOM     12  O   UNL     1       0.002  -0.004  -0.008  0.00  0.00    -0.274 OA
ATOM     13  H   UNL     1      -1.205   2.833   0.098  0.00  0.00    +0.155 HD
BRANCH  10  17
ATOM     14  C   UNL     1      -5.817   1.589  -1.623  0.00  0.00    +0.045 C 
ATOM     15  C   UNL     1      -4.650   0.997  -0.876  0.00  0.00    -0.035 A 
ATOM     16  C   UNL     1      -3.468   1.704  -0.769  0.00  0.00    +0.027 A 
ATOM     17  C   UNL     1      -2.391   1.155  -0.086  0.00  0.00    +0.034 A 
ATOM     18  C   UNL     1      -2.510  -0.099   0.499  0.00  0.00    +0.024 A 
ATOM     19  C   UNL     1      -3.696  -0.799   0.395  0.00  0.00    +0.017 A 
ATOM     20  C   UNL     1      -4.765  -0.252  -0.292  0.00  0.00    +0.021 A 
ATOM     21 BR   UNL     1      -6.387  -1.214  -0.432  0.00  0.00    -0.050 Br
ENDBRANCH  10  17
ENDBRANCH   9  11
ENDBRANCH   1   9
BRANCH   4  22
ATOM     22  C   UNL     1       3.842  -1.778  -1.169  0.00  0.00    +0.069 C 
BRANCH  22  23
ATOM     23  C   UNL     1       5.017  -2.647  -0.803  0.00  0.00    -0.020 A 
ATOM     24  C   UNL     1       6.066  -2.945  -1.586  0.00  0.00    +0.087 A 
ATOM     25  N   UNL     1       6.936  -3.758  -0.913  0.00  0.00    -0.360 N 
ATOM     26  H   UNL     1       7.767  -4.104  -1.273  0.00  0.00    +0.165 HD
ATOM     27  C   UNL     1       6.452  -4.018   0.350  0.00  0.00    +0.047 A 
ATOM     28  C   UNL     1       5.229  -3.333   0.474  0.00  0.00    +0.003 A 
ATOM     29  C   UNL     1       4.503  -3.415   1.664  0.00  0.00    +0.010 A 
ATOM     30  C   UNL     1       4.984  -4.161   2.703  0.00  0.00    +0.001 A 
ATOM     31  C   UNL     1       6.190  -4.838   2.585  0.00  0.00    +0.002 A 
ATOM     32  C   UNL     1       6.923  -4.771   1.420  0.00  0.00    +0.026 A 
ENDBRANCH  22  23
ENDBRANCH   4  22
TORSDOF 5
