REMARK  Name = ZINC60277640
REMARK  11 active torsions:
REMARK  status: ('A' for Active; 'I' for Inactive)
REMARK    1  A    between atoms: C_1  and  O_2
REMARK    2  A    between atoms: O_2  and  C_3
REMARK    3  A    between atoms: C_3  and  C_4
REMARK    4  A    between atoms: C_8  and  C_13
REMARK    5  A    between atoms: N_19  and  C_20
REMARK    6  A    between atoms: C_20  and  C_22
REMARK    7  A    between atoms: C_20  and  C_24
REMARK    8  A    between atoms: C_22  and  O_23
REMARK    9  A    between atoms: C_24  and  C_26
REMARK   10  A    between atoms: C_24  and  O_35
REMARK   11  A    between atoms: C_29  and  N_32
REMARK                            x       y       z     vdW  Elec       q    Type
REMARK                         _______ _______ _______ _____ _____    ______ ____
ROOT
ATOM      1  C   UNK A   0       0.205  -2.531  -0.307  0.00  0.00    +0.158 A 
ATOM      2  N   UNK A   0       1.345  -3.081   0.068  0.00  0.00    -0.214 NA
ATOM      3  C   UNK A   0       1.417  -4.333   0.492  0.00  0.00    +0.132 A 
ATOM      4  C   UNK A   0       0.233  -5.115   0.547  0.00  0.00    +0.055 A 
ATOM      5  C   UNK A   0       0.050  -6.499   0.972  0.00  0.00    +0.002 A 
ATOM      6  C   UNK A   0      -1.194  -7.033   0.936  0.00  0.00    +0.056 A 
ATOM      7  S   UNK A   0      -2.202  -5.696   0.324  0.00  0.00    -0.076 S 
ATOM      8  C   UNK A   0      -0.945  -4.461   0.131  0.00  0.00    +0.114 A 
ATOM      9  N   UNK A   0      -0.928  -3.205  -0.273  0.00  0.00    -0.222 NA
ATOM     10  N   UNK A   1       2.631  -4.873   0.876  0.00  0.00    -0.321 N 
ATOM     11  H   UNK A   1       2.694  -5.815   1.100  0.00  0.00    +0.148 HD
ENDROOT
BRANCH   5  12
ATOM     12  C   UNK A   0       1.204  -7.306   1.434  0.00  0.00    -0.017 A 
ATOM     13  C   UNK A   0       1.953  -6.890   2.534  0.00  0.00    +0.008 A 
ATOM     14  C   UNK A   0       3.027  -7.645   2.960  0.00  0.00    +0.001 A 
ATOM     15  C   UNK A   0       3.362  -8.812   2.296  0.00  0.00    +0.000 A 
ATOM     16  C   UNK A   0       2.623  -9.229   1.203  0.00  0.00    +0.001 A 
ATOM     17  C   UNK A   0       1.543  -8.486   0.772  0.00  0.00    +0.008 A 
ENDBRANCH   5  12
BRANCH   1  18
ATOM     18  C   UNK A   0       0.197  -1.100  -0.780  0.00  0.00    +0.235 C 
BRANCH  18  20
ATOM     19  C   UNK A   0      -0.040   1.156  -0.005  0.00  0.00    +0.194 C 
ATOM     20  O   UNK A   0      -0.015  -0.232   0.335  0.00  0.00    -0.375 OA
ENDBRANCH  18  20
ENDBRANCH   1  18
BRANCH  10  21
ATOM     21  C   UNK A   1       3.823  -4.023   0.945  0.00  0.00    +0.130 C 
BRANCH  21  22
ATOM     22  C   UNK A   1       3.871  -3.322   2.304  0.00  0.00    +0.181 C 
BRANCH  22  23
ATOM     23  O   UNK A   1       4.008  -4.298   3.339  0.00  0.00    -0.393 OA
ATOM     24  H   UNK A   1       4.045  -3.923   4.229  0.00  0.00    +0.209 HD
ENDBRANCH  22  23
ENDBRANCH  21  22
BRANCH  21  25
ATOM     25  C   UNK A   1       5.075  -4.885   0.771  0.00  0.00    +0.167 C 
BRANCH  25  26
ATOM     26  C   UNK A   1       5.093  -5.469  -0.619  0.00  0.00    -0.017 A 
ATOM     27  C   UNK A   1       5.618  -4.738  -1.668  0.00  0.00    +0.008 A 
ATOM     28  C   UNK A   1       5.635  -5.274  -2.943  0.00  0.00    +0.033 A 
ATOM     29  C   UNK A   1       5.128  -6.540  -3.167  0.00  0.00    +0.126 A 
ATOM     30  C   UNK A   1       4.604  -7.271  -2.117  0.00  0.00    +0.033 A 
ATOM     31  C   UNK A   1       4.591  -6.737  -0.842  0.00  0.00    +0.008 A 
BRANCH  29  32
ATOM     32  N   UNK A   1       5.146  -7.113  -4.532  0.00  0.00    +0.056 N 
ATOM     33  O   UNK A   1       5.604  -6.474  -5.450  0.00  0.00    -0.126 OA
ATOM     34  O   UNK A   1       4.702  -8.221  -4.728  0.00  0.00    -0.126 OA
ENDBRANCH  29  32
ENDBRANCH  25  26
BRANCH  25  35
ATOM     35  O   UNK A   1       6.239  -4.079   0.964  0.00  0.00    -0.385 OA
ATOM     36  H   UNK A   1       6.271  -3.293   0.401  0.00  0.00    +0.210 HD
ENDBRANCH  25  35
ENDBRANCH  21  25
ENDBRANCH  10  21
TORSDOF 10
