REMARK  Name = ZINC02302222
REMARK  2 active torsions:
REMARK  status: ('A' for Active; 'I' for Inactive)
REMARK    1  A    between atoms: C_4  and  C_7
REMARK    2  A    between atoms: C_18  and  C_20
REMARK                            x       y       z     vdW  Elec       q    Type
REMARK                         _______ _______ _______ _____ _____    ______ ____
ROOT
ATOM      1  C   UNL     1       3.711  -0.707  -0.038  0.00  0.00    +0.159 C 
ATOM      2  C   UNL     1       4.054  -1.096   1.384  0.00  0.00    +0.027 C 
ATOM      3  C   UNL     1       4.230  -2.404   1.659  0.00  0.00    +0.083 C 
ATOM      4  C   UNL     1       4.556  -2.772   3.060  0.00  0.00    +0.042 A 
ATOM      5  C   UNL     1       5.063  -4.023   3.382  0.00  0.00    +0.013 A 
ATOM      6  C   UNL     1       5.355  -4.322   4.699  0.00  0.00    +0.001 A 
ATOM      7  C   UNL     1       5.144  -3.380   5.691  0.00  0.00    +0.004 A 
ATOM      8  C   UNL     1       4.638  -2.132   5.378  0.00  0.00    +0.046 A 
ATOM      9  C   UNL     1       4.339  -1.819   4.064  0.00  0.00    +0.131 A 
ATOM     10  O   UNL     1       3.835  -0.604   3.729  0.00  0.00    -0.479 OA
ATOM     11  C   UNL     1       4.204  -0.061   2.460  0.00  0.00    +0.234 C 
ATOM     12  N   UNL     1       4.114  -3.353   0.697  0.00  0.00    -0.213 NA
ATOM     13  C   UNL     1       3.821  -3.103  -0.558  0.00  0.00    +0.237 C 
ATOM     14  N   UNL     1       3.604  -1.815  -0.995  0.00  0.00    -0.208 N 
ATOM     15  N   UNL     1       3.313  -1.901  -2.358  0.00  0.00    -0.251 N 
ATOM     16  C   UNL     1       3.367  -3.223  -2.681  0.00  0.00    +0.203 C 
ATOM     17  N   UNL     1       3.667  -3.914  -1.627  0.00  0.00    -0.205 NA
ATOM     18  H   UNL     1       3.113  -1.165  -2.957  0.00  0.00    +0.171 HD
ENDROOT
BRANCH  11  19
ATOM     19  C   UNL     1       5.639   0.398   2.513  0.00  0.00    -0.003 A 
ATOM     20  C   UNL     1       6.588  -0.373   3.158  0.00  0.00    +0.010 A 
ATOM     21  C   UNL     1       7.903   0.047   3.206  0.00  0.00    +0.039 A 
ATOM     22  C   UNL     1       8.271   1.240   2.608  0.00  0.00    +0.123 A 
ATOM     23  C   UNL     1       7.320   2.012   1.962  0.00  0.00    +0.039 A 
ATOM     24  C   UNL     1       6.006   1.587   1.910  0.00  0.00    +0.010 A 
ATOM     25  F   UNL     1       9.557   1.652   2.655  0.00  0.00    -0.205 F 
ENDBRANCH  11  19
BRANCH   1  29
ATOM     26  C   UNL     1      -0.017   1.378   0.010  0.00  0.00    +0.000 A 
ATOM     27  C   UNL     1       1.171   2.086   0.002  0.00  0.00    +0.000 A 
ATOM     28  C   UNL     1       2.377   1.411  -0.013  0.00  0.00    +0.006 A 
ATOM     29  C   UNL     1       2.396   0.029  -0.020  0.00  0.00    -0.021 A 
ATOM     30  C   UNL     1       1.208  -0.679  -0.012  0.00  0.00    +0.006 A 
ATOM     31  C   UNL     1       0.002  -0.004   0.002  0.00  0.00    +0.000 A 
ENDBRANCH   1  29
TORSDOF 2
