REMARK  Name = ZINC41585963
REMARK  4 active torsions:
REMARK  status: ('A' for Active; 'I' for Inactive)
REMARK    1  A    between atoms: N_10  and  C_13
REMARK    2  A    between atoms: C_13  and  C_14
REMARK    3  A    between atoms: C_15  and  O_32
REMARK    4  A    between atoms: C_22  and  C_25
REMARK                            x       y       z     vdW  Elec       q    Type
REMARK                         _______ _______ _______ _____ _____    ______ ____
ROOT
ATOM      1  C   UNL     1       0.108  -6.738  -1.565  0.00  0.00    +0.051 A 
ATOM      2  C   UNL     1       0.429  -7.790  -0.723  0.00  0.00    +0.125 A 
ATOM      3  C   UNL     1      -0.545  -8.702  -0.323  0.00  0.00    +0.046 A 
ATOM      4  C   UNL     1      -1.834  -8.568  -0.754  0.00  0.00    +0.019 A 
ATOM      5  C   UNL     1      -2.173  -7.512  -1.599  0.00  0.00    +0.065 A 
ATOM      6  C   UNL     1      -1.198  -6.585  -2.011  0.00  0.00    +0.146 A 
ATOM      7  O   UNL     1      -1.528  -5.572  -2.836  0.00  0.00    -0.462 OA
ATOM      8  C   UNL     1      -2.798  -5.222  -3.046  0.00  0.00    +0.208 A 
ATOM      9  C   UNL     1      -3.846  -6.019  -2.711  0.00  0.00    +0.064 A 
ATOM     10  C   UNL     1      -3.555  -7.324  -2.082  0.00  0.00    +0.200 A 
ATOM     11  O   UNL     1      -4.406  -8.188  -1.957  0.00  0.00    -0.286 OA
ENDROOT
BRANCH   9  12
ATOM     12  C   UNL     1      -5.242  -5.596  -2.978  0.00  0.00    -0.011 A 
ATOM     13  C   UNL     1      -6.114  -5.353  -1.919  0.00  0.00    +0.010 A 
ATOM     14  C   UNL     1      -7.412  -4.958  -2.174  0.00  0.00    +0.020 A 
ATOM     15  C   UNL     1      -7.848  -4.804  -3.478  0.00  0.00    +0.041 A 
ATOM     16  C   UNL     1      -6.985  -5.045  -4.534  0.00  0.00    +0.020 A 
ATOM     17  C   UNL     1      -5.684  -5.434  -4.290  0.00  0.00    +0.010 A 
ATOM     18 CL   UNL     1      -9.482  -4.308  -3.792  0.00  0.00    -0.084 Cl
ENDBRANCH   9  12
BRANCH   2  19
ATOM     19  O   UNL     1       1.705  -7.934  -0.284  0.00  0.00    -0.506 OA
ATOM     20  H   UNL     1       1.891  -7.471   0.544  0.00  0.00    +0.292 HD
ENDBRANCH   2  19
BRANCH   1  21
ATOM     21  C   UNL     1       1.171  -5.759  -1.990  0.00  0.00    +0.127 C 
BRANCH  21  31
ATOM     22  C   UNL     1      -0.017   1.379  -0.013  0.00  0.00    +0.005 A 
ATOM     23  C   UNL     1       1.195   2.058   0.002  0.00  0.00    +0.018 A 
ATOM     24  C   UNL     1       2.373   1.339   0.009  0.00  0.00    +0.084 A 
ATOM     25  N   UNL     1       2.361   0.020   0.001  0.00  0.00    -0.350 N 
ATOM     26  C   UNL     1       1.227  -0.664  -0.014  0.00  0.00    +0.099 A 
ATOM     27  C   UNL     1       0.002  -0.004  -0.021  0.00  0.00    +0.042 A 
ATOM     28  N   UNL     1       1.260  -2.054  -0.022  0.00  0.00    -0.314 N 
ATOM     29  C   UNL     1       2.535  -2.777  -0.142  0.00  0.00    +0.122 C 
ATOM     30  C   UNL     1       2.407  -3.805  -1.271  0.00  0.00    +0.103 C 
ATOM     31  N   UNL     1       1.232  -4.653  -1.026  0.00  0.00    -0.295 NA
ATOM     32  C   UNL     1      -0.007  -3.865  -1.049  0.00  0.00    +0.103 C 
ATOM     33  C   UNL     1       0.023  -2.839   0.095  0.00  0.00    +0.122 C 
ATOM     34  H   UNL     1       3.203  -0.461   0.006  0.00  0.00    +0.166 HD
ENDBRANCH  21  31
ENDBRANCH   1  21
TORSDOF 4
