REMARK  Name = ZINC44963167
REMARK  6 active torsions:
REMARK  status: ('A' for Active; 'I' for Inactive)
REMARK    1  A    between atoms: C_1  and  C_2
REMARK    2  A    between atoms: C_18  and  C_32
REMARK    3  A    between atoms: C_20  and  O_30
REMARK    4  A    between atoms: C_23  and  C_29
REMARK    5  A    between atoms: C_24  and  C_25
REMARK    6  A    between atoms: C_24  and  O_28
REMARK                            x       y       z     vdW  Elec       q    Type
REMARK                         _______ _______ _______ _____ _____    ______ ____
ROOT
ATOM      1  C   UNL     1       0.016   1.628   0.780  0.00  0.00    +0.011 C 
ATOM      2  C   UNL     1      -0.025   0.121   0.517  0.00  0.00    +0.027 C 
ATOM      3  C   UNL     1       0.541  -0.189  -0.896  0.00  0.00    +0.011 C 
ATOM      4  C   UNL     1       1.293  -1.507  -0.681  0.00  0.00    +0.005 C 
ATOM      5  C   UNL     1       2.375  -1.828  -1.695  0.00  0.00    +0.037 C 
ATOM      6  C   UNL     1       1.762  -2.014  -3.087  0.00  0.00    +0.048 C 
ATOM      7  C   UNL     1       0.506  -2.875  -2.934  0.00  0.00    +0.194 C 
ATOM      8  C   UNL     1       0.823  -4.112  -2.147  0.00  0.00    -0.020 C 
ATOM      9  C   UNL     1      -0.080  -5.120  -2.149  0.00  0.00    +0.054 C 
ATOM     10  C   UNL     1       0.286  -6.289  -1.302  0.00  0.00    +0.179 C 
ATOM     11  O   UNL     1       0.108  -7.438  -1.660  0.00  0.00    -0.288 OA
ATOM     12  C   UNL     1       0.887  -5.943   0.015  0.00  0.00    +0.047 C 
ATOM     13  C   UNL     1       1.778  -4.928  -0.010  0.00  0.00    -0.009 C 
ATOM     14  C   UNL     1       2.065  -4.306  -1.349  0.00  0.00    +0.047 C 
ATOM     15  C   UNL     1       3.034  -3.141  -1.259  0.00  0.00    +0.153 C 
ATOM     16  C   UNL     1       3.629  -3.017   0.144  0.00  0.00    +0.154 C 
ATOM     17  C   UNL     1       2.565  -2.565   1.159  0.00  0.00    +0.044 C 
ATOM     18  C   UNL     1       1.991  -1.251   0.683  0.00  0.00    +0.010 C 
ATOM     19  C   UNL     1       0.888  -0.619   1.527  0.00  0.00    +0.143 C 
ATOM     20  C   UNL     1       3.134  -0.251   0.498  0.00  0.00    +0.015 C 
ATOM     21  F   UNL     1       4.094  -3.400  -2.135  0.00  0.00    -0.238 F 
ATOM     22  C   UNL     1       2.843  -5.385  -2.106  0.00  0.00    +0.023 C 
ATOM     23  F   UNL     1      -0.480  -2.142  -2.266  0.00  0.00    -0.241 F 
ENDROOT
BRANCH  19  24
ATOM     24  C   UNL     1       0.108  -1.685   2.251  0.00  0.00    +0.232 C 
ATOM     25  O   UNL     1       0.021  -1.658   3.461  0.00  0.00    -0.281 OA
ATOM     26  S   UNL     1      -0.634  -2.898   1.394  0.00  0.00    -0.009 SA
ENDBRANCH  19  24
BRANCH  19  27
ATOM     27  O   UNL     1       1.447   0.307   2.460  0.00  0.00    -0.379 OA
ATOM     28  H   UNL     1       0.789   0.771   2.996  0.00  0.00    +0.211 HD
ENDBRANCH  19  27
BRANCH  16  29
ATOM     29  O   UNL     1       4.690  -2.061   0.121  0.00  0.00    -0.389 OA
ATOM     30  H   UNL     1       5.118  -1.927   0.978  0.00  0.00    +0.210 HD
ENDBRANCH  16  29
TORSDOF 3
