REMARK  Name = ZINC20911722
REMARK  13 active torsions:
REMARK  status: ('A' for Active; 'I' for Inactive)
REMARK    1  A    between atoms: C_1  and  C_2
REMARK    2  A    between atoms: C_3  and  C_11
REMARK    3  A    between atoms: C_4  and  C_10
REMARK    4  A    between atoms: N_5  and  C_7
REMARK    5  A    between atoms: C_7  and  C_8
REMARK    6  A    between atoms: C_7  and  C_9
REMARK    7  A    between atoms: N_12  and  N_13
REMARK    8  A    between atoms: C_17  and  S_20
REMARK    9  A    between atoms: N_18  and  N_19
REMARK   10  A    between atoms: S_20  and  C_21
REMARK   11  A    between atoms: C_21  and  C_22
REMARK   12  A    between atoms: N_24  and  C_25
REMARK   13  A    between atoms: N_24  and  C_31
REMARK                            x       y       z     vdW  Elec       q    Type
REMARK                         _______ _______ _______ _____ _____    ______ ____
ROOT
ATOM      1  N   UNL     1      -0.597   1.768  -6.312  0.00  0.00    -0.204 N 
ATOM      2  C   UNL     1      -0.452   1.639  -4.938  0.00  0.00    +0.254 A 
ATOM      3  N   UNL     1       0.593   1.151  -4.316  0.00  0.00    -0.109 NA
ATOM      4  N   UNL     1       0.340   1.202  -2.939  0.00  0.00    -0.119 NA
ATOM      5  C   UNL     1      -0.856   1.713  -2.765  0.00  0.00    +0.210 A 
ATOM      6  N   UNL     1      -1.375   1.999  -3.996  0.00  0.00    -0.211 N 
ATOM      7  H   UNL     1      -1.521   2.193  -6.730  0.00  0.00    +0.177 HD
ENDROOT
BRANCH   6   8
ATOM      8  N   UNL     1      -2.601   2.549  -4.242  0.00  0.00    -0.294 N 
ATOM      9  H   UNL     1      -3.268   2.802  -3.405  0.00  0.00    +0.163 HD
ATOM     10  H   UNL     1      -2.921   2.739  -5.277  0.00  0.00    +0.163 HD
ENDBRANCH   6   8
BRANCH   1  12
ATOM     11  C   UNL     1       0.299   1.476  -8.451  0.00  0.00    +0.141 C 
ATOM     12  N   UNL     1       0.434   1.356  -7.166  0.00  0.00    -0.187 NA
BRANCH  11  15
ATOM     13  C   UNL     1       3.066   0.218  -7.547  0.00  0.00    +0.068 C 
ATOM     14  C   UNL     1       2.621   0.480  -8.962  0.00  0.00    +0.069 A 
ATOM     15  C   UNL     1       1.386   1.042  -9.351  0.00  0.00    +0.038 A 
ATOM     16  C   UNL     1       1.380   1.104 -10.728  0.00  0.00    +0.045 A 
ATOM     17  N   UNL     1       2.559   0.612 -11.159  0.00  0.00    -0.265 N 
ATOM     18  N   UNL     1       3.311   0.228 -10.042  0.00  0.00    -0.175 NA
ATOM     19  C   UNL     1       0.263   1.629 -11.593  0.00  0.00    +0.066 C 
BRANCH  17  20
ATOM     20  C   UNL     1       2.980   0.494 -12.557  0.00  0.00    +0.101 C 
ATOM     21  C   UNL     1       4.256   1.309 -12.776  0.00  0.00    +0.032 C 
ATOM     22  C   UNL     1       3.251  -0.976 -12.886  0.00  0.00    +0.032 C 
ENDBRANCH  17  20
ENDBRANCH  11  15
ENDBRANCH   1  12
BRANCH   5  23
ATOM     23  S   UNL     1      -1.649   1.988  -1.216  0.00  0.00    -0.075 S 
BRANCH  23  24
ATOM     24  C   UNL     1      -0.444   1.401   0.005  0.00  0.00    +0.174 C 
BRANCH  24  25
ATOM     25  C   UNL     1      -1.005   1.582   1.392  0.00  0.00    +0.234 C 
ATOM     26  O   UNL     1      -2.089   2.104   1.544  0.00  0.00    -0.274 OA
ATOM     27  N   UNL     1      -0.302   1.164   2.463  0.00  0.00    -0.240 N 
BRANCH  27  28
ATOM     28  C   UNL     1      -0.869   1.231   3.742  0.00  0.00    +0.041 A 
ATOM     29  C   UNL     1      -1.115   2.465   4.330  0.00  0.00    +0.024 A 
ATOM     30  C   UNL     1      -1.678   2.527   5.590  0.00  0.00    +0.002 A 
ATOM     31  C   UNL     1      -1.988   1.363   6.269  0.00  0.00    +0.000 A 
ATOM     32  C   UNL     1      -1.739   0.133   5.688  0.00  0.00    +0.002 A 
ATOM     33  C   UNL     1      -1.181   0.064   4.427  0.00  0.00    +0.024 A 
ENDBRANCH  27  28
BRANCH  27  34
ATOM     34  C   UNL     1       0.995   0.663   2.298  0.00  0.00    +0.041 A 
ATOM     35  C   UNL     1       1.193  -0.563   1.677  0.00  0.00    +0.024 A 
ATOM     36  C   UNL     1       2.474  -1.053   1.511  0.00  0.00    +0.002 A 
ATOM     37  C   UNL     1       3.558  -0.327   1.971  0.00  0.00    +0.000 A 
ATOM     38  C   UNL     1       3.363   0.892   2.594  0.00  0.00    +0.002 A 
ATOM     39  C   UNL     1       2.085   1.389   2.759  0.00  0.00    +0.024 A 
ENDBRANCH  27  34
ENDBRANCH  24  25
ENDBRANCH  23  24
ENDBRANCH   5  23
TORSDOF 9
