REMARK  Name = ZINC30780755
REMARK  7 active torsions:
REMARK  status: ('A' for Active; 'I' for Inactive)
REMARK    1  A    between atoms: C_1  and  C_2
REMARK    2  A    between atoms: C_2  and  O_3
REMARK    3  A    between atoms: O_3  and  C_4
REMARK    4  A    between atoms: C_6  and  C_13
REMARK    5  A    between atoms: C_9  and  O_10
REMARK    6  A    between atoms: O_10  and  C_11
REMARK    7  A    between atoms: C_25  and  C_30
REMARK                            x       y       z     vdW  Elec       q    Type
REMARK                         _______ _______ _______ _____ _____    ______ ____
ROOT
ATOM      1  C   UNL     1      -1.305   6.386   0.316  0.00  0.00    +0.107 C 
ATOM      2  C   UNL     1      -2.419   5.673  -0.455  0.00  0.00    +0.047 C 
ATOM      3  C   UNL     1      -3.737   6.426  -0.295  0.00  0.00    +0.011 C 
ATOM      4  C   UNL     1      -4.193   6.359   1.166  0.00  0.00    +0.028 C 
ATOM      5  C   UNL     1      -4.305   4.888   1.579  0.00  0.00    +0.160 C 
ATOM      6  O   UNL     1      -3.036   4.256   1.411  0.00  0.00    -0.372 OA
ATOM      7  C   UNL     1      -2.553   4.243   0.065  0.00  0.00    +0.155 C 
ATOM      8  C   UNL     1      -1.208   3.560   0.043  0.00  0.00    +0.003 A 
ATOM      9  C   UNL     1      -1.160   2.177   0.032  0.00  0.00    +0.011 A 
ATOM     10  C   UNL     1       0.057   1.522   0.025  0.00  0.00    -0.050 A 
ATOM     11  C   UNL     1       1.235   2.247   0.017  0.00  0.00    +0.005 A 
ATOM     12  C   UNL     1       1.195   3.626   0.018  0.00  0.00    +0.023 A 
ATOM     13  C   UNL     1      -0.029   4.288   0.031  0.00  0.00    +0.033 A 
ATOM     14  N   UNL     1      -0.044   5.687   0.027  0.00  0.00    -0.336 N 
ATOM     15  C   UNL     1       0.100   0.016   0.022  0.00  0.00    +0.044 C 
ATOM     16  H   UNL     1       0.868   6.264  -0.188  0.00  0.00    +0.147 HD
ENDROOT
BRANCH   1  19
ATOM     17  C   UNL     1      -2.256   7.429   3.821  0.00  0.00    +0.163 A 
ATOM     18  C   UNL     1      -1.992   7.476   2.461  0.00  0.00    +0.055 A 
ATOM     19  C   UNL     1      -1.591   6.333   1.795  0.00  0.00    -0.022 A 
ATOM     20  C   UNL     1      -1.458   5.140   2.481  0.00  0.00    +0.024 A 
ATOM     21  C   UNL     1      -1.715   5.088   3.839  0.00  0.00    +0.063 A 
ATOM     22  C   UNL     1      -2.118   6.231   4.512  0.00  0.00    +0.175 A 
ATOM     23 BR   UNL     1      -1.525   3.456   4.775  0.00  0.00    -0.046 Br
BRANCH  22  24
ATOM     24  O   UNL     1      -2.376   6.180   5.847  0.00  0.00    -0.490 OA
ATOM     25  C   UNL     1      -3.716   5.872   6.237  0.00  0.00    +0.277 C 
ENDBRANCH  22  24
BRANCH  17  26
ATOM     26  O   UNL     1      -2.651   8.553   4.477  0.00  0.00    -0.489 OA
BRANCH  26  28
ATOM     27  C   UNL     1      -3.221  10.898   4.606  0.00  0.00    +0.048 C 
ATOM     28  C   UNL     1      -2.771   9.748   3.703  0.00  0.00    +0.226 C 
ENDBRANCH  26  28
ENDBRANCH  17  26
ENDBRANCH   1  19
TORSDOF 4
