REMARK  Name = ZINC12432823
REMARK  7 active torsions:
REMARK  status: ('A' for Active; 'I' for Inactive)
REMARK    1  A    between atoms: C_1  and  C_2
REMARK    2  A    between atoms: C_2  and  C_3
REMARK    3  A    between atoms: C_10  and  C_11
REMARK    4  A    between atoms: C_10  and  N_53
REMARK    5  A    between atoms: C_12  and  C_28
REMARK    6  A    between atoms: C_14  and  C_16
REMARK    7  A    between atoms: C_19  and  C_22
REMARK                            x       y       z     vdW  Elec       q    Type
REMARK                         _______ _______ _______ _____ _____    ______ ____
ROOT
ATOM      1  C   UNL     1      -0.700   1.801  -1.273  0.00  0.00    +0.066 A 
ATOM      2  C   UNL     1      -1.725   1.287  -1.978  0.00  0.00    +0.124 A 
ATOM      3  O   UNL     1      -2.037   2.179  -2.939  0.00  0.00    -0.440 OA
ATOM      4  C   UNL     1      -1.196   3.221  -2.818  0.00  0.00    +0.228 A 
ATOM      5  N   UNL     1      -0.388   2.990  -1.810  0.00  0.00    -0.216 NA
ATOM      6  C   UNL     1      -2.401  -0.037  -1.734  0.00  0.00    +0.088 C 
ENDROOT
BRANCH   4   7
ATOM      7  C   UNL     1      -1.184   4.423  -3.676  0.00  0.00    +0.037 A 
ATOM      8  C   UNL     1      -0.258   5.442  -3.438  0.00  0.00    +0.014 A 
ATOM      9  C   UNL     1      -0.244   6.560  -4.242  0.00  0.00    +0.009 A 
ATOM     10  C   UNL     1      -1.162   6.681  -5.285  0.00  0.00    -0.018 A 
ATOM     11  C   UNL     1      -2.091   5.667  -5.519  0.00  0.00    +0.009 A 
ATOM     12  C   UNL     1      -2.103   4.546  -4.721  0.00  0.00    +0.014 A 
BRANCH  10  13
ATOM     13  C   UNL     1      -1.151   7.889  -6.145  0.00  0.00    -0.018 A 
ATOM     14  C   UNL     1      -2.063   8.011  -7.192  0.00  0.00    +0.008 A 
ATOM     15  C   UNL     1      -2.050   9.139  -7.987  0.00  0.00    +0.001 A 
ATOM     16  C   UNL     1      -1.129  10.143  -7.752  0.00  0.00    +0.000 A 
ATOM     17  C   UNL     1      -0.218  10.026  -6.718  0.00  0.00    +0.001 A 
ATOM     18  C   UNL     1      -0.224   8.904  -5.914  0.00  0.00    +0.008 A 
ENDBRANCH  10  13
ENDBRANCH   4   7
BRANCH   1  19
ATOM     19  C   UNL     1      -0.019   1.153  -0.096  0.00  0.00    -0.018 C 
BRANCH  19  27
ATOM     20  C   UNL     1      -0.700   3.025   1.279  0.00  0.00    +0.020 C 
ATOM     21  C   UNL     1      -1.523   3.426   2.471  0.00  0.00    +0.199 C 
ATOM     22  O   UNL     1      -1.390   4.545   2.920  0.00  0.00    -0.278 OA
ATOM     23  N   UNL     1      -2.397   2.600   3.057  0.00  0.00    -0.318 N 
ATOM     24  C   UNL     1      -2.606   1.224   2.618  0.00  0.00    +0.085 C 
ATOM     25  C   UNL     1      -2.065   1.038   1.199  0.00  0.00    -0.058 C 
ATOM     26  H   UNL     1      -2.914   2.930   3.808  0.00  0.00    +0.149 HD
ATOM     27  N   UNL     1      -0.682   1.555   1.166  0.00  0.00    +0.392 N 
ATOM     28  H   UNL     1      -0.158   1.164   1.958  0.00  0.00    -0.080 HD
BRANCH  20  30
ATOM     29  C   UNL     1       1.356   2.863   2.689  0.00  0.00    +0.002 C 
ATOM     30  C   UNL     1       0.733   3.529   1.460  0.00  0.00    -0.010 C 
ENDBRANCH  20  30
ENDBRANCH  19  27
ENDBRANCH   1  19
TORSDOF 5
