REMARK  Name = ZINC27100169
REMARK  12 active torsions:
REMARK  status: ('A' for Active; 'I' for Inactive)
REMARK    1  A    between atoms: C_1  and  C_2
REMARK    2  A    between atoms: C_2  and  O_3
REMARK    3  A    between atoms: O_3  and  C_4
REMARK    4  A    between atoms: C_4  and  C_6
REMARK    5  A    between atoms: C_9  and  O_12
REMARK    6  A    between atoms: O_12  and  C_13
REMARK    7  A    between atoms: C_14  and  C_40
REMARK    8  A    between atoms: C_22  and  O_39
REMARK    9  A    between atoms: C_23  and  C_24
REMARK   10  A    between atoms: C_24  and  N_25
REMARK   11  A    between atoms: C_30  and  C_32
REMARK   12  A    between atoms: C_35  and  C_38
REMARK                            x       y       z     vdW  Elec       q    Type
REMARK                         _______ _______ _______ _____ _____    ______ ____
ROOT
ATOM      1  C   UNL     1      -0.837   2.900   1.445  0.00  0.00    +0.213 A 
ATOM      2  C   UNL     1      -0.718   1.572   1.248  0.00  0.00    +0.148 A 
ATOM      3  O   UNL     1      -1.196   0.666   2.111  0.00  0.00    -0.456 OA
ATOM      4  C   UNL     1      -1.839   1.016   3.244  0.00  0.00    +0.144 A 
ATOM      5  C   UNL     1      -2.025   2.376   3.549  0.00  0.00    +0.068 A 
ATOM      6  C   UNL     1      -1.504   3.381   2.607  0.00  0.00    +0.235 A 
ATOM      7  O   UNL     1      -1.634   4.575   2.816  0.00  0.00    -0.283 OA
ATOM      8  C   UNL     1      -2.688   2.750   4.719  0.00  0.00    +0.019 A 
ATOM      9  C   UNL     1      -3.157   1.789   5.568  0.00  0.00    +0.046 A 
ATOM     10  C   UNL     1      -2.977   0.439   5.274  0.00  0.00    +0.122 A 
ATOM     11  C   UNL     1      -2.321   0.051   4.117  0.00  0.00    +0.020 A 
ATOM     12  C   UNL     1      -0.013   1.086   0.008  0.00  0.00    +0.090 C 
ENDROOT
BRANCH  10  13
ATOM     13  O   UNL     1      -3.449  -0.505   6.128  0.00  0.00    -0.506 OA
ATOM     14  H   UNL     1      -3.309  -1.572   5.900  0.00  0.00    +0.292 HD
ENDBRANCH  10  13
BRANCH   1  15
ATOM     15  O   UNL     1      -0.326   3.776   0.536  0.00  0.00    -0.449 OA
BRANCH  15  19
ATOM     16  C   UNL     1      -2.770   5.005  -2.555  0.00  0.00    +0.059 A 
ATOM     17  C   UNL     1      -1.461   5.486  -2.463  0.00  0.00    +0.018 A 
ATOM     18  C   UNL     1      -0.649   5.073  -1.430  0.00  0.00    +0.047 A 
ATOM     19  C   UNL     1      -1.130   4.180  -0.480  0.00  0.00    +0.129 A 
ATOM     20  C   UNL     1      -2.430   3.695  -0.571  0.00  0.00    +0.047 A 
ATOM     21  C   UNL     1      -3.250   4.107  -1.597  0.00  0.00    +0.018 A 
BRANCH  16  22
ATOM     22  C   UNL     1      -3.643   5.445  -3.659  0.00  0.00    +0.339 C 
ATOM     23  O   UNL     1      -3.225   6.226  -4.490  0.00  0.00    -0.245 OA
BRANCH  22  24
ATOM     24  O   UNL     1      -4.905   4.980  -3.745  0.00  0.00    -0.461 OA
BRANCH  24  26
ATOM     25  C   UNL     1      -7.099   4.824  -4.790  0.00  0.00    +0.048 C 
ATOM     26  C   UNL     1      -5.708   5.456  -4.858  0.00  0.00    +0.229 C 
ENDBRANCH  24  26
ENDBRANCH  22  24
ENDBRANCH  16  22
ENDBRANCH  15  19
ENDBRANCH   1  15
BRANCH  11  27
ATOM     27  C   UNL     1      -2.133  -1.411   3.808  0.00  0.00    -0.035 C 
BRANCH  27  28
ATOM     28  N   UNL     1      -0.865  -1.875   4.388  0.00  0.00    +0.387 N 
ATOM     29  C   UNL     1      -0.713  -1.399   5.769  0.00  0.00    -0.078 C 
ATOM     30  C   UNL     1       0.676  -1.775   6.289  0.00  0.00    -0.019 C 
ATOM     31  C   UNL     1       0.842  -3.296   6.232  0.00  0.00    -0.003 C 
ATOM     32  C   UNL     1       0.631  -3.772   4.792  0.00  0.00    -0.011 C 
ATOM     33  C   UNL     1      -0.757  -3.337   4.315  0.00  0.00    -0.037 C 
ATOM     34  H   UNL     1      -0.044  -1.448   3.793  0.00  0.00    -0.080 HD
BRANCH  33  35
ATOM     35  C   UNL     1      -0.961  -3.786   2.891  0.00  0.00    -0.061 A 
ATOM     36  C   UNL     1      -0.419  -3.054   1.851  0.00  0.00    +0.002 A 
ATOM     37  C   UNL     1      -0.603  -3.468   0.545  0.00  0.00    +0.003 A 
ATOM     38  C   UNL     1      -1.336  -4.609   0.279  0.00  0.00    -0.050 A 
ATOM     39  C   UNL     1      -1.883  -5.338   1.318  0.00  0.00    +0.003 A 
ATOM     40  C   UNL     1      -1.695  -4.927   2.624  0.00  0.00    +0.002 A 
ATOM     41  C   UNL     1      -1.540  -5.058  -1.146  0.00  0.00    +0.044 C 
ENDBRANCH  33  35
ENDBRANCH  27  28
ENDBRANCH  11  27
TORSDOF 9
