REMARK  Name = ZINC35577697
REMARK  7 active torsions:
REMARK  status: ('A' for Active; 'I' for Inactive)
REMARK    1  A    between atoms: C_1  and  C_2
REMARK    2  A    between atoms: C_2  and  C_3
REMARK    3  A    between atoms: C_2  and  C_4
REMARK    4  A    between atoms: C_4  and  N_5
REMARK    5  A    between atoms: C_8  and  C_23
REMARK    6  A    between atoms: C_10  and  N_22
REMARK    7  A    between atoms: N_11  and  C_15
REMARK                            x       y       z     vdW  Elec       q    Type
REMARK                         _______ _______ _______ _____ _____    ______ ____
ROOT
ATOM      1  N   UNL     1       0.162   0.149   2.430  0.00  0.00    -0.313 N 
ATOM      2  C   UNL     1       0.470  -0.424   3.651  0.00  0.00    +0.218 A 
ATOM      3  N   UNL     1      -0.288  -0.115   4.699  0.00  0.00    -0.214 NA
ATOM      4  C   UNL     1      -0.063  -0.620   5.906  0.00  0.00    +0.091 A 
ATOM      5  C   UNL     1       1.020  -1.513   6.067  0.00  0.00    +0.086 A 
ATOM      6  C   UNL     1       1.570  -2.230   7.122  0.00  0.00    +0.131 A 
ATOM      7  N   UNL     1       2.620  -2.922   6.638  0.00  0.00    -0.216 N 
ATOM      8  N   UNL     1       2.769  -2.666   5.270  0.00  0.00    -0.144 NA
ATOM      9  C   UNL     1       1.835  -1.828   4.879  0.00  0.00    +0.189 A 
ATOM     10  N   UNL     1       1.494  -1.250   3.711  0.00  0.00    -0.193 NA
ATOM     11  H   UNL     1      -0.587   0.761   2.357  0.00  0.00    +0.149 HD
ENDROOT
BRANCH   7  12
ATOM     12  C   UNL     1       3.441  -3.770   7.392  0.00  0.00    +0.068 A 
ATOM     13  C   UNL     1       3.727  -3.464   8.716  0.00  0.00    +0.030 A 
ATOM     14  C   UNL     1       4.537  -4.302   9.457  0.00  0.00    +0.040 A 
ATOM     15  C   UNL     1       5.064  -5.446   8.882  0.00  0.00    +0.124 A 
ATOM     16  C   UNL     1       4.780  -5.752   7.561  0.00  0.00    +0.040 A 
ATOM     17  C   UNL     1       3.966  -4.921   6.818  0.00  0.00    +0.030 A 
ATOM     18  F   UNL     1       5.856  -6.264   9.609  0.00  0.00    -0.205 F 
ENDBRANCH   7  12
BRANCH   4  19
ATOM     19  C   UNL     1      -0.924  -0.256   7.053  0.00  0.00    +0.036 A 
ATOM     20  C   UNL     1      -0.365   0.318   8.195  0.00  0.00    +0.013 A 
ATOM     21  C   UNL     1      -1.172   0.655   9.261  0.00  0.00    +0.001 A 
ATOM     22  C   UNL     1      -2.536   0.425   9.201  0.00  0.00    +0.003 A 
ATOM     23  C   UNL     1      -3.099  -0.143   8.074  0.00  0.00    +0.039 A 
ATOM     24  C   UNL     1      -2.302  -0.481   6.995  0.00  0.00    +0.133 A 
ATOM     25  F   UNL     1      -2.853  -1.031   5.891  0.00  0.00    -0.205 F 
ENDBRANCH   4  19
BRANCH   6  26
ATOM     26  N   UNL     1       1.122  -2.234   8.429  0.00  0.00    -0.342 N 
ATOM     27  H   UNL     1       0.362  -1.687   8.683  0.00  0.00    +0.144 HD
ATOM     28  H   UNL     1       1.567  -2.784   9.093  0.00  0.00    +0.144 HD
ENDBRANCH   6  26
BRANCH   1  29
ATOM     29  C   UNL     1       0.968  -0.168   1.248  0.00  0.00    +0.107 C 
BRANCH  29  31
ATOM     30  C   UNL     1       0.597   2.095   0.258  0.00  0.00    +0.009 C 
ATOM     31  C   UNL     1       0.419   0.592   0.039  0.00  0.00    -0.000 C 
ATOM     32  C   UNL     1       1.180   0.166  -1.219  0.00  0.00    +0.009 C 
ENDBRANCH  29  31
ENDBRANCH   1  29
TORSDOF 5
