REMARK  Name = ZINC32777441
REMARK  7 active torsions:
REMARK  status: ('A' for Active; 'I' for Inactive)
REMARK    1  A    between atoms: C_6  and  C_7
REMARK    2  A    between atoms: C_8  and  C_18
REMARK    3  A    between atoms: C_18  and  C_19
REMARK    4  A    between atoms: C_19  and  C_20
REMARK    5  A    between atoms: C_20  and  O_22
REMARK    6  A    between atoms: O_22  and  C_23
REMARK    7  A    between atoms: C_23  and  C_24
REMARK                            x       y       z     vdW  Elec       q    Type
REMARK                         _______ _______ _______ _____ _____    ______ ____
ROOT
ATOM      1  C   UNL     1      -1.122   1.743   0.025  0.00  0.00    +0.051 A 
ATOM      2  C   UNL     1      -0.792   3.058  -0.007  0.00  0.00    -0.014 A 
ATOM      3  C   UNL     1       0.668   3.131  -0.005  0.00  0.00    +0.006 A 
ATOM      4  C   UNL     1       1.583   4.188  -0.034  0.00  0.00    +0.048 A 
ATOM      5  C   UNL     1       2.934   3.919  -0.023  0.00  0.00    +0.124 A 
ATOM      6  C   UNL     1       3.389   2.606   0.017  0.00  0.00    +0.040 A 
ATOM      7  C   UNL     1       2.499   1.555   0.046  0.00  0.00    +0.029 A 
ATOM      8  C   UNL     1       1.130   1.803   0.035  0.00  0.00    +0.047 A 
ATOM      9  N   UNL     1       0.023   0.981   0.056  0.00  0.00    -0.354 N 
ATOM     10  H   UNL     1      -0.047  -0.116   0.091  0.00  0.00    +0.166 HD
ATOM     11  F   UNL     1       3.822   4.937  -0.050  0.00  0.00    -0.205 F 
ENDROOT
BRANCH   1  17
ATOM     12  C   UNL     1      -3.439   1.687  -0.888  0.00  0.00    +0.013 A 
ATOM     13  C   UNL     1      -4.723   1.182  -0.884  0.00  0.00    +0.039 A 
ATOM     14  C   UNL     1      -5.085   0.211   0.037  0.00  0.00    +0.123 A 
ATOM     15  C   UNL     1      -4.159  -0.262   0.953  0.00  0.00    +0.039 A 
ATOM     16  C   UNL     1      -2.872   0.232   0.953  0.00  0.00    +0.013 A 
ATOM     17  C   UNL     1      -2.502   1.210   0.029  0.00  0.00    -0.001 A 
ATOM     18  F   UNL     1      -6.346  -0.276   0.041  0.00  0.00    -0.205 F 
ENDBRANCH   1  17
BRANCH   2  19
ATOM     19  C   UNL     1      -1.749   4.222  -0.044  0.00  0.00    +0.049 C 
BRANCH  19  20
ATOM     20  C   UNL     1      -2.179   4.574   1.382  0.00  0.00    +0.125 C 
BRANCH  20  21
ATOM     21  C   UNL     1      -3.217   5.665   1.339  0.00  0.00    +0.308 C 
ATOM     22  O   UNL     1      -3.577   6.115   0.276  0.00  0.00    -0.251 OA
BRANCH  21  23
ATOM     23  O   UNL     1      -3.743   6.137   2.480  0.00  0.00    -0.457 OA
BRANCH  23  24
ATOM     24  C   UNL     1      -4.738   7.188   2.362  0.00  0.00    +0.308 C 
BRANCH  24  25
ATOM     25  C   UNL     1      -5.211   7.588   3.736  0.00  0.00    +0.173 A 
ATOM     26  N   UNL     1      -6.249   6.976   4.280  0.00  0.00    -0.196 NA
ATOM     27  C   UNL     1      -6.667   7.324   5.495  0.00  0.00    +0.217 A 
ATOM     28  N   UNL     1      -6.045   8.294   6.157  0.00  0.00    -0.181 NA
ATOM     29  C   UNL     1      -5.005   8.909   5.605  0.00  0.00    +0.217 A 
ATOM     30  N   UNL     1      -4.590   8.553   4.391  0.00  0.00    -0.196 NA
ATOM     31  N   UNL     1      -4.356   9.917   6.288  0.00  0.00    -0.327 N 
ATOM     32  N   UNL     1      -7.747   6.681   6.064  0.00  0.00    -0.327 N 
ATOM     33  H   UNL     1      -3.495  10.427   5.831  0.00  0.00    +0.145 HD
ATOM     34  H   UNL     1      -4.700  10.212   7.291  0.00  0.00    +0.145 HD
ATOM     35  H   UNL     1      -8.092   6.969   7.068  0.00  0.00    +0.145 HD
ATOM     36  H   UNL     1      -8.264   5.882   5.514  0.00  0.00    +0.145 HD
ENDBRANCH  24  25
ENDBRANCH  23  24
ENDBRANCH  21  23
ENDBRANCH  20  21
ENDBRANCH  19  20
ENDBRANCH   2  19
TORSDOF 7
