REMARK  Name = ZINC14948056
REMARK  9 active torsions:
REMARK  status: ('A' for Active; 'I' for Inactive)
REMARK    1  A    between atoms: C_4  and  C_7
REMARK    2  A    between atoms: C_7  and  N_8
REMARK    3  A    between atoms: N_8  and  C_9
REMARK    4  A    between atoms: C_9  and  C_10
REMARK    5  A    between atoms: C_10  and  O_11
REMARK    6  A    between atoms: C_12  and  C_14
REMARK    7  A    between atoms: C_14  and  C_15
REMARK    8  A    between atoms: C_22  and  C_23
REMARK    9  A    between atoms: C_22  and  N_61
REMARK                            x       y       z     vdW  Elec       q    Type
REMARK                         _______ _______ _______ _____ _____    ______ ____
ROOT
ATOM      1  C   UNL     1       1.536   5.726   1.564  0.00  0.00    +0.028 C 
ATOM      2  C   UNL     1       1.818   6.569   2.775  0.00  0.00    +0.200 C 
ATOM      3  O   UNL     1       1.790   7.776   2.661  0.00  0.00    -0.278 OA
ATOM      4  N   UNL     1       2.099   6.045   3.972  0.00  0.00    -0.318 N 
ATOM      5  C   UNL     1       2.122   4.606   4.223  0.00  0.00    +0.085 C 
ATOM      6  C   UNL     1       2.239   3.846   2.901  0.00  0.00    -0.058 C 
ATOM      7  H   UNL     1       2.296   6.646   4.707  0.00  0.00    +0.149 HD
ATOM      8  N   UNL     1       1.196   4.354   1.987  0.00  0.00    +0.391 N 
ATOM      9  H   UNL     1       0.295   4.369   2.481  0.00  0.00    -0.080 HD
ENDROOT
BRANCH   1  10
ATOM     10  C   UNL     1       0.350   6.319   0.799  0.00  0.00    +0.090 C 
BRANCH  10  12
ATOM     11  N   UNL     1      -2.030   6.830   1.238  0.00  0.00    -0.295 N 
ATOM     12  C   UNL     1      -0.881   6.269   1.666  0.00  0.00    +0.215 C 
ATOM     13  O   UNL     1      -0.839   5.725   2.749  0.00  0.00    -0.276 OA
BRANCH  11  14
ATOM     14  C   UNL     1      -3.227   6.782   2.080  0.00  0.00    +0.143 C 
BRANCH  14  18
ATOM     15  C   UNL     1      -3.327  10.223   4.610  0.00  0.00    +0.000 A 
ATOM     16  C   UNL     1      -3.924  10.264   3.363  0.00  0.00    +0.000 A 
ATOM     17  C   UNL     1      -3.892   9.150   2.545  0.00  0.00    +0.005 A 
ATOM     18  C   UNL     1      -3.263   7.996   2.973  0.00  0.00    -0.030 A 
ATOM     19  C   UNL     1      -2.671   7.953   4.221  0.00  0.00    +0.005 A 
ATOM     20  C   UNL     1      -2.698   9.069   5.037  0.00  0.00    +0.000 A 
ENDBRANCH  14  18
ENDBRANCH  11  14
BRANCH  11  21
ATOM     21  C   UNL     1      -2.081   7.487  -0.071  0.00  0.00    +0.136 C 
BRANCH  21  22
ATOM     22  C   UNL     1      -2.479   6.466  -1.139  0.00  0.00    +0.174 C 
BRANCH  22  23
ATOM     23  O   UNL     1      -3.812   6.014  -0.891  0.00  0.00    -0.393 OA
ATOM     24  H   UNL     1      -4.132   5.363  -1.531  0.00  0.00    +0.209 HD
ENDBRANCH  22  23
ENDBRANCH  21  22
ENDBRANCH  11  21
ENDBRANCH  10  12
ENDBRANCH   1  10
BRANCH   8  25
ATOM     25  C   UNL     1       1.082   3.472   0.804  0.00  0.00    -0.042 C 
BRANCH  25  26
ATOM     26  C   UNL     1       0.849   2.056   1.265  0.00  0.00    -0.063 A 
ATOM     27  C   UNL     1       1.941   1.218   1.485  0.00  0.00    +0.002 A 
ATOM     28  C   UNL     1       1.766  -0.066   1.901  0.00  0.00    +0.009 A 
ATOM     29  C   UNL     1       0.467  -0.557   2.114  0.00  0.00    -0.018 A 
ATOM     30  C   UNL     1       0.247  -1.877   2.544  0.00  0.00    +0.008 A 
ATOM     31  C   UNL     1      -1.026  -2.318   2.738  0.00  0.00    +0.001 A 
ATOM     32  C   UNL     1      -2.118  -1.480   2.519  0.00  0.00    +0.001 A 
ATOM     33  C   UNL     1      -1.943  -0.196   2.103  0.00  0.00    +0.008 A 
ATOM     34  C   UNL     1      -0.643   0.295   1.890  0.00  0.00    -0.018 A 
ATOM     35  C   UNL     1      -0.423   1.615   1.460  0.00  0.00    +0.010 A 
ENDBRANCH  25  26
ENDBRANCH   8  25
TORSDOF 9
