REMARK  Name = ZINC22309434
REMARK  8 active torsions:
REMARK  status: ('A' for Active; 'I' for Inactive)
REMARK    1  A    between atoms: C_1  and  C_2
REMARK    2  A    between atoms: C_2  and  N_3
REMARK    3  A    between atoms: C_7  and  S_26
REMARK    4  A    between atoms: C_11  and  S_12
REMARK    5  A    between atoms: S_12  and  C_13
REMARK    6  A    between atoms: C_13  and  C_14
REMARK    7  A    between atoms: C_20  and  C_25
REMARK    8  A    between atoms: S_26  and  N_29
REMARK                            x       y       z     vdW  Elec       q    Type
REMARK                         _______ _______ _______ _____ _____    ______ ____
ROOT
ATOM      1  N   UNL     1      -0.020   1.094   2.454  0.00  0.00    -0.319 N 
ATOM      2  C   UNL     1       1.009   1.741   3.118  0.00  0.00    +0.070 A 
ATOM      3  C   UNL     1       1.669   2.945   2.927  0.00  0.00    +0.030 A 
ATOM      4  C   UNL     1       2.681   3.318   3.788  0.00  0.00    +0.030 A 
ATOM      5  C   UNL     1       3.043   2.495   4.845  0.00  0.00    +0.107 A 
ATOM      6  C   UNL     1       2.397   1.297   5.050  0.00  0.00    +0.058 A 
ATOM      7  C   UNL     1       1.371   0.905   4.187  0.00  0.00    +0.092 A 
ATOM      8  N   UNL     1       0.567  -0.189   4.130  0.00  0.00    -0.222 NA
ATOM      9  C   UNL     1      -0.255  -0.079   3.115  0.00  0.00    +0.170 A 
ENDROOT
BRANCH   5  10
ATOM     10  S   UNL     1       4.338   2.989   5.933  0.00  0.00    +0.056 S 
ATOM     11  O   UNL     1       4.855   1.800   6.514  0.00  0.00    -0.153 OA
ATOM     12  O   UNL     1       5.153   3.900   5.208  0.00  0.00    -0.153 OA
BRANCH  10  13
ATOM     13  N   UNL     1       3.642   3.853   7.162  0.00  0.00    -0.204 NA
ATOM     14  H   UNL     1       4.420   4.181   7.867  0.00  0.00    +0.144 HD
ATOM     15  H   UNL     1       2.914   3.219   7.690  0.00  0.00    +0.144 HD
ENDBRANCH  10  13
ENDBRANCH   5  10
BRANCH   1  17
ATOM     16  C   UNL     1      -0.013   1.086   0.008  0.00  0.00    +0.027 C 
ATOM     17  C   UNL     1      -0.729   1.579   1.267  0.00  0.00    +0.121 C 
ENDBRANCH   1  17
BRANCH   9  18
ATOM     18  S   UNL     1      -1.478  -1.266   2.668  0.00  0.00    -0.081 S 
BRANCH  18  19
ATOM     19  C   UNL     1      -1.202  -2.503   3.960  0.00  0.00    +0.133 C 
BRANCH  19  20
ATOM     20  C   UNL     1      -2.164  -3.647   3.774  0.00  0.00    +0.059 A 
ATOM     21  C   UNL     1      -1.719  -4.847   3.253  0.00  0.00    +0.094 A 
ATOM     22  C   UNL     1      -2.631  -5.896   3.095  0.00  0.00    +0.259 A 
ATOM     23  O   UNL     1      -2.267  -6.971   2.643  0.00  0.00    -0.267 OA
ATOM     24  N   UNL     1      -3.920  -5.701   3.445  0.00  0.00    -0.268 N 
ATOM     25  C   UNL     1      -4.820  -6.711   3.292  0.00  0.00    +0.099 A 
ATOM     26  C   UNL     1      -6.117  -6.540   3.636  0.00  0.00    -0.034 A 
ATOM     27  C   UNL     1      -6.550  -5.312   4.157  0.00  0.00    +0.008 A 
ATOM     28  C   UNL     1      -5.657  -4.295   4.313  0.00  0.00    +0.047 A 
ATOM     29  C   UNL     1      -4.313  -4.493   3.950  0.00  0.00    +0.141 A 
ATOM     30  N   UNL     1      -3.438  -3.500   4.104  0.00  0.00    -0.233 NA
ATOM     31  C   UNL     1      -7.097  -7.670   3.459  0.00  0.00    +0.045 C 
ENDBRANCH  19  20
ENDBRANCH  18  19
ENDBRANCH   9  18
TORSDOF 6
