REMARK  Name = ZINC12075681
REMARK  8 active torsions:
REMARK  status: ('A' for Active; 'I' for Inactive)
REMARK    1  A    between atoms: C_4  and  C_7
REMARK    2  A    between atoms: C_8  and  C_9
REMARK    3  A    between atoms: C_9  and  N_63
REMARK    4  A    between atoms: C_15  and  C_17
REMARK    5  A    between atoms: C_17  and  C_18
REMARK    6  A    between atoms: N_20  and  C_21
REMARK    7  A    between atoms: C_21  and  C_22
REMARK    8  A    between atoms: C_25  and  N_28
REMARK                            x       y       z     vdW  Elec       q    Type
REMARK                         _______ _______ _______ _____ _____    ______ ____
ROOT
ATOM      1  C   UNL     1      -2.748   1.687   2.566  0.00  0.00    -0.058 C 
ATOM      2  C   UNL     1      -3.184   3.047   2.017  0.00  0.00    +0.085 C 
ATOM      3  N   UNL     1      -2.045   3.729   1.409  0.00  0.00    -0.318 N 
ATOM      4  C   UNL     1      -0.928   3.093   1.044  0.00  0.00    +0.200 C 
ATOM      5  O   UNL     1      -0.043   3.733   0.517  0.00  0.00    -0.278 OA
ATOM      6  C   UNL     1      -0.721   1.621   1.260  0.00  0.00    +0.028 C 
ATOM      7  H   UNL     1      -2.102   4.686   1.264  0.00  0.00    +0.149 HD
ATOM      8  N   UNL     1      -2.025   0.972   1.495  0.00  0.00    +0.391 N 
ATOM      9  H   UNL     1      -2.579   1.010   0.632  0.00  0.00    -0.080 HD
ENDROOT
BRANCH   8  10
ATOM     10  C   UNL     1      -1.825  -0.445   1.875  0.00  0.00    -0.050 C 
BRANCH  10  12
ATOM     11  C   UNL     1      -3.390  -2.219   1.222  0.00  0.00    +0.002 C 
ATOM     12  C   UNL     1      -3.166  -1.129   1.942  0.00  0.00    -0.045 C 
BRANCH  11  16
ATOM     13  C   UNL     1      -7.170  -4.146   1.409  0.00  0.00    +0.000 A 
ATOM     14  C   UNL     1      -6.176  -4.659   0.596  0.00  0.00    +0.001 A 
ATOM     15  C   UNL     1      -4.945  -4.038   0.531  0.00  0.00    +0.008 A 
ATOM     16  C   UNL     1      -4.706  -2.890   1.287  0.00  0.00    -0.025 A 
ATOM     17  C   UNL     1      -5.712  -2.381   2.110  0.00  0.00    +0.008 A 
ATOM     18  C   UNL     1      -6.939  -3.009   2.161  0.00  0.00    +0.001 A 
ENDBRANCH  11  16
ENDBRANCH  10  12
ENDBRANCH   8  10
BRANCH   6  19
ATOM     19  C   UNL     1      -0.079   1.010   0.013  0.00  0.00    +0.089 C 
BRANCH  19  20
ATOM     20  C   UNL     1      -1.011   1.168  -1.161  0.00  0.00    +0.212 C 
ATOM     21  O   UNL     1      -2.122   1.624  -0.995  0.00  0.00    -0.276 OA
ATOM     22  N   UNL     1      -0.609   0.802  -2.394  0.00  0.00    -0.311 N 
ATOM     23  H   UNL     1       0.280   0.437  -2.526  0.00  0.00    +0.149 HD
BRANCH  22  24
ATOM     24  C   UNL     1      -1.515   0.955  -3.535  0.00  0.00    +0.139 C 
BRANCH  24  25
ATOM     25  C   UNL     1      -0.829   0.476  -4.789  0.00  0.00    -0.030 A 
ATOM     26  C   UNL     1      -0.095   1.363  -5.555  0.00  0.00    +0.007 A 
ATOM     27  C   UNL     1       0.539   0.926  -6.702  0.00  0.00    +0.024 A 
ATOM     28  C   UNL     1       0.429  -0.403  -7.091  0.00  0.00    +0.036 A 
ATOM     29  C   UNL     1      -0.314  -1.289  -6.322  0.00  0.00    +0.024 A 
ATOM     30  C   UNL     1      -0.941  -0.847  -5.173  0.00  0.00    +0.007 A 
BRANCH  28  31
ATOM     31  N   UNL     1       1.066  -0.847  -8.255  0.00  0.00    -0.271 N 
ATOM     32  C   UNL     1       1.975  -0.029  -9.065  0.00  0.00    +0.114 C 
ATOM     33  C   UNL     1       2.752  -1.032  -9.950  0.00  0.00    +0.029 C 
ATOM     34  C   UNL     1       1.760  -2.215 -10.027  0.00  0.00    +0.098 C 
ATOM     35  C   UNL     1       0.920  -2.077  -8.777  0.00  0.00    +0.220 C 
ATOM     36  O   UNL     1       0.216  -2.950  -8.312  0.00  0.00    -0.275 OA
ENDBRANCH  28  31
ENDBRANCH  24  25
ENDBRANCH  22  24
ENDBRANCH  19  20
ENDBRANCH   6  19
TORSDOF 8
