REMARK  Name = ZINC05073335
REMARK  6 active torsions:
REMARK  status: ('A' for Active; 'I' for Inactive)
REMARK    1  A    between atoms: C_1  and  C_2
REMARK    2  A    between atoms: C_4  and  C_14
REMARK    3  A    between atoms: N_5  and  C_7
REMARK    4  A    between atoms: C_7  and  C_9
REMARK    5  A    between atoms: C_7  and  C_12
REMARK    6  A    between atoms: C_9  and  C_10
REMARK                            x       y       z     vdW  Elec       q    Type
REMARK                         _______ _______ _______ _____ _____    ______ ____
ROOT
ATOM      1  C   UNL     1       1.658   3.264   0.003  0.00  0.00    +0.068 C 
ATOM      2  C   UNL     1       1.220   1.823   0.000  0.00  0.00    +0.073 A 
ATOM      3  C   UNL     1       2.066   0.708  -0.014  0.00  0.00    +0.057 A 
ATOM      4  C   UNL     1       1.292  -0.402  -0.012  0.00  0.00    +0.050 A 
ATOM      5  N   UNL     1       0.002  -0.004   0.002  0.00  0.00    -0.253 N 
ATOM      6  N   UNL     1      -0.017   1.397   0.010  0.00  0.00    -0.174 NA
ATOM      7  C   UNL     1       1.782  -1.827  -0.025  0.00  0.00    +0.066 C 
ATOM      8  I   UNL     1       4.160   0.751  -0.034  0.00  0.00    -0.040 I 
ENDROOT
BRANCH   5   9
ATOM      9  C   UNL     1      -1.171  -0.882   0.008  0.00  0.00    +0.230 C 
BRANCH   9  10
ATOM     10  C   UNL     1      -2.010  -0.607  -1.213  0.00  0.00    +0.381 C 
ATOM     11  O   UNL     1      -1.664   0.235  -2.007  0.00  0.00    -0.244 OA
ATOM     12  O   UNL     1      -3.142  -1.299  -1.419  0.00  0.00    -0.244 OA
ENDBRANCH   9  10
BRANCH   9  13
ATOM     13  C   UNL     1      -1.999  -0.617   1.267  0.00  0.00    +0.163 C 
BRANCH  13  14
ATOM     14  C   UNL     1      -3.137  -1.603   1.335  0.00  0.00    +0.359 C 
ATOM     15  O   UNL     1      -3.272  -2.432   0.467  0.00  0.00    -0.246 OA
ATOM     16  O   UNL     1      -4.002  -1.560   2.361  0.00  0.00    -0.246 OA
ENDBRANCH  13  14
ENDBRANCH   9  13
ENDBRANCH   5   9
TORSDOF 4
