REMARK  Name = ZINC67063401
REMARK  6 active torsions:
REMARK  status: ('A' for Active; 'I' for Inactive)
REMARK    1  A    between atoms: C_1  and  C_2
REMARK    2  A    between atoms: C_6  and  C_7
REMARK    3  A    between atoms: N_9  and  N_10
REMARK    4  A    between atoms: N_13  and  C_14
REMARK    5  A    between atoms: C_14  and  C_16
REMARK    6  A    between atoms: C_14  and  C_17
REMARK                            x       y       z     vdW  Elec       q    Type
REMARK                         _______ _______ _______ _____ _____    ______ ____
ROOT
ATOM      1  N   UNL     1       0.058  -0.732   4.900  0.00  0.00    -0.218 N 
ATOM      2  C   UNL     1       0.080  -1.625   5.909  0.00  0.00    +0.316 C 
ATOM      3  O   UNL     1       0.086  -1.239   7.062  0.00  0.00    -0.251 OA
ATOM      4  N   UNL     1       0.096  -2.945   5.640  0.00  0.00    -0.292 N 
ATOM      5  H   UNL     1       0.047   0.219   5.094  0.00  0.00    +0.174 HD
ATOM      6  H   UNL     1       0.091  -3.253   4.720  0.00  0.00    +0.151 HD
ENDROOT
BRANCH   1   9
ATOM      7  C   UNL     1       0.030  -0.283   2.562  0.00  0.00    +0.267 C 
ATOM      8  O   UNL     1       0.016   0.910   2.805  0.00  0.00    -0.268 OA
ATOM      9  N   UNL     1       0.052  -1.176   3.571  0.00  0.00    -0.229 N 
ATOM     10  H   UNL     1       0.063  -2.126   3.378  0.00  0.00    +0.173 HD
BRANCH   7  16
ATOM     11  C   UNL     1      -0.018   1.503   0.010  0.00  0.00    +0.045 C 
ATOM     12  C   UNL     1       0.002  -0.004   0.002  0.00  0.00    -0.031 A 
ATOM     13  C   UNL     1       0.007  -0.729  -1.166  0.00  0.00    +0.011 A 
ATOM     14  C   UNL     1       0.026  -2.083  -1.101  0.00  0.00    +0.046 A 
ATOM     15  S   UNL     1       0.038  -2.416   0.545  0.00  0.00    -0.092 S 
ATOM     16  C   UNL     1       0.023  -0.748   1.172  0.00  0.00    +0.078 A 
ENDBRANCH   7  16
ENDBRANCH   1   9
BRANCH   4  17
ATOM     17  C   UNL     1       0.119  -3.916   6.737  0.00  0.00    +0.102 C 
ATOM     18  C   UNL     1      -1.310  -4.179   7.216  0.00  0.00    +0.033 C 
BRANCH  17  19
ATOM     19  C   UNL     1       0.733  -5.205   6.254  0.00  0.00    -0.025 A 
ATOM     20  C   UNL     1       0.437  -5.677   4.988  0.00  0.00    +0.009 A 
ATOM     21  C   UNL     1       0.997  -6.859   4.537  0.00  0.00    +0.048 A 
ATOM     22  C   UNL     1       1.856  -7.572   5.355  0.00  0.00    +0.142 A 
ATOM     23  C   UNL     1       2.153  -7.096   6.631  0.00  0.00    +0.076 A 
ATOM     24  C   UNL     1       1.594  -5.909   7.075  0.00  0.00    +0.032 A 
ATOM     25  N   UNL     1       3.022  -7.829   7.451  0.00  0.00    -0.280 N 
ATOM     26  C   UNL     1       3.791  -8.791   6.895  0.00  0.00    +0.255 C 
ATOM     27  O   UNL     1       4.528  -9.459   7.590  0.00  0.00    -0.272 OA
ATOM     28  C   UNL     1       3.730  -9.030   5.408  0.00  0.00    +0.325 C 
ATOM     29  O   UNL     1       2.416  -8.734   4.928  0.00  0.00    -0.481 OA
ATOM     30  H   UNL     1       3.071  -7.649   8.403  0.00  0.00    +0.155 HD
ENDBRANCH  17  19
ENDBRANCH   4  17
TORSDOF 4
