REMARK  Name = ZINC20208344
REMARK  11 active torsions:
REMARK  status: ('A' for Active; 'I' for Inactive)
REMARK    1  A    between atoms: C_1  and  C_2
REMARK    2  A    between atoms: C_2  and  S_3
REMARK    3  A    between atoms: S_3  and  C_6
REMARK    4  A    between atoms: C_12  and  C_13
REMARK    5  A    between atoms: C_16  and  O_19
REMARK    6  A    between atoms: O_19  and  C_20
REMARK    7  A    between atoms: C_20  and  C_21
REMARK    8  A    between atoms: C_21  and  O_22
REMARK    9  A    between atoms: O_22  and  C_23
REMARK   10  A    between atoms: C_26  and  C_30
REMARK   11  A    between atoms: C_28  and  C_29
REMARK                            x       y       z     vdW  Elec       q    Type
REMARK                         _______ _______ _______ _____ _____    ______ ____
ROOT
ATOM      1  C   UNL     1       4.857 -10.694   2.661  0.00  0.00    +0.235 C 
ATOM      2  N   UNL     1       4.115  -9.689   3.030  0.00  0.00    -0.145 NA
ATOM      3  N   UNL     1       3.070  -9.246   2.248  0.00  0.00    -0.150 N 
ATOM      4  C   UNL     1       2.265  -8.116   2.510  0.00  0.00    +0.153 C 
ATOM      5  N   UNL     1       2.646  -7.123   3.268  0.00  0.00    -0.283 NA
ATOM      6  C   UNL     1       0.936  -8.169   1.836  0.00  0.00    +0.081 C 
ATOM      7  C   UNL     1      -0.189  -7.617   2.406  0.00  0.00    +0.024 C 
ATOM      8  C   UNL     1       0.892  -8.847   0.517  0.00  0.00    +0.273 C 
ATOM      9  O   UNL     1       0.031  -8.570  -0.303  0.00  0.00    -0.268 OA
ATOM     10  N   UNL     1       1.829  -9.777   0.250  0.00  0.00    -0.152 NA
ATOM     11  C   UNL     1       2.812  -9.957   1.097  0.00  0.00    +0.182 C 
ATOM     12  S   UNL     1       4.126 -11.148   1.094  0.00  0.00    -0.015 S 
ATOM     13  H   UNL     1       3.491  -7.171   3.741  0.00  0.00    +0.188 HD
ENDROOT
BRANCH   7  14
ATOM     14  C   UNL     1      -0.143  -7.120   3.783  0.00  0.00    -0.024 A 
ATOM     15  C   UNL     1      -0.884  -5.986   4.147  0.00  0.00    +0.011 A 
ATOM     16  C   UNL     1      -0.837  -5.527   5.433  0.00  0.00    +0.046 A 
ATOM     17  C   UNL     1      -0.056  -6.181   6.380  0.00  0.00    +0.121 A 
ATOM     18  C   UNL     1       0.681  -7.306   6.025  0.00  0.00    +0.046 A 
ATOM     19  C   UNL     1       0.638  -7.778   4.744  0.00  0.00    +0.011 A 
BRANCH  17  20
ATOM     20  O   UNL     1      -0.013  -5.719   7.655  0.00  0.00    -0.489 OA
BRANCH  20  21
ATOM     21  C   UNL     1       0.808  -6.438   8.578  0.00  0.00    +0.270 C 
BRANCH  21  22
ATOM     22  C   UNL     1       0.730  -5.774   9.954  0.00  0.00    +0.270 C 
BRANCH  22  23
ATOM     23  O   UNL     1      -0.600  -5.889  10.464  0.00  0.00    -0.488 OA
BRANCH  23  24
ATOM     24  C   UNL     1      -0.841  -5.347  11.686  0.00  0.00    +0.124 A 
ATOM     25  C   UNL     1       0.180  -4.713  12.379  0.00  0.00    +0.046 A 
ATOM     26  C   UNL     1      -0.068  -4.162  13.621  0.00  0.00    +0.007 A 
ATOM     27  C   UNL     1      -1.333  -4.243  14.175  0.00  0.00    -0.050 A 
ATOM     28  C   UNL     1      -2.352  -4.875  13.487  0.00  0.00    +0.010 A 
ATOM     29  C   UNL     1      -2.110  -5.423  12.241  0.00  0.00    -0.009 A 
ATOM     30  C   UNL     1      -3.223  -6.106  11.489  0.00  0.00    +0.047 C 
ATOM     31  C   UNL     1      -1.601  -3.642  15.530  0.00  0.00    +0.044 C 
ENDBRANCH  23  24
ENDBRANCH  22  23
ENDBRANCH  21  22
ENDBRANCH  20  21
ENDBRANCH  17  20
ENDBRANCH   7  14
BRANCH   1  32
ATOM     32  S   UNL     1       6.233 -11.416   3.491  0.00  0.00    +0.022 S 
ATOM     33  O   UNL     1       6.686 -10.409   4.386  0.00  0.00    -0.167 OA
ATOM     34  O   UNL     1       7.076 -11.891   2.449  0.00  0.00    -0.167 OA
BRANCH  32  36
ATOM     35  C   UNL     1       6.657 -13.520   5.186  0.00  0.00    +0.028 C 
ATOM     36  C   UNL     1       5.539 -12.811   4.418  0.00  0.00    +0.171 C 
ENDBRANCH  32  36
ENDBRANCH   1  32
TORSDOF 8
