REMARK  Name = ZINC07786147
REMARK  5 active torsions:
REMARK  status: ('A' for Active; 'I' for Inactive)
REMARK    1  A    between atoms: C_1  and  C_2
REMARK    2  A    between atoms: C_5  and  S_8
REMARK    3  A    between atoms: N_6  and  N_7
REMARK    4  A    between atoms: S_8  and  C_9
REMARK    5  A    between atoms: C_9  and  C_10
REMARK                            x       y       z     vdW  Elec       q    Type
REMARK                         _______ _______ _______ _____ _____    ______ ____
ROOT
ATOM      1  C   UNL     1       0.002  -0.004   0.002  0.00  0.00    +0.060 A 
ATOM      2  C   UNL     1       1.213  -0.731  -0.013  0.00  0.00    +0.005 A 
ATOM      3  C   UNL     1       1.236  -2.131  -0.022  0.00  0.00    +0.010 A 
ATOM      4  C   UNL     1       2.433  -2.786  -0.035  0.00  0.00    +0.001 A 
ATOM      5  C   UNL     1       3.633  -2.085  -0.043  0.00  0.00    +0.001 A 
ATOM      6  C   UNL     1       3.645  -0.718  -0.036  0.00  0.00    +0.009 A 
ATOM      7  C   UNL     1       2.438  -0.021  -0.021  0.00  0.00    -0.007 A 
ATOM      8  C   UNL     1       2.372   1.443  -0.013  0.00  0.00    +0.008 A 
ATOM      9  C   UNL     1       3.522   2.232  -0.020  0.00  0.00    +0.010 A 
ATOM     10  C   UNL     1       3.408   3.594  -0.012  0.00  0.00    +0.001 A 
ATOM     11  C   UNL     1       2.157   4.199   0.003  0.00  0.00    +0.002 A 
ATOM     12  C   UNL     1       1.016   3.452   0.010  0.00  0.00    +0.028 A 
ATOM     13  C   UNL     1       1.097   2.052   0.003  0.00  0.00    +0.072 A 
ATOM     14  N   UNL     1      -0.016   1.298   0.009  0.00  0.00    -0.250 NA
ENDROOT
BRANCH   1  15
ATOM     15  C   UNL     1      -1.304  -0.755   0.011  0.00  0.00    +0.133 C 
BRANCH  15  16
ATOM     16  S   UNL     1      -1.844  -1.047  -1.692  0.00  0.00    -0.078 S 
BRANCH  16  21
ATOM     17  C   UNL     1      -6.430  -3.679  -2.230  0.00  0.00    +0.090 C 
ATOM     18  C   UNL     1      -5.225  -2.992  -1.639  0.00  0.00    +0.148 A 
ATOM     19  N   UNL     1      -4.960  -2.853  -0.371  0.00  0.00    -0.132 NA
ATOM     20  N   UNL     1      -3.853  -2.218  -0.218  0.00  0.00    -0.121 NA
ATOM     21  C   UNL     1      -3.348  -1.915  -1.392  0.00  0.00    +0.209 A 
ATOM     22  N   UNL     1      -4.211  -2.394  -2.335  0.00  0.00    -0.228 N 
BRANCH  22  23
ATOM     23  N   UNL     1      -4.085  -2.300  -3.692  0.00  0.00    -0.295 N 
ATOM     24  H   UNL     1      -3.584  -3.092  -4.065  0.00  0.00    +0.163 HD
ATOM     25  H   UNL     1      -4.988  -2.203  -4.133  0.00  0.00    +0.163 HD
ENDBRANCH  22  23
ENDBRANCH  16  21
ENDBRANCH  15  16
ENDBRANCH   1  15
TORSDOF 4
