REMARK  Name = ZINC36281062
REMARK  7 active torsions:
REMARK  status: ('A' for Active; 'I' for Inactive)
REMARK    1  A    between atoms: C_1  and  C_2
REMARK    2  A    between atoms: C_2  and  C_3
REMARK    3  A    between atoms: C_3  and  C_31
REMARK    4  A    between atoms: N_6  and  C_10
REMARK    5  A    between atoms: C_10  and  C_11
REMARK    6  A    between atoms: C_16  and  C_19
REMARK    7  A    between atoms: C_22  and  C_25
REMARK                            x       y       z     vdW  Elec       q    Type
REMARK                         _______ _______ _______ _____ _____    ______ ____
ROOT
ATOM      1  C   UNL     1       0.403   2.967  -4.021  0.00  0.00    +0.237 C 
ATOM      2  O   UNL     1       0.243   3.305  -2.867  0.00  0.00    -0.274 OA
ATOM      3  N   UNL     1       0.169   3.843  -5.018  0.00  0.00    -0.263 N 
ATOM      4  C   UNL     1      -0.257   5.133  -4.724  0.00  0.00    +0.165 A 
ATOM      5  N   UNL     1      -0.542   6.126  -5.546  0.00  0.00    -0.225 NA
ATOM      6  C   UNL     1      -0.938   7.305  -5.089  0.00  0.00    +0.080 A 
ATOM      7  C   UNL     1      -1.053   7.497  -3.740  0.00  0.00    +0.076 A 
ATOM      8  S   UNL     1      -0.569   5.886  -3.133  0.00  0.00    -0.060 S 
ATOM      9  H   UNL     1       0.296   3.573  -5.941  0.00  0.00    +0.157 HD
ENDROOT
BRANCH   6  10
ATOM     10  C   UNL     1      -1.253   8.405  -6.031  0.00  0.00    +0.001 A 
ATOM     11  C   UNL     1      -1.663   9.646  -5.543  0.00  0.00    +0.010 A 
ATOM     12  C   UNL     1      -1.955  10.668  -6.418  0.00  0.00    +0.009 A 
ATOM     13  C   UNL     1      -1.842  10.463  -7.793  0.00  0.00    -0.018 A 
ATOM     14  C   UNL     1      -1.432   9.222  -8.281  0.00  0.00    +0.009 A 
ATOM     15  C   UNL     1      -1.133   8.202  -7.406  0.00  0.00    +0.010 A 
BRANCH  13  16
ATOM     16  C   UNL     1      -2.157  11.563  -8.735  0.00  0.00    -0.018 A 
ATOM     17  C   UNL     1      -2.562  12.806  -8.250  0.00  0.00    +0.008 A 
ATOM     18  C   UNL     1      -2.854  13.826  -9.132  0.00  0.00    +0.001 A 
ATOM     19  C   UNL     1      -2.746  13.618 -10.495  0.00  0.00    +0.000 A 
ATOM     20  C   UNL     1      -2.345  12.387 -10.982  0.00  0.00    +0.001 A 
ATOM     21  C   UNL     1      -2.044  11.361 -10.110  0.00  0.00    +0.008 A 
ENDBRANCH  13  16
ENDBRANCH   6  10
BRANCH   1  22
ATOM     22  C   UNL     1       0.864   1.569  -4.340  0.00  0.00    +0.214 C 
BRANCH  22  26
ATOM     23  C   UNL     1       0.718  -0.497  -1.257  0.00  0.00    +0.138 C 
ATOM     24  C   UNL     1       0.081   0.093  -2.499  0.00  0.00    +0.251 C 
ATOM     25  O   UNL     1      -1.061  -0.057  -2.878  0.00  0.00    -0.272 OA
ATOM     26  N   UNL     1       1.047   0.819  -3.095  0.00  0.00    -0.215 N 
ATOM     27  C   UNL     1       2.195   0.770  -2.408  0.00  0.00    +0.310 C 
ATOM     28  O   UNL     1       3.210   1.345  -2.748  0.00  0.00    -0.252 OA
ATOM     29  N   UNL     1       2.099   0.013  -1.301  0.00  0.00    -0.281 N 
ATOM     30  H   UNL     1       2.803  -0.163  -0.657  0.00  0.00    +0.152 HD
BRANCH  23  31
ATOM     31  C   UNL     1       0.707  -2.003  -1.315  0.00  0.00    -0.015 A 
ATOM     32  C   UNL     1      -0.340  -2.709  -0.752  0.00  0.00    +0.006 A 
ATOM     33  C   UNL     1      -0.350  -4.090  -0.806  0.00  0.00    +0.000 A 
ATOM     34  C   UNL     1       0.686  -4.766  -1.424  0.00  0.00    +0.000 A 
ATOM     35  C   UNL     1       1.732  -4.060  -1.988  0.00  0.00    +0.000 A 
ATOM     36  C   UNL     1       1.740  -2.679  -1.938  0.00  0.00    +0.006 A 
ENDBRANCH  23  31
BRANCH  23  38
ATOM     37  C   UNL     1      -0.019   1.526   0.010  0.00  0.00    +0.007 C 
ATOM     38  C   UNL     1       0.002  -0.004   0.002  0.00  0.00    +0.037 C 
ENDBRANCH  23  38
ENDBRANCH  22  26
ENDBRANCH   1  22
TORSDOF 6
