REMARK  Name = ZINC44358935
REMARK  10 active torsions:
REMARK  status: ('A' for Active; 'I' for Inactive)
REMARK    1  A    between atoms: C_1  and  C_2
REMARK    2  A    between atoms: C_2  and  O_3
REMARK    3  A    between atoms: O_3  and  C_4
REMARK    4  A    between atoms: C_4  and  C_6
REMARK    5  A    between atoms: C_6  and  C_8
REMARK    6  A    between atoms: C_6  and  N_25
REMARK    7  A    between atoms: C_8  and  C_9
REMARK    8  A    between atoms: C_12  and  C_14
REMARK    9  A    between atoms: C_14  and  O_15
REMARK   10  A    between atoms: O_15  and  C_16
REMARK                            x       y       z     vdW  Elec       q    Type
REMARK                         _______ _______ _______ _____ _____    ______ ____
ROOT
ATOM      1  C   UNL     1      -4.890  -2.871  -1.368  0.00  0.00    +0.104 A 
ATOM      2  C   UNL     1      -5.976  -2.098  -1.191  0.00  0.00    +0.045 A 
ATOM      3  C   UNL     1      -7.100  -2.955  -1.231  0.00  0.00    +0.048 A 
ATOM      4  C   UNL     1      -6.633  -4.201  -1.430  0.00  0.00    +0.142 A 
ATOM      5  O   UNL     1      -5.294  -4.143  -1.518  0.00  0.00    -0.461 OA
ENDROOT
BRANCH   1   6
ATOM      6  C   UNL     1      -3.462  -2.390  -1.398  0.00  0.00    +0.069 C 
BRANCH   6   7
ATOM      7  C   UNL     1      -2.881  -2.427   0.017  0.00  0.00    +0.043 C 
BRANCH   7   8
ATOM      8  N   UNL     1      -2.813  -3.818   0.482  0.00  0.00    +0.387 N 
ATOM      9  H   UNL     1      -2.429  -3.842   1.415  0.00  0.00    -0.089 HD
ATOM     10  H   UNL     1      -3.740  -4.216   0.489  0.00  0.00    -0.089 HD
ATOM     11  H   UNL     1      -2.222  -4.352  -0.138  0.00  0.00    -0.089 HD
ENDBRANCH   7   8
BRANCH   7  12
ATOM     12  C   UNL     1      -1.496  -1.832   0.006  0.00  0.00    +0.293 C 
ATOM     13  O   UNL     1      -0.528  -2.555  -0.007  0.00  0.00    -0.253 OA
BRANCH  12  14
ATOM     14  O   UNL     1      -1.339  -0.499   0.012  0.00  0.00    -0.466 OA
BRANCH  14  16
ATOM     15  C   UNL     1      -0.019   1.526   0.010  0.00  0.00    +0.048 C 
ATOM     16  C   UNL     1       0.002  -0.004   0.002  0.00  0.00    +0.228 C 
ENDBRANCH  14  16
ENDBRANCH  12  14
ENDBRANCH   7  12
ENDBRANCH   6   7
ENDBRANCH   1   6
BRANCH   4  17
ATOM     17  C   UNL     1      -7.470  -5.449  -1.542  0.00  0.00    +0.303 C 
BRANCH  17  18
ATOM     18  O   UNL     1      -7.825  -5.664  -2.909  0.00  0.00    -0.481 OA
BRANCH  18  19
ATOM     19  C   UNL     1      -8.586  -6.756  -3.185  0.00  0.00    +0.158 A 
ATOM     20  C   UNL     1      -7.979  -7.970  -3.476  0.00  0.00    +0.085 A 
ATOM     21  C   UNL     1      -8.755  -9.080  -3.756  0.00  0.00    +0.043 A 
ATOM     22  C   UNL     1     -10.135  -8.981  -3.748  0.00  0.00    +0.044 A 
ATOM     23  C   UNL     1     -10.742  -7.771  -3.458  0.00  0.00    +0.043 A 
ATOM     24  C   UNL     1      -9.970  -6.661  -3.171  0.00  0.00    +0.085 A 
ATOM     25 CL   UNL     1     -10.732  -5.146  -2.800  0.00  0.00    -0.080 Cl
ATOM     26 CL   UNL     1     -11.106 -10.375  -4.101  0.00  0.00    -0.083 Cl
ATOM     27 CL   UNL     1      -6.248  -8.095  -3.488  0.00  0.00    -0.080 Cl
ENDBRANCH  18  19
ENDBRANCH  17  18
ENDBRANCH   4  17
TORSDOF 9
