REMARK  Name = ZINC38700516
REMARK  6 active torsions:
REMARK  status: ('A' for Active; 'I' for Inactive)
REMARK    1  A    between atoms: C_5  and  C_7
REMARK    2  A    between atoms: C_12  and  O_21
REMARK    3  A    between atoms: C_16  and  N_20
REMARK    4  A    between atoms: C_17  and  C_18
REMARK    5  A    between atoms: O_21  and  C_22
REMARK    6  A    between atoms: C_22  and  C_24
REMARK                            x       y       z     vdW  Elec       q    Type
REMARK                         _______ _______ _______ _____ _____    ______ ____
ROOT
ATOM      1  C   UNL     1       1.171  -2.176  -0.049  0.00  0.00    +0.099 C 
ATOM      2  C   UNL     1       0.501  -2.693   1.197  0.00  0.00    +0.008 A 
ATOM      3  C   UNL     1       1.211  -2.737   2.383  0.00  0.00    +0.012 A 
ATOM      4  C   UNL     1       0.613  -3.208   3.535  0.00  0.00    +0.047 A 
ATOM      5  C   UNL     1      -0.705  -3.640   3.506  0.00  0.00    +0.135 A 
ATOM      6  C   UNL     1      -1.419  -3.598   2.319  0.00  0.00    +0.093 A 
ATOM      7  C   UNL     1      -0.817  -3.123   1.161  0.00  0.00    +0.138 A 
ATOM      8  O   UNL     1      -1.529  -3.088   0.008  0.00  0.00    -0.441 OA
ATOM      9  C   UNL     1      -0.891  -3.012  -1.171  0.00  0.00    +0.199 C 
ATOM     10  C   UNL     1       0.388  -2.587  -1.264  0.00  0.00    +0.098 C 
ENDROOT
BRANCH   1  15
ATOM     11  C   UNL     1       0.154   1.454   0.153  0.00  0.00    +0.000 A 
ATOM     12  C   UNL     1       1.382   2.087   0.123  0.00  0.00    +0.001 A 
ATOM     13  C   UNL     1       2.543   1.342   0.038  0.00  0.00    +0.015 A 
ATOM     14  C   UNL     1       2.475  -0.039  -0.018  0.00  0.00    +0.022 A 
ATOM     15  C   UNL     1       1.245  -0.672   0.012  0.00  0.00    -0.021 A 
ATOM     16  C   UNL     1       0.085   0.075   0.097  0.00  0.00    +0.005 A 
ATOM     17 BR   UNL     1       4.062  -1.060  -0.135  0.00  0.00    -0.050 Br
ENDBRANCH   1  15
BRANCH   9  18
ATOM     18  N   UNL     1      -1.558  -3.377  -2.314  0.00  0.00    -0.328 N 
ATOM     19  H   UNL     1      -2.476  -3.684  -2.263  0.00  0.00    +0.145 HD
ATOM     20  H   UNL     1      -1.111  -3.327  -3.174  0.00  0.00    +0.145 HD
ENDBRANCH   9  18
BRANCH  10  21
ATOM     21  C   UNL     1       1.011  -2.527  -2.553  0.00  0.00    +0.101 C 
ATOM     22  N   UNL     1       1.504  -2.480  -3.575  0.00  0.00    -0.191 NA
ENDBRANCH  10  21
BRANCH   5  23
ATOM     23  O   UNL     1      -1.295  -4.104   4.639  0.00  0.00    -0.423 OA
BRANCH  23  24
ATOM     24  C   UNL     1      -1.583  -5.414   4.709  0.00  0.00    +0.357 C 
ATOM     25  O   UNL     1      -1.224  -6.159   3.827  0.00  0.00    -0.246 OA
BRANCH  24  26
ATOM     26  C   UNL     1      -2.352  -5.955   5.886  0.00  0.00    +0.319 C 
ATOM     27  C   UNL     1      -3.774  -5.378   5.884  0.00  0.00    +0.285 C 
ATOM     28  O   UNL     1      -4.480  -5.922   7.005  0.00  0.00    -0.484 OA
ATOM     29  C   UNL     1      -4.370  -7.263   7.204  0.00  0.00    +0.162 A 
ATOM     30  C   UNL     1      -5.287  -7.908   8.021  0.00  0.00    +0.049 A 
ATOM     31  C   UNL     1      -5.186  -9.269   8.236  0.00  0.00    +0.004 A 
ATOM     32  C   UNL     1      -4.171  -9.993   7.637  0.00  0.00    +0.004 A 
ATOM     33  C   UNL     1      -3.255  -9.357   6.821  0.00  0.00    +0.049 A 
ATOM     34  C   UNL     1      -3.351  -7.991   6.601  0.00  0.00    +0.163 A 
ATOM     35  O   UNL     1      -2.445  -7.380   5.788  0.00  0.00    -0.470 OA
ENDBRANCH  24  26
ENDBRANCH  23  24
ENDBRANCH   5  23
TORSDOF 6
