REMARK  Name = ZINC63426655
REMARK  8 active torsions:
REMARK  status: ('A' for Active; 'I' for Inactive)
REMARK    1  A    between atoms: C_1  and  O_2
REMARK    2  A    between atoms: O_2  and  C_3
REMARK    3  A    between atoms: C_10  and  C_18
REMARK    4  A    between atoms: C_21  and  O_33
REMARK    5  A    between atoms: C_22  and  C_24
REMARK    6  A    between atoms: C_24  and  O_25
REMARK    7  A    between atoms: O_25  and  C_26
REMARK    8  A    between atoms: O_33  and  C_34
REMARK                            x       y       z     vdW  Elec       q    Type
REMARK                         _______ _______ _______ _____ _____    ______ ____
ROOT
ATOM      1  C   UNL     1       0.140  -2.189  -0.556  0.00  0.00    +0.121 A 
ATOM      2  C   UNL     1      -0.686  -1.080  -0.303  0.00  0.00    +0.047 A 
ATOM      3  C   UNL     1      -2.012  -1.199  -0.079  0.00  0.00    +0.029 A 
ATOM      4  C   UNL     1      -2.639  -2.523  -0.095  0.00  0.00    +0.043 A 
ATOM      5  N   UNL     1      -3.885  -2.905   0.067  0.00  0.00    -0.376 N 
ATOM      6  C   UNL     1      -3.929  -4.363   0.041  0.00  0.00    +0.128 C 
ATOM      7  C   UNL     1      -4.890  -4.905  -1.021  0.00  0.00    +0.111 C 
ATOM      8  N   UNL     1      -4.649  -6.349  -1.169  0.00  0.00    -0.307 NA
ATOM      9  C   UNL     1      -3.335  -6.660  -1.738  0.00  0.00    +0.086 C 
ATOM     10  C   UNL     1      -2.222  -6.223  -0.768  0.00  0.00    +0.048 C 
ATOM     11  C   UNL     1      -2.528  -4.800  -0.359  0.00  0.00    -0.035 C 
ATOM     12  C   UNL     1      -1.771  -3.696  -0.372  0.00  0.00    +0.003 A 
ATOM     13  C   UNL     1      -0.342  -3.454  -0.603  0.00  0.00    +0.055 A 
ATOM     14  H   UNL     1      -4.787  -6.831  -0.293  0.00  0.00    +0.123 HD
ATOM     15  H   UNL     1      -4.648  -2.317   0.184  0.00  0.00    +0.160 HD
ENDROOT
BRANCH   7  16
ATOM     16  C   UNL     1      -4.641  -4.210  -2.334  0.00  0.00    -0.028 A 
ATOM     17  C   UNL     1      -3.364  -4.173  -2.864  0.00  0.00    +0.009 A 
ATOM     18  C   UNL     1      -3.133  -3.536  -4.068  0.00  0.00    +0.046 A 
ATOM     19  C   UNL     1      -4.183  -2.934  -4.746  0.00  0.00    +0.126 A 
ATOM     20  C   UNL     1      -5.463  -2.973  -4.213  0.00  0.00    +0.032 A 
ATOM     21  C   UNL     1      -5.690  -3.616  -3.011  0.00  0.00    +0.015 A 
BRANCH  19  22
ATOM     22  O   UNL     1      -3.958  -2.306  -5.930  0.00  0.00    -0.495 OA
ATOM     23  C   UNL     1      -2.615  -2.305  -6.418  0.00  0.00    +0.277 C 
ENDBRANCH  19  22
BRANCH  20  24
ATOM     24  C   UNL     1      -6.606  -2.320  -4.946  0.00  0.00    +0.268 C 
BRANCH  24  25
ATOM     25  O   UNL     1      -7.812  -2.495  -4.201  0.00  0.00    -0.487 OA
BRANCH  25  26
ATOM     26  C   UNL     1      -8.946  -1.962  -4.728  0.00  0.00    +0.121 A 
ATOM     27  C   UNL     1      -8.899  -1.289  -5.940  0.00  0.00    +0.047 A 
ATOM     28  C   UNL     1     -10.052  -0.747  -6.473  0.00  0.00    +0.019 A 
ATOM     29  C   UNL     1     -11.254  -0.876  -5.800  0.00  0.00    +0.018 A 
ATOM     30  C   UNL     1     -11.303  -1.546  -4.591  0.00  0.00    +0.019 A 
ATOM     31  C   UNL     1     -10.153  -2.095  -4.057  0.00  0.00    +0.047 A 
ATOM     32 BR   UNL     1     -12.831  -0.134  -6.533  0.00  0.00    -0.050 Br
ENDBRANCH  25  26
ENDBRANCH  24  25
ENDBRANCH  20  24
ENDBRANCH   7  16
BRANCH   1  34
ATOM     33  C   UNL     1       1.932  -0.635  -0.710  0.00  0.00    +0.277 C 
ATOM     34  O   UNL     1       1.466  -1.984  -0.768  0.00  0.00    -0.495 OA
ENDBRANCH   1  34
TORSDOF 6
