REMARK  Name = ZINC35316567
REMARK  8 active torsions:
REMARK  status: ('A' for Active; 'I' for Inactive)
REMARK    1  A    between atoms: C_1  and  C_2
REMARK    2  A    between atoms: C_2  and  C_3
REMARK    3  A    between atoms: C_2  and  C_4
REMARK    4  A    between atoms: C_2  and  C_5
REMARK    5  A    between atoms: C_11  and  C_14
REMARK    6  A    between atoms: C_14  and  N_16
REMARK    7  A    between atoms: C_20  and  C_23
REMARK    8  A    between atoms: N_21  and  C_22
REMARK                            x       y       z     vdW  Elec       q    Type
REMARK                         _______ _______ _______ _____ _____    ______ ____
ROOT
ATOM      1  C   UNL     1       4.944   0.917  -2.585  0.00  0.00    +0.292 C 
ATOM      2  O   UNL     1       4.557   1.666  -1.705  0.00  0.00    -0.266 OA
ENDROOT
BRANCH   1   8
ATOM      3  C   UNL     1       0.718  -0.497  -1.257  0.00  0.00    -0.001 C 
ATOM      4  C   UNL     1       0.739  -2.029  -1.265  0.00  0.00    +0.012 C 
ATOM      5  C   UNL     1       1.226  -2.525  -2.632  0.00  0.00    +0.078 C 
ATOM      6  C   UNL     1       2.501  -1.796  -2.978  0.00  0.00    +0.141 A 
ATOM      7  C   UNL     1       2.913  -0.663  -2.372  0.00  0.00    +0.027 A 
ATOM      8  C   UNL     1       4.138  -0.275  -2.953  0.00  0.00    +0.173 A 
ATOM      9  N   UNL     1       4.438  -1.157  -3.878  0.00  0.00    -0.073 NA
ATOM     10  O   UNL     1       3.405  -2.128  -3.905  0.00  0.00    -0.359 OA
ATOM     11  C   UNL     1       2.157   0.033  -1.268  0.00  0.00    +0.045 C 
BRANCH   3  13
ATOM     12  C   UNL     1      -0.019   1.526   0.010  0.00  0.00    +0.011 C 
ATOM     13  C   UNL     1       0.002  -0.004   0.002  0.00  0.00    -0.035 C 
ATOM     14  C   UNL     1       0.742  -0.511   1.242  0.00  0.00    +0.011 C 
ATOM     15  C   UNL     1      -1.433  -0.534   0.013  0.00  0.00    +0.011 C 
ENDBRANCH   3  13
ENDBRANCH   1   8
BRANCH   1  16
ATOM     16  N   UNL     1       6.090   1.168  -3.219  0.00  0.00    -0.141 NA
ATOM     17  C   UNL     1       6.813   2.237  -2.889  0.00  0.00    +0.201 A 
ATOM     18  N   UNL     1       6.502   3.145  -1.928  0.00  0.00    -0.332 N 
ATOM     19  C   UNL     1       7.499   4.096  -1.895  0.00  0.00    +0.112 A 
ATOM     20  C   UNL     1       8.413   3.775  -2.828  0.00  0.00    +0.067 A 
ATOM     21  N   UNL     1       7.993   2.607  -3.452  0.00  0.00    -0.315 N 
ATOM     22  C   UNL     1       8.695   1.902  -4.526  0.00  0.00    +0.152 C 
ATOM     23  H   UNL     1       5.714   3.127  -1.362  0.00  0.00    +0.168 HD
BRANCH  20  24
ATOM     24  C   UNL     1       9.649   4.529  -3.132  0.00  0.00    +0.000 A 
ATOM     25  C   UNL     1      10.511   4.085  -4.136  0.00  0.00    +0.013 A 
ATOM     26  C   UNL     1      11.662   4.792  -4.415  0.00  0.00    +0.039 A 
ATOM     27  C   UNL     1      11.963   5.941  -3.702  0.00  0.00    +0.123 A 
ATOM     28  C   UNL     1      11.110   6.387  -2.705  0.00  0.00    +0.039 A 
ATOM     29  C   UNL     1       9.954   5.690  -2.421  0.00  0.00    +0.013 A 
ATOM     30  F   UNL     1      13.092   6.629  -3.980  0.00  0.00    -0.205 F 
ENDBRANCH  20  24
ENDBRANCH   1  16
TORSDOF 4
