REMARK  Name = ZINC27199455
REMARK  11 active torsions:
REMARK  status: ('A' for Active; 'I' for Inactive)
REMARK    1  A    between atoms: C_1  and  C_2
REMARK    2  A    between atoms: C_2  and  C_4
REMARK    3  A    between atoms: C_2  and  O_28
REMARK    4  A    between atoms: N_6  and  N_7
REMARK    5  A    between atoms: C_8  and  C_10
REMARK    6  A    between atoms: C_13  and  S_16
REMARK    7  A    between atoms: S_16  and  N_19
REMARK    8  A    between atoms: N_19  and  C_20
REMARK    9  A    between atoms: C_25  and  O_26
REMARK   10  A    between atoms: O_26  and  C_27
REMARK   11  A    between atoms: O_28  and  C_29
REMARK                            x       y       z     vdW  Elec       q    Type
REMARK                         _______ _______ _______ _____ _____    ______ ____
ROOT
ATOM      1  C   UNL     1      -0.861   2.521  -2.699  0.00  0.00    +0.038 A 
ATOM      2  C   UNL     1      -1.416   1.311  -2.282  0.00  0.00    +0.015 A 
ATOM      3  C   UNL     1      -1.223   0.876  -0.987  0.00  0.00    +0.029 A 
ATOM      4  C   UNL     1      -0.481   1.638  -0.102  0.00  0.00    +0.109 A 
ATOM      5  C   UNL     1       0.068   2.842  -0.508  0.00  0.00    +0.029 A 
ATOM      6  C   UNL     1      -0.113   3.285  -1.802  0.00  0.00    +0.015 A 
ENDROOT
BRANCH   1   8
ATOM      7  N   UNL     1      -0.526   4.162  -4.485  0.00  0.00    -0.230 N 
ATOM      8  C   UNL     1      -1.064   2.993  -4.086  0.00  0.00    +0.260 C 
ATOM      9  O   UNL     1      -1.715   2.325  -4.866  0.00  0.00    -0.269 OA
ATOM     10  H   UNL     1       0.063   4.766  -3.780  0.00  0.00    +0.173 HD
BRANCH   7  13
ATOM     11  C   UNL     1      -0.181   5.779  -6.199  0.00  0.00    +0.270 C 
ATOM     12  O   UNL     1       0.469   6.444  -5.421  0.00  0.00    -0.270 OA
ATOM     13  N   UNL     1      -0.719   4.609  -5.799  0.00  0.00    -0.231 N 
ATOM     14  H   UNL     1      -1.308   4.005  -6.505  0.00  0.00    +0.173 HD
BRANCH  11  16
ATOM     15  C   UNL     1       0.299   5.297  -8.584  0.00  0.00    +0.062 C 
ATOM     16  C   UNL     1      -0.388   6.259  -7.612  0.00  0.00    +0.257 C 
BRANCH  16  17
ATOM     17  O   UNL     1       0.174   7.565  -7.758  0.00  0.00    -0.480 OA
BRANCH  17  18
ATOM     18  C   UNL     1      -0.442   8.407  -8.630  0.00  0.00    +0.122 A 
ATOM     19  C   UNL     1      -0.023   9.726  -8.735  0.00  0.00    +0.048 A 
ATOM     20  C   UNL     1      -0.645  10.579  -9.625  0.00  0.00    +0.042 A 
ATOM     21  C   UNL     1      -1.695  10.122 -10.404  0.00  0.00    +0.124 A 
ATOM     22  C   UNL     1      -2.118   8.808 -10.296  0.00  0.00    +0.042 A 
ATOM     23  C   UNL     1      -1.494   7.951  -9.411  0.00  0.00    +0.048 A 
ATOM     24  F   UNL     1      -2.306  10.959 -11.271  0.00  0.00    -0.205 F 
ENDBRANCH  17  18
ENDBRANCH  16  17
ENDBRANCH  11  16
ENDBRANCH   7  13
ENDBRANCH   1   8
BRANCH   4  25
ATOM     25  S   UNL     1      -0.239   1.076   1.550  0.00  0.00    +0.072 S 
ATOM     26  O   UNL     1      -1.312   0.192   1.839  0.00  0.00    -0.150 OA
ATOM     27  O   UNL     1       0.032   2.229   2.335  0.00  0.00    -0.150 OA
BRANCH  25  28
ATOM     28  N   UNL     1       1.143   0.163   1.559  0.00  0.00    -0.213 N 
ATOM     29  H   UNL     1       1.102  -0.893   1.865  0.00  0.00    +0.174 HD
BRANCH  28  30
ATOM     30  C   UNL     1       2.362   0.734   1.177  0.00  0.00    +0.090 A 
ATOM     31  C   UNL     1       2.640   2.056   1.492  0.00  0.00    +0.028 A 
ATOM     32  C   UNL     1       3.847   2.616   1.118  0.00  0.00    +0.002 A 
ATOM     33  C   UNL     1       4.775   1.865   0.421  0.00  0.00    +0.004 A 
ATOM     34  C   UNL     1       4.503   0.548   0.099  0.00  0.00    +0.047 A 
ATOM     35  C   UNL     1       3.297  -0.022   0.474  0.00  0.00    +0.142 A 
BRANCH  35  36
ATOM     36  O   UNL     1       3.028  -1.317   0.157  0.00  0.00    -0.493 OA
ATOM     37  C   UNL     1       4.034  -2.031  -0.565  0.00  0.00    +0.277 C 
ENDBRANCH  35  36
ENDBRANCH  28  30
ENDBRANCH  25  28
ENDBRANCH   4  25
TORSDOF 9
