REMARK  Name = ZINC34757780
REMARK  10 active torsions:
REMARK  status: ('A' for Active; 'I' for Inactive)
REMARK    1  A    between atoms: C_1  and  C_2
REMARK    2  A    between atoms: C_2  and  N_3
REMARK    3  A    between atoms: N_3  and  C_4
REMARK    4  A    between atoms: C_4  and  C_5
REMARK    5  A    between atoms: C_6  and  C_8
REMARK    6  A    between atoms: C_8  and  S_9
REMARK    7  A    between atoms: S_9  and  C_10
REMARK    8  A    between atoms: N_25  and  C_28
REMARK    9  A    between atoms: C_28  and  C_29
REMARK   10  A    between atoms: C_29  and  C_30
REMARK                            x       y       z     vdW  Elec       q    Type
REMARK                         _______ _______ _______ _____ _____    ______ ____
ROOT
ATOM      1  C   UNL     1       5.211  -2.127   3.450  0.00  0.00    +0.191 A 
ATOM      2  N   UNL     1       6.519  -2.352   3.513  0.00  0.00    -0.206 NA
ATOM      3  C   UNL     1       7.131  -2.622   4.654  0.00  0.00    +0.134 A 
ATOM      4  C   UNL     1       6.368  -2.675   5.854  0.00  0.00    +0.051 A 
ATOM      5  C   UNL     1       6.835  -2.956   7.222  0.00  0.00    -0.025 A 
ATOM      6  C   UNL     1       5.909  -2.948   8.193  0.00  0.00    -0.004 A 
ATOM      7  S   UNL     1       4.378  -2.571   7.370  0.00  0.00    -0.073 S 
ATOM      8  C   UNL     1       4.991  -2.427   5.713  0.00  0.00    +0.115 A 
ATOM      9  N   UNL     1       4.453  -2.159   4.538  0.00  0.00    -0.214 NA
ATOM     10  C   UNL     1       6.498  -3.252   9.544  0.00  0.00    +0.043 C 
ATOM     11  C   UNL     1       7.875  -3.880   9.234  0.00  0.00    +0.010 C 
ATOM     12  C   UNL     1       8.194  -3.269   7.856  0.00  0.00    +0.037 C 
ATOM     13  N   UNL     1       8.494  -2.851   4.681  0.00  0.00    -0.318 N 
ATOM     14  C   UNL     1       9.439  -1.760   4.966  0.00  0.00    +0.088 C 
ATOM     15  C   UNL     1      10.520  -1.757   3.880  0.00  0.00    -0.060 C 
ATOM     16  N   UNL     1      11.136  -3.088   3.800  0.00  0.00    +0.382 N 
ATOM     17  C   UNL     1      10.141  -4.075   3.364  0.00  0.00    -0.060 C 
ATOM     18  C   UNL     1       9.041  -4.194   4.430  0.00  0.00    +0.088 C 
ATOM     19  H   UNL     1      11.490  -3.348   4.708  0.00  0.00    -0.082 HD
ENDROOT
BRANCH   1  20
ATOM     20  S   UNL     1       4.470  -1.773   1.891  0.00  0.00    -0.077 S 
BRANCH  20  21
ATOM     21  C   UNL     1       2.715  -1.534   2.284  0.00  0.00    +0.173 C 
BRANCH  21  23
ATOM     22  N   UNL     1       0.627  -1.003   1.069  0.00  0.00    -0.301 N 
ATOM     23  C   UNL     1       1.956  -1.220   1.020  0.00  0.00    +0.226 C 
ATOM     24  O   UNL     1       2.541  -1.163  -0.040  0.00  0.00    -0.275 OA
BRANCH  22  26
ATOM     25  C   UNL     1      -0.130   0.816  -0.380  0.00  0.00    +0.024 C 
ATOM     26  C   UNL     1      -0.111  -0.698  -0.159  0.00  0.00    +0.104 C 
ENDBRANCH  22  26
BRANCH  22  27
ATOM     27  C   UNL     1      -0.080  -1.071   2.351  0.00  0.00    +0.104 C 
ATOM     28  C   UNL     1      -0.564  -2.503   2.590  0.00  0.00    +0.024 C 
ENDBRANCH  22  27
ENDBRANCH  21  23
ENDBRANCH  20  21
ENDBRANCH   1  20
BRANCH  16  29
ATOM     29  C   UNL     1      12.245  -3.055   2.837  0.00  0.00    -0.074 C 
BRANCH  29  30
ATOM     30  C   UNL     1      12.967  -4.404   2.844  0.00  0.00    +0.016 C 
BRANCH  30  31
ATOM     31  C   UNL     1      14.104  -4.370   1.856  0.00  0.00    -0.049 A 
ATOM     32  C   UNL     1      13.891  -4.746   0.543  0.00  0.00    +0.003 A 
ATOM     33  C   UNL     1      14.934  -4.715  -0.363  0.00  0.00    +0.000 A 
ATOM     34  C   UNL     1      16.191  -4.308   0.044  0.00  0.00    +0.000 A 
ATOM     35  C   UNL     1      16.404  -3.930   1.356  0.00  0.00    +0.000 A 
ATOM     36  C   UNL     1      15.360  -3.957   2.262  0.00  0.00    +0.003 A 
ENDBRANCH  30  31
ENDBRANCH  29  30
ENDBRANCH  16  29
TORSDOF 8
