REMARK  Name = ZINC21256361
REMARK  10 active torsions:
REMARK  status: ('A' for Active; 'I' for Inactive)
REMARK    1  A    between atoms: C_1  and  O_2
REMARK    2  A    between atoms: O_2  and  C_3
REMARK    3  A    between atoms: C_7  and  C_9
REMARK    4  A    between atoms: C_14  and  C_24
REMARK    5  A    between atoms: C_27  and  O_34
REMARK    6  A    between atoms: C_28  and  O_32
REMARK    7  A    between atoms: C_29  and  O_30
REMARK    8  A    between atoms: O_30  and  C_31
REMARK    9  A    between atoms: O_32  and  C_33
REMARK   10  A    between atoms: O_34  and  C_35
REMARK                            x       y       z     vdW  Elec       q    Type
REMARK                         _______ _______ _______ _____ _____    ______ ____
ROOT
ATOM      1  C   UNL     1      -1.185  -0.578  -4.090  0.00  0.00    +0.032 C 
ATOM      2  C   UNL     1      -0.065  -1.508  -3.625  0.00  0.00    +0.059 C 
ATOM      3  C   UNL     1       0.451  -1.062  -2.267  0.00  0.00    +0.017 C 
ATOM      4  C   UNL     1      -0.376  -0.480  -1.380  0.00  0.00    +0.037 C 
ATOM      5  C   UNL     1       0.002  -0.004   0.002  0.00  0.00    +0.140 C 
ATOM      6  N   UNL     1       1.303  -0.447   0.457  0.00  0.00    -0.331 N 
ATOM      7  C   UNL     1       2.467  -0.029  -0.184  0.00  0.00    +0.049 A 
ATOM      8  C   UNL     1       3.405   0.763   0.459  0.00  0.00    +0.025 A 
ATOM      9  C   UNL     1       4.523   1.193  -0.234  0.00  0.00    +0.002 A 
ATOM     10  C   UNL     1       4.704   0.840  -1.559  0.00  0.00    +0.002 A 
ATOM     11  C   UNL     1       3.778   0.034  -2.200  0.00  0.00    +0.025 A 
ATOM     12  C   UNL     1       2.671  -0.415  -1.501  0.00  0.00    +0.052 A 
ATOM     13  N   UNL     1       1.765  -1.318  -2.045  0.00  0.00    -0.316 N 
ATOM     14  C   UNL     1      -1.734  -0.261  -1.711  0.00  0.00    +0.163 C 
ATOM     15  O   UNL     1      -2.463   0.250  -0.884  0.00  0.00    -0.292 OA
ATOM     16  C   UNL     1      -2.305  -0.639  -3.045  0.00  0.00    +0.088 C 
ATOM     17  H   UNL     1       1.382  -1.124   1.320  0.00  0.00    +0.147 HD
ATOM     18  H   UNL     1       2.185  -2.302  -2.300  0.00  0.00    +0.152 HD
ENDROOT
BRANCH   1  23
ATOM     19  C   UNL     1      -2.124  -0.616  -7.750  0.00  0.00    +0.120 A 
ATOM     20  C   UNL     1      -2.671  -1.885  -7.879  0.00  0.00    +0.045 A 
ATOM     21  C   UNL     1      -2.733  -2.724  -6.784  0.00  0.00    +0.004 A 
ATOM     22  C   UNL     1      -2.252  -2.300  -5.559  0.00  0.00    +0.004 A 
ATOM     23  C   UNL     1      -1.707  -1.037  -5.427  0.00  0.00    -0.040 A 
ATOM     24  C   UNL     1      -1.647  -0.192  -6.518  0.00  0.00    +0.049 A 
BRANCH  19  26
ATOM     25  C   UNL     1      -2.578  -0.290 -10.060  0.00  0.00    +0.277 C 
ATOM     26  O   UNL     1      -2.062   0.212  -8.826  0.00  0.00    -0.495 OA
ENDBRANCH  19  26
ENDBRANCH   1  23
BRANCH   5  27
ATOM     27  C   UNL     1      -0.018   1.503   0.010  0.00  0.00    +0.023 A 
ATOM     28  C   UNL     1       0.135   2.202  -1.173  0.00  0.00    +0.013 A 
ATOM     29  C   UNL     1       0.117   3.584  -1.170  0.00  0.00    +0.050 A 
ATOM     30  C   UNL     1      -0.056   4.275   0.020  0.00  0.00    +0.165 A 
ATOM     31  C   UNL     1      -0.211   3.576   1.211  0.00  0.00    +0.204 A 
ATOM     32  C   UNL     1      -0.197   2.186   1.203  0.00  0.00    +0.170 A 
BRANCH  32  33
ATOM     33  O   UNL     1      -0.353   1.498   2.366  0.00  0.00    -0.491 OA
ATOM     34  C   UNL     1       0.833   1.186   3.099  0.00  0.00    +0.277 C 
ENDBRANCH  32  33
BRANCH  31  35
ATOM     35  O   UNL     1      -0.381   4.251   2.380  0.00  0.00    -0.488 OA
ATOM     36  C   UNL     1      -1.723   4.556   2.764  0.00  0.00    +0.277 C 
ENDBRANCH  31  35
BRANCH  30  37
ATOM     37  O   UNL     1      -0.073   5.635   0.021  0.00  0.00    -0.491 OA
ATOM     38  C   UNL     1       0.093   6.287  -1.240  0.00  0.00    +0.277 C 
ENDBRANCH  30  37
ENDBRANCH   5  27
TORSDOF 6
