REMARK  Name = ZINC39668894
REMARK  4 active torsions:
REMARK  status: ('A' for Active; 'I' for Inactive)
REMARK    1  A    between atoms: C_10  and  C_12
REMARK    2  A    between atoms: C_12  and  N_13
REMARK    3  A    between atoms: C_14  and  C_16
REMARK    4  A    between atoms: C_27  and  C_29
REMARK                            x       y       z     vdW  Elec       q    Type
REMARK                         _______ _______ _______ _____ _____    ______ ____
ROOT
ATOM      1  C   UNL     1       8.383  -0.793   1.494  0.00  0.00    +0.100 C 
ATOM      2  C   UNL     1       8.915  -0.669   0.049  0.00  0.00    +0.121 C 
ATOM      3  N   UNL     1       9.748   0.557   0.060  0.00  0.00    -0.296 N 
ATOM      4  C   UNL     1      10.450   0.513   1.365  0.00  0.00    +0.115 C 
ATOM      5  C   UNL     1       9.396  -0.020   2.355  0.00  0.00    -0.004 C 
ATOM      6  C   UNL     1      10.049  -0.953   3.370  0.00  0.00    -0.010 C 
ATOM      7  C   UNL     1      11.008  -0.149   4.253  0.00  0.00    -0.082 C 
ATOM      8  N   UNL     1      10.267   0.914   4.942  0.00  0.00    +0.379 N 
ATOM      9  C   UNL     1       9.720   1.860   3.961  0.00  0.00    -0.082 C 
ATOM     10  C   UNL     1       8.707   1.141   3.066  0.00  0.00    -0.010 C 
ATOM     11  C   UNL     1       9.844   1.499  -0.899  0.00  0.00    +0.252 C 
ATOM     12  O   UNL     1      10.578   2.455  -0.740  0.00  0.00    -0.270 OA
ATOM     13  H   UNL     1       9.511   0.507   5.472  0.00  0.00    -0.086 HD
ATOM     14  H   UNL     1      10.888   1.403   5.569  0.00  0.00    -0.086 HD
ENDROOT
BRANCH  11  15
ATOM     15  C   UNL     1       9.059   1.370  -2.142  0.00  0.00    +0.107 A 
ATOM     16  C   UNL     1       7.779   1.926  -2.226  0.00  0.00    +0.138 A 
ATOM     17  C   UNL     1       7.051   1.801  -3.394  0.00  0.00    +0.039 A 
ATOM     18  C   UNL     1       7.585   1.128  -4.478  0.00  0.00    +0.006 A 
ATOM     19  C   UNL     1       8.850   0.574  -4.403  0.00  0.00    +0.039 A 
ATOM     20  C   UNL     1       9.594   0.696  -3.244  0.00  0.00    +0.138 A 
ATOM     21  F   UNL     1      10.832   0.159  -3.175  0.00  0.00    -0.205 F 
ATOM     22  F   UNL     1       7.255   2.584  -1.168  0.00  0.00    -0.205 F 
ENDBRANCH  11  15
BRANCH   1  24
ATOM     23  N   UNL     1       6.142  -0.624   2.526  0.00  0.00    -0.312 N 
ATOM     24  C   UNL     1       7.016  -0.171   1.606  0.00  0.00    +0.218 C 
ATOM     25  O   UNL     1       6.701   0.738   0.867  0.00  0.00    -0.275 OA
ATOM     26  H   UNL     1       6.394  -1.351   3.117  0.00  0.00    +0.149 HD
BRANCH  23  27
ATOM     27  C   UNL     1       4.812  -0.018   2.635  0.00  0.00    +0.140 C 
BRANCH  27  37
ATOM     28  C   UNL     1       0.028   0.803   3.754  0.00  0.00    +0.000 A 
ATOM     29  C   UNL     1       0.657   0.490   2.564  0.00  0.00    +0.000 A 
ATOM     30  C   UNL     1       1.949   0.003   2.576  0.00  0.00    +0.006 A 
ATOM     31  C   UNL     1       2.619  -0.172   3.777  0.00  0.00    -0.014 A 
ATOM     32  C   UNL     1       1.992   0.144   4.964  0.00  0.00    -0.040 A 
ATOM     33  C   UNL     1       0.695   0.630   4.951  0.00  0.00    +0.004 A 
ATOM     34  C   UNL     1       2.692  -0.021   6.289  0.00  0.00    +0.063 C 
ATOM     35  C   UNL     1       3.907  -0.935   6.122  0.00  0.00    +0.165 C 
ATOM     36  O   UNL     1       4.670  -0.476   5.000  0.00  0.00    -0.370 OA
ATOM     37  C   UNL     1       4.026  -0.712   3.749  0.00  0.00    +0.165 C 
ENDBRANCH  27  37
ENDBRANCH  23  27
ENDBRANCH   1  24
TORSDOF 4
