REMARK  Name = ZINC26460363
REMARK  5 active torsions:
REMARK  status: ('A' for Active; 'I' for Inactive)
REMARK    1  A    between atoms: N_7  and  C_11
REMARK    2  A    between atoms: C_11  and  C_12
REMARK    3  A    between atoms: C_12  and  N_13
REMARK    4  A    between atoms: C_17  and  C_19
REMARK    5  A    between atoms: N_21  and  C_22
REMARK                            x       y       z     vdW  Elec       q    Type
REMARK                         _______ _______ _______ _____ _____    ______ ____
ROOT
ATOM      1  N   UNL     1       1.310  -2.123  -0.224  0.00  0.00    +0.388 N 
ATOM      2  C   UNL     1       2.567  -2.571  -0.875  0.00  0.00    -0.078 C 
ATOM      3  C   UNL     1       2.841  -1.510  -1.963  0.00  0.00    -0.020 C 
ATOM      4  C   UNL     1       2.103  -0.244  -1.483  0.00  0.00    -0.008 C 
ATOM      5  C   UNL     1       1.446  -0.646  -0.145  0.00  0.00    +0.020 C 
ATOM      6  H   UNL     1       0.410  -2.439  -0.772  0.00  0.00    -0.081 HD
ENDROOT
BRANCH   5   7
ATOM      7  C   UNL     1       0.091   0.000  -0.010  0.00  0.00    +0.204 C 
ATOM      8  O   UNL     1      -0.903  -0.689   0.082  0.00  0.00    -0.277 OA
ATOM      9  N   UNL     1      -0.016   1.344   0.009  0.00  0.00    -0.286 N 
ATOM     10  H   UNL     1       0.890   1.968   0.020  0.00  0.00    +0.155 HD
BRANCH   9  11
ATOM     11  C   UNL     1      -1.281   1.945   0.016  0.00  0.00    +0.052 A 
ATOM     12  C   UNL     1      -2.376   1.266  -0.501  0.00  0.00    +0.026 A 
ATOM     13  C   UNL     1      -3.623   1.862  -0.493  0.00  0.00    +0.022 A 
ATOM     14  C   UNL     1      -3.780   3.134   0.028  0.00  0.00    +0.042 A 
ATOM     15  C   UNL     1      -2.691   3.813   0.544  0.00  0.00    +0.041 A 
ATOM     16  C   UNL     1      -1.442   3.220   0.544  0.00  0.00    +0.064 A 
ATOM     17 CL   UNL     1      -0.077   4.069   1.198  0.00  0.00    -0.082 Cl
ATOM     18 CL   UNL     1      -5.348   3.879   0.035  0.00  0.00    -0.083 Cl
ENDBRANCH   9  11
ENDBRANCH   5   7
BRANCH   1  19
ATOM     19  C   UNL     1       1.173  -2.711   1.116  0.00  0.00    -0.056 C 
BRANCH  19  20
ATOM     20  C   UNL     1       0.788  -4.186   0.988  0.00  0.00    +0.110 C 
BRANCH  20  27
ATOM     21  C   UNL     1      -2.772  -4.577   3.847  0.00  0.00    +0.002 A 
ATOM     22  C   UNL     1      -2.445  -5.216   5.030  0.00  0.00    +0.004 A 
ATOM     23  C   UNL     1      -1.155  -5.660   5.248  0.00  0.00    +0.048 A 
ATOM     24  C   UNL     1      -0.183  -5.465   4.279  0.00  0.00    +0.157 A 
ATOM     25  C   UNL     1      -0.514  -4.821   3.088  0.00  0.00    +0.090 A 
ATOM     26  C   UNL     1      -1.811  -4.378   2.876  0.00  0.00    +0.030 A 
ATOM     27  N   UNL     1       0.651  -4.773   2.323  0.00  0.00    -0.276 N 
ATOM     28  C   UNL     1       1.627  -5.371   3.035  0.00  0.00    +0.421 A 
ATOM     29  O   UNL     1       2.778  -5.511   2.668  0.00  0.00    -0.223 OA
ATOM     30  O   UNL     1       1.133  -5.784   4.213  0.00  0.00    -0.407 OA
ENDBRANCH  20  27
ENDBRANCH  19  20
ENDBRANCH   1  19
TORSDOF 5
