REMARK  Name = ZINC13098093
REMARK  9 active torsions:
REMARK  status: ('A' for Active; 'I' for Inactive)
REMARK    1  A    between atoms: C_1  and  C_2
REMARK    2  A    between atoms: C_6  and  N_8
REMARK    3  A    between atoms: C_9  and  C_11
REMARK    4  A    between atoms: C_11  and  C_13
REMARK    5  A    between atoms: C_11  and  N_14
REMARK    6  A    between atoms: N_14  and  C_15
REMARK    7  A    between atoms: C_19  and  S_21
REMARK    8  A    between atoms: S_21  and  N_24
REMARK    9  A    between atoms: N_24  and  C_25
REMARK                            x       y       z     vdW  Elec       q    Type
REMARK                         _______ _______ _______ _____ _____    ______ ____
ROOT
ATOM      1  C   UNL     1       2.765   9.435   0.238  0.00  0.00    +0.030 A 
ATOM      2  C   UNL     1       1.745  10.248  -0.239  0.00  0.00    +0.023 A 
ATOM      3  C   UNL     1       2.036  11.513  -0.713  0.00  0.00    +0.004 A 
ATOM      4  C   UNL     1       3.343  11.965  -0.722  0.00  0.00    +0.029 A 
ATOM      5  C   UNL     1       4.362  11.157  -0.252  0.00  0.00    +0.110 A 
ATOM      6  C   UNL     1       4.077   9.893   0.227  0.00  0.00    +0.051 A 
ENDROOT
BRANCH   5   7
ATOM      7  S   UNL     1       6.025  11.739  -0.266  0.00  0.00    +0.072 S 
ATOM      8  O   UNL     1       5.961  13.153  -0.143  0.00  0.00    -0.150 OA
ATOM      9  O   UNL     1       6.747  10.926   0.650  0.00  0.00    -0.150 OA
BRANCH   7  10
ATOM     10  N   UNL     1       6.642  11.421  -1.769  0.00  0.00    -0.216 N 
ATOM     11  H   UNL     1       7.389  10.810  -1.868  0.00  0.00    +0.174 HD
BRANCH  10  12
ATOM     12  C   UNL     1       6.087  12.033  -2.896  0.00  0.00    +0.048 A 
ATOM     13  C   UNL     1       5.283  11.302  -3.760  0.00  0.00    +0.026 A 
ATOM     14  C   UNL     1       4.731  11.911  -4.870  0.00  0.00    +0.022 A 
ATOM     15  C   UNL     1       4.988  13.246  -5.128  0.00  0.00    +0.041 A 
ATOM     16  C   UNL     1       5.794  13.976  -4.272  0.00  0.00    +0.022 A 
ATOM     17  C   UNL     1       6.343  13.373  -3.157  0.00  0.00    +0.026 A 
ATOM     18 CL   UNL     1       4.298  14.006  -6.528  0.00  0.00    -0.084 Cl
ENDBRANCH  10  12
ENDBRANCH   7  10
ENDBRANCH   5   7
BRANCH   1  19
ATOM     19  N   UNL     1       2.474   8.158   0.721  0.00  0.00    -0.333 N 
ATOM     20  H   UNL     1       3.188   7.589   1.051  0.00  0.00    +0.147 HD
BRANCH  19  21
ATOM     21  C   UNL     1       1.090   7.676   0.732  0.00  0.00    +0.154 C 
ATOM     22  C   UNL     1       0.392   8.158   2.005  0.00  0.00    +0.038 C 
BRANCH  21  24
ATOM     23  N   UNL     1      -0.088   5.502   0.696  0.00  0.00    -0.284 N 
ATOM     24  C   UNL     1       1.082   6.170   0.694  0.00  0.00    +0.237 C 
ATOM     25  O   UNL     1       2.129   5.559   0.661  0.00  0.00    -0.273 OA
ATOM     26  H   UNL     1      -0.925   5.990   0.653  0.00  0.00    +0.155 HD
BRANCH  23  32
ATOM     27  C   UNL     1      -2.195   1.349   2.273  0.00  0.00    +0.044 C 
ATOM     28  C   UNL     1      -1.106   2.066   1.517  0.00  0.00    -0.049 A 
ATOM     29  C   UNL     1      -0.113   1.340   0.884  0.00  0.00    +0.003 A 
ATOM     30  C   UNL     1       0.886   1.993   0.185  0.00  0.00    +0.002 A 
ATOM     31  C   UNL     1       0.897   3.373   0.121  0.00  0.00    +0.023 A 
ATOM     32  C   UNL     1      -0.096   4.104   0.759  0.00  0.00    +0.034 A 
ATOM     33  C   UNL     1      -1.097   3.445   1.461  0.00  0.00    +0.026 A 
ENDBRANCH  23  32
ENDBRANCH  21  24
ENDBRANCH  19  21
ENDBRANCH   1  19
TORSDOF 7
