REMARK  Name = ZINC63314240
REMARK  14 active torsions:
REMARK  status: ('A' for Active; 'I' for Inactive)
REMARK    1  A    between atoms: C_1  and  C_2
REMARK    2  A    between atoms: C_2  and  O_3
REMARK    3  A    between atoms: O_3  and  C_4
REMARK    4  A    between atoms: C_7  and  O_34
REMARK    5  A    between atoms: C_8  and  C_10
REMARK    6  A    between atoms: C_12  and  C_29
REMARK    7  A    between atoms: C_13  and  C_18
REMARK    8  A    between atoms: C_18  and  S_19
REMARK    9  A    between atoms: S_19  and  C_20
REMARK   10  A    between atoms: C_29  and  O_31
REMARK   11  A    between atoms: O_31  and  C_32
REMARK   12  A    between atoms: C_32  and  C_33
REMARK   13  A    between atoms: O_34  and  C_35
REMARK   14  A    between atoms: C_35  and  C_36
REMARK                            x       y       z     vdW  Elec       q    Type
REMARK                         _______ _______ _______ _____ _____    ______ ____
ROOT
ATOM      1  C   UNL     1       2.079  -4.139  -3.953  0.00  0.00    +0.147 C 
ATOM      2  C   UNL     1       3.321  -4.639  -3.244  0.00  0.00    +0.079 C 
ATOM      3  C   UNL     1       4.520  -4.242  -3.722  0.00  0.00    +0.034 C 
ATOM      4  N   UNL     1       4.609  -3.418  -4.807  0.00  0.00    -0.272 N 
ATOM      5  C   UNL     1       3.545  -2.948  -5.471  0.00  0.00    +0.304 C 
ATOM      6  O   UNL     1       3.724  -2.220  -6.428  0.00  0.00    -0.252 OA
ATOM      7  N   UNL     1       2.283  -3.255  -5.113  0.00  0.00    -0.288 N 
ATOM      8  H   UNL     1       5.491  -3.159  -5.115  0.00  0.00    +0.156 HD
ATOM      9  H   UNL     1       1.527  -2.903  -5.608  0.00  0.00    +0.151 HD
ENDROOT
BRANCH   1  14
ATOM     10  C   UNL     1       0.510  -1.336  -1.962  0.00  0.00    +0.121 A 
ATOM     11  C   UNL     1      -0.315  -2.039  -1.096  0.00  0.00    +0.049 A 
ATOM     12  C   UNL     1      -0.364  -3.418  -1.155  0.00  0.00    +0.049 A 
ATOM     13  C   UNL     1       0.411  -4.100  -2.081  0.00  0.00    +0.126 A 
ATOM     14  C   UNL     1       1.236  -3.398  -2.947  0.00  0.00    +0.023 A 
ATOM     15  C   UNL     1       1.281  -2.018  -2.891  0.00  0.00    +0.055 A 
BRANCH  10  16
ATOM     16  O   UNL     1       0.559   0.021  -1.903  0.00  0.00    -0.492 OA
BRANCH  16  18
ATOM     17  C   UNL     1      -0.075   2.174  -1.006  0.00  0.00    +0.048 C 
ATOM     18  C   UNL     1      -0.262   0.658  -0.921  0.00  0.00    +0.225 C 
ENDBRANCH  16  18
ENDBRANCH  10  16
BRANCH  13  19
ATOM     19  O   UNL     1       0.363  -5.458  -2.140  0.00  0.00    -0.492 OA
BRANCH  19  20
ATOM     20  C   UNL     1      -0.445  -6.121  -1.165  0.00  0.00    +0.225 C 
ATOM     21  C   UNL     1      -0.366  -7.633  -1.381  0.00  0.00    +0.048 C 
ENDBRANCH  19  20
ENDBRANCH  13  19
ENDBRANCH   1  14
BRANCH   2  22
ATOM     22  C   UNL     1       3.228  -5.491  -2.119  0.00  0.00    +0.339 C 
ATOM     23  O   UNL     1       3.046  -6.684  -2.273  0.00  0.00    -0.245 OA
BRANCH  22  24
ATOM     24  O   UNL     1       3.341  -4.982  -0.875  0.00  0.00    -0.462 OA
BRANCH  24  25
ATOM     25  C   UNL     1       3.316  -5.910   0.211  0.00  0.00    +0.229 C 
ATOM     26  C   UNL     1       3.354  -5.146   1.536  0.00  0.00    +0.048 C 
ENDBRANCH  24  25
ENDBRANCH  22  24
ENDBRANCH   2  22
BRANCH   3  27
ATOM     27  C   UNL     1       5.781  -4.715  -3.046  0.00  0.00    +0.124 C 
BRANCH  27  28
ATOM     28  S   UNL     1       6.574  -5.987  -4.068  0.00  0.00    -0.109 S 
BRANCH  28  29
ATOM     29  C   UNL     1       8.056  -6.445  -3.127  0.00  0.00    +0.236 C 
ATOM     30  N   UNL     1       7.679  -6.895  -1.781  0.00  0.00    -0.355 N 
ATOM     31  C   UNL     1       8.247  -6.092  -0.928  0.00  0.00    +0.061 A 
ATOM     32  C   UNL     1       8.245  -6.032   0.540  0.00  0.00    +0.027 A 
ATOM     33  C   UNL     1       8.943  -5.063   1.167  0.00  0.00    +0.002 A 
ATOM     34  C   UNL     1       9.685  -4.093   0.471  0.00  0.00    +0.002 A 
ATOM     35  C   UNL     1       9.755  -4.058  -0.875  0.00  0.00    +0.027 A 
ATOM     36  C   UNL     1       9.032  -5.064  -1.665  0.00  0.00    +0.061 A 
ATOM     37  N   UNL     1       8.920  -5.271  -2.945  0.00  0.00    -0.355 N 
ATOM     38  H   UNL     1       7.111  -7.651  -1.567  0.00  0.00    +0.162 HD
ATOM     39  H   UNL     1       9.332  -4.747  -3.649  0.00  0.00    +0.162 HD
ENDBRANCH  28  29
ENDBRANCH  27  28
ENDBRANCH   3  27
TORSDOF 11
