REMARK  Name = ZINC64701750
REMARK  8 active torsions:
REMARK  status: ('A' for Active; 'I' for Inactive)
REMARK    1  A    between atoms: C_1  and  O_2
REMARK    2  A    between atoms: O_2  and  C_3
REMARK    3  A    between atoms: C_6  and  C_11
REMARK    4  A    between atoms: C_8  and  O_9
REMARK    5  A    between atoms: O_9  and  C_10
REMARK    6  A    between atoms: C_20  and  S_24
REMARK    7  A    between atoms: S_24  and  C_25
REMARK    8  A    between atoms: C_25  and  C_26
REMARK                            x       y       z     vdW  Elec       q    Type
REMARK                         _______ _______ _______ _____ _____    ______ ____
ROOT
ATOM      1  C   UNL     1       2.120  -2.597   4.471  0.00  0.00    +0.102 C 
ATOM      2  C   UNL     1       3.620  -2.454   4.088  0.00  0.00    +0.054 C 
ATOM      3  C   UNL     1       4.259  -2.164   5.457  0.00  0.00    +0.167 C 
ATOM      4  C   UNL     1       5.534  -1.374   5.400  0.00  0.00    +0.272 C 
ATOM      5  O   UNL     1       6.308  -1.485   4.479  0.00  0.00    -0.270 OA
ATOM      6  N   UNL     1       5.774  -0.529   6.432  0.00  0.00    -0.081 NA
ATOM      7  N   UNL     1       4.969  -0.308   7.340  0.00  0.00    -0.163 NA
ATOM      8  C   UNL     1       3.627  -0.912   7.397  0.00  0.00    +0.269 C 
ATOM      9  N   UNL     1       3.230  -1.258   6.049  0.00  0.00    -0.196 NA
ATOM     10  N   UNL     1       1.963  -1.881   5.767  0.00  0.00    -0.243 NA
ATOM     11  H   UNL     1       1.226  -1.195   5.714  0.00  0.00    +0.142 HD
ENDROOT
BRANCH   1  15
ATOM     12  C   UNL     1      -0.346  -0.788   1.482  0.00  0.00    +0.162 A 
ATOM     13  C   UNL     1       0.294  -0.001   2.426  0.00  0.00    +0.050 A 
ATOM     14  C   UNL     1       1.090  -0.589   3.391  0.00  0.00    +0.009 A 
ATOM     15  C   UNL     1       1.251  -1.962   3.417  0.00  0.00    -0.025 A 
ATOM     16  C   UNL     1       0.615  -2.753   2.478  0.00  0.00    +0.054 A 
ATOM     17  C   UNL     1      -0.189  -2.171   1.512  0.00  0.00    +0.162 A 
BRANCH  12  19
ATOM     18  C   UNL     1      -1.244   1.213   0.562  0.00  0.00    +0.277 C 
ATOM     19  O   UNL     1      -1.130  -0.211   0.532  0.00  0.00    -0.491 OA
ENDBRANCH  12  19
BRANCH  17  20
ATOM     20  O   UNL     1      -0.820  -2.948   0.591  0.00  0.00    -0.491 OA
ATOM     21  C   UNL     1      -0.613  -4.359   0.682  0.00  0.00    +0.277 C 
ENDBRANCH  17  20
ENDBRANCH   1  15
BRANCH   8  22
ATOM     22  S   UNL     1       3.671  -2.420   8.405  0.00  0.00    -0.107 S 
BRANCH  22  23
ATOM     23  C   UNL     1       3.765  -1.805  10.109  0.00  0.00    +0.168 C 
BRANCH  23  24
ATOM     24  C   UNL     1       3.752  -2.970  11.065  0.00  0.00    +0.226 C 
ATOM     25  O   UNL     1       3.685  -4.104  10.639  0.00  0.00    -0.275 OA
ATOM     26  N   UNL     1       3.813  -2.753  12.394  0.00  0.00    -0.301 N 
ATOM     27  C   UNL     1       3.889  -1.386  12.926  0.00  0.00    +0.108 C 
ATOM     28  C   UNL     1       2.768  -1.194  13.953  0.00  0.00    +0.019 C 
ATOM     29  C   UNL     1       2.864  -2.289  15.018  0.00  0.00    +0.003 C 
ATOM     30  C   UNL     1       2.688  -3.659  14.360  0.00  0.00    +0.019 C 
ATOM     31  C   UNL     1       3.801  -3.879  13.338  0.00  0.00    +0.108 C 
ENDBRANCH  23  24
ENDBRANCH  22  23
ENDBRANCH   8  22
TORSDOF 6
