REMARK  Name = ZINC04160285
REMARK  6 active torsions:
REMARK  status: ('A' for Active; 'I' for Inactive)
REMARK    1  A    between atoms: C_1  and  C_2
REMARK    2  A    between atoms: C_12  and  C_14
REMARK    3  A    between atoms: C_14  and  C_16
REMARK    4  A    between atoms: C_14  and  N_63
REMARK    5  A    between atoms: N_20  and  C_21
REMARK    6  A    between atoms: C_30  and  C_33
REMARK                            x       y       z     vdW  Elec       q    Type
REMARK                         _______ _______ _______ _____ _____    ______ ____
ROOT
ATOM      1  C   UNL     1      -0.145   1.005  -2.408  0.00  0.00    +0.039 C 
ENDROOT
BRANCH   1  13
ATOM      2  C   UNL     1      -3.763   3.801  -7.130  0.00  0.00    +0.046 C 
ATOM      3  C   UNL     1      -3.502   2.354  -6.801  0.00  0.00    -0.026 A 
ATOM      4  C   UNL     1      -4.076   1.357  -7.562  0.00  0.00    +0.005 A 
ATOM      5  C   UNL     1      -3.845   0.021  -7.269  0.00  0.00    +0.001 A 
ATOM      6  C   UNL     1      -3.043  -0.333  -6.221  0.00  0.00    +0.010 A 
ATOM      7  C   UNL     1      -2.450   0.661  -5.435  0.00  0.00    -0.001 A 
ATOM      8  C   UNL     1      -2.682   2.018  -5.729  0.00  0.00    +0.052 A 
ATOM      9  N   UNL     1      -2.096   2.994  -4.952  0.00  0.00    -0.322 N 
ATOM     10  H   UNL     1      -2.258   3.957  -5.165  0.00  0.00    +0.169 HD
ATOM     11  C   UNL     1      -1.308   2.668  -3.912  0.00  0.00    +0.251 A 
ATOM     12  O   UNL     1      -0.810   3.557  -3.243  0.00  0.00    -0.268 OA
ATOM     13  C   UNL     1      -1.039   1.323  -3.578  0.00  0.00    +0.011 A 
ATOM     14  C   UNL     1      -1.586   0.317  -4.304  0.00  0.00    +0.017 A 
ENDBRANCH   1  13
BRANCH   1  21
ATOM     15  C   UNL     1       0.248   1.467  -0.065  0.00  0.00    -0.077 C 
ATOM     16  C   UNL     1      -0.215   2.318   1.121  0.00  0.00    -0.018 C 
ATOM     17  C   UNL     1      -1.654   1.940   1.482  0.00  0.00    -0.001 C 
ATOM     18  C   UNL     1      -2.549   2.144   0.257  0.00  0.00    -0.031 C 
ATOM     19  C   UNL     1      -2.019   1.298  -0.903  0.00  0.00    -0.074 C 
ATOM     20  C   UNL     1      -3.979   1.712   0.592  0.00  0.00    +0.005 C 
ATOM     21  N   UNL     1      -0.639   1.727  -1.218  0.00  0.00    +0.389 N 
ATOM     22  H   UNL     1      -0.641   2.735  -1.416  0.00  0.00    -0.080 HD
ENDBRANCH   1  21
BRANCH   1  23
ATOM     23  C   UNL     1       1.259   1.461  -2.709  0.00  0.00    +0.143 A 
ATOM     24  N   UNL     1       1.698   2.696  -2.702  0.00  0.00    -0.115 NA
ATOM     25  N   UNL     1       2.950   2.675  -3.010  0.00  0.00    -0.023 NA
ATOM     26  N   UNL     1       3.319   1.458  -3.212  0.00  0.00    -0.044 NA
ATOM     27  N   UNL     1       2.306   0.680  -3.031  0.00  0.00    -0.227 N 
BRANCH  27  28
ATOM     28  C   UNL     1       2.297  -0.779  -3.157  0.00  0.00    +0.111 C 
ATOM     29  C   UNL     1       3.289  -1.383  -2.160  0.00  0.00    +0.027 C 
ATOM     30  C   UNL     1       3.279  -2.908  -2.291  0.00  0.00    +0.002 C 
ATOM     31  C   UNL     1       3.683  -3.300  -3.713  0.00  0.00    +0.000 C 
ATOM     32  C   UNL     1       2.692  -2.696  -4.710  0.00  0.00    +0.002 C 
ATOM     33  C   UNL     1       2.702  -1.172  -4.579  0.00  0.00    +0.027 C 
ENDBRANCH  27  28
ENDBRANCH   1  23
TORSDOF 4
