REMARK  Name = ZINC58889508
REMARK  10 active torsions:
REMARK  status: ('A' for Active; 'I' for Inactive)
REMARK    1  A    between atoms: C_4  and  C_7
REMARK    2  A    between atoms: C_7  and  C_9
REMARK    3  A    between atoms: C_7  and  O_36
REMARK    4  A    between atoms: C_9  and  C_10
REMARK    5  A    between atoms: C_10  and  C_11
REMARK    6  A    between atoms: N_13  and  N_14
REMARK    7  A    between atoms: C_15  and  C_16
REMARK    8  A    between atoms: C_19  and  O_23
REMARK    9  A    between atoms: O_23  and  C_24
REMARK   10  A    between atoms: C_24  and  C_25
REMARK                            x       y       z     vdW  Elec       q    Type
REMARK                         _______ _______ _______ _____ _____    ______ ____
ROOT
ATOM      1  C   UNL     1       9.410  -3.997   3.483  0.00  0.00    -0.002 A 
ATOM      2  C   UNL     1       9.199  -3.379   2.247  0.00  0.00    +0.033 A 
ATOM      3  C   UNL     1      10.106  -3.561   1.224  0.00  0.00    +0.085 A 
ATOM      4  C   UNL     1      11.227  -4.358   1.420  0.00  0.00    +0.157 A 
ATOM      5  C   UNL     1      11.440  -4.975   2.647  0.00  0.00    +0.085 A 
ATOM      6  C   UNL     1      10.541  -4.793   3.677  0.00  0.00    +0.033 A 
ATOM      7 CL   UNL     1      12.842  -5.970   2.885  0.00  0.00    -0.080 Cl
ATOM      8 CL   UNL     1       9.845  -2.794  -0.312  0.00  0.00    -0.080 Cl
ENDROOT
BRANCH   1  10
ATOM      9  N   UNL     1       8.760  -4.146   5.791  0.00  0.00    -0.188 NA
ATOM     10  C   UNL     1       8.444  -3.804   4.579  0.00  0.00    +0.138 C 
BRANCH   9  13
ATOM     11  C   UNL     1      10.437  -4.737   7.374  0.00  0.00    +0.232 C 
ATOM     12  O   UNL     1       9.567  -5.061   8.155  0.00  0.00    -0.274 OA
ATOM     13  N   UNL     1      10.108  -4.264   6.155  0.00  0.00    -0.207 N 
ATOM     14  H   UNL     1      10.804  -4.006   5.531  0.00  0.00    +0.177 HD
BRANCH  11  15
ATOM     15  C   UNL     1      11.886  -4.864   7.766  0.00  0.00    +0.100 C 
BRANCH  15  16
ATOM     16  C   UNL     1      11.983  -5.422   9.188  0.00  0.00    +0.045 C 
BRANCH  16  17
ATOM     17  C   UNL     1      13.454  -5.551   9.586  0.00  0.00    +0.145 C 
BRANCH  17  21
ATOM     18  C   UNL     1      13.736  -7.427  13.414  0.00  0.00    +0.000 A 
ATOM     19  C   UNL     1      13.946  -8.166  12.264  0.00  0.00    +0.000 A 
ATOM     20  C   UNL     1      13.854  -7.559  11.026  0.00  0.00    +0.006 A 
ATOM     21  C   UNL     1      13.553  -6.213  10.937  0.00  0.00    -0.019 A 
ATOM     22  C   UNL     1      13.343  -5.474  12.086  0.00  0.00    +0.006 A 
ATOM     23  C   UNL     1      13.436  -6.081  13.324  0.00  0.00    +0.000 A 
ENDBRANCH  17  21
BRANCH  17  24
ATOM     24  O   UNL     1      14.047  -4.252   9.649  0.00  0.00    -0.387 OA
ATOM     25  H   UNL     1      13.629  -3.659  10.288  0.00  0.00    +0.210 HD
ENDBRANCH  17  24
ENDBRANCH  16  17
ENDBRANCH  15  16
ENDBRANCH  11  15
ENDBRANCH   9  13
ENDBRANCH   1  10
BRANCH   4  26
ATOM     26  O   UNL     1      12.118  -4.535   0.409  0.00  0.00    -0.484 OA
BRANCH  26  27
ATOM     27  C   UNL     1      13.197  -3.602   0.324  0.00  0.00    +0.265 C 
BRANCH  27  28
ATOM     28  C   UNL     1      14.075  -3.954  -0.849  0.00  0.00    -0.003 A 
ATOM     29  C   UNL     1      13.770  -5.024  -1.635  0.00  0.00    +0.007 A 
ATOM     30  C   UNL     1      14.570  -5.365  -2.723  0.00  0.00    +0.001 A 
ATOM     31  C   UNL     1      15.679  -4.639  -3.033  0.00  0.00    +0.008 A 
ATOM     32  C   UNL     1      16.025  -3.529  -2.245  0.00  0.00    -0.018 A 
ATOM     33  C   UNL     1      15.208  -3.178  -1.141  0.00  0.00    -0.011 A 
ATOM     34  C   UNL     1      15.552  -2.063  -0.356  0.00  0.00    +0.009 A 
ATOM     35  C   UNL     1      16.658  -1.335  -0.669  0.00  0.00    +0.001 A 
ATOM     36  C   UNL     1      17.457  -1.676  -1.758  0.00  0.00    +0.001 A 
ATOM     37  C   UNL     1      17.163  -2.756  -2.533  0.00  0.00    +0.008 A 
ENDBRANCH  27  28
ENDBRANCH  26  27
ENDBRANCH   4  26
TORSDOF 10
