REMARK  Name = ZINC39337598
REMARK  5 active torsions:
REMARK  status: ('A' for Active; 'I' for Inactive)
REMARK    1  A    between atoms: C_7  and  C_10
REMARK    2  A    between atoms: C_10  and  C_11
REMARK    3  A    between atoms: C_11  and  N_12
REMARK    4  A    between atoms: N_15  and  C_21
REMARK    5  A    between atoms: C_17  and  C_19
REMARK                            x       y       z     vdW  Elec       q    Type
REMARK                         _______ _______ _______ _____ _____    ______ ____
ROOT
ATOM      1  N   UNL     1      -4.962   5.047  -1.362  0.00  0.00    -0.329 N 
ATOM      2  C   UNL     1      -5.124   5.738  -2.553  0.00  0.00    +0.148 C 
ATOM      3  N   UNL     1      -4.859   5.297  -3.735  0.00  0.00    -0.151 NA
ATOM      4  N   UNL     1      -5.134   6.242  -4.721  0.00  0.00    -0.153 N 
ATOM      5  N   UNL     1      -5.616   7.393  -4.163  0.00  0.00    -0.195 NA
ATOM      6  C   UNL     1      -5.652   7.148  -2.707  0.00  0.00    +0.241 C 
ATOM      7  H   UNL     1      -5.197   5.469  -0.520  0.00  0.00    +0.147 HD
ATOM      8  H   UNL     1      -6.539   7.606  -4.513  0.00  0.00    +0.148 HD
ENDROOT
BRANCH   4   9
ATOM      9  C   UNL     1      -4.944   6.041  -6.087  0.00  0.00    +0.075 A 
ATOM     10  C   UNL     1      -5.246   7.056  -6.989  0.00  0.00    +0.065 A 
ATOM     11  C   UNL     1      -5.056   6.854  -8.344  0.00  0.00    +0.128 A 
ATOM     12  C   UNL     1      -4.566   5.643  -8.803  0.00  0.00    +0.076 A 
ATOM     13  C   UNL     1      -4.265   4.630  -7.907  0.00  0.00    +0.128 A 
ATOM     14  C   UNL     1      -4.447   4.829  -6.550  0.00  0.00    +0.065 A 
ATOM     15  F   UNL     1      -3.787   3.450  -8.358  0.00  0.00    -0.205 F 
ATOM     16  F   UNL     1      -5.350   7.839  -9.220  0.00  0.00    -0.205 F 
ENDBRANCH   4   9
BRANCH   6  17
ATOM     17  C   UNL     1      -7.030   7.240  -2.200  0.00  0.00    +0.091 C 
ATOM     18  N   UNL     1      -8.094   7.312  -1.809  0.00  0.00    -0.194 NA
ENDBRANCH   6  17
BRANCH   1  19
ATOM     19  C   UNL     1      -4.437   3.680  -1.374  0.00  0.00    +0.107 C 
BRANCH  19  20
ATOM     20  C   UNL     1      -4.358   3.151   0.060  0.00  0.00    +0.056 C 
BRANCH  20  27
ATOM     21  C   UNL     1      -0.017   1.384   0.010  0.00  0.00    +0.001 A 
ATOM     22  C   UNL     1       0.002  -0.004   0.002  0.00  0.00    +0.002 A 
ATOM     23  C   UNL     1      -1.173  -0.723   0.009  0.00  0.00    +0.026 A 
ATOM     24  C   UNL     1      -2.392  -0.053   0.024  0.00  0.00    +0.047 A 
ATOM     25  N   UNL     1      -3.704  -0.472   0.034  0.00  0.00    -0.360 N 
ATOM     26  C   UNL     1      -4.539   0.612   0.047  0.00  0.00    +0.087 A 
ATOM     27  C   UNL     1      -3.818   1.744   0.047  0.00  0.00    -0.021 A 
ATOM     28  C   UNL     1      -2.406   1.353   0.032  0.00  0.00    +0.003 A 
ATOM     29  C   UNL     1      -1.203   2.062   0.030  0.00  0.00    +0.010 A 
ATOM     30  H   UNL     1      -3.993  -1.398   0.030  0.00  0.00    +0.165 HD
ENDBRANCH  20  27
ENDBRANCH  19  20
ENDBRANCH   1  19
TORSDOF 5
