REMARK  Name = ZINC32753270
REMARK  10 active torsions:
REMARK  status: ('A' for Active; 'I' for Inactive)
REMARK    1  A    between atoms: C_1  and  C_2
REMARK    2  A    between atoms: C_2  and  C_28
REMARK    3  A    between atoms: N_5  and  N_9
REMARK    4  A    between atoms: C_10  and  C_12
REMARK    5  A    between atoms: C_12  and  N_13
REMARK    6  A    between atoms: N_16  and  C_19
REMARK    7  A    between atoms: C_19  and  C_20
REMARK    8  A    between atoms: C_21  and  C_22
REMARK    9  A    between atoms: C_28  and  C_29
REMARK   10  A    between atoms: C_29  and  C_30
REMARK                            x       y       z     vdW  Elec       q    Type
REMARK                         _______ _______ _______ _____ _____    ______ ____
ROOT
ATOM      1  N   UNL     1       2.826  -1.867  -1.372  0.00  0.00    -0.223 N 
ATOM      2  C   UNL     1       4.063  -1.337  -1.451  0.00  0.00    +0.244 C 
ATOM      3  O   UNL     1       4.316  -0.299  -0.878  0.00  0.00    -0.273 OA
ATOM      4  H   UNL     1       2.623  -2.697  -1.830  0.00  0.00    +0.174 HD
ENDROOT
BRANCH   1   9
ATOM      5  C   UNL     1      -0.019   1.526   0.010  0.00  0.00    +0.041 C 
ATOM      6  C   UNL     1       0.002  -0.004   0.002  0.00  0.00    +0.112 C 
ATOM      7  C   UNL     1       0.815  -0.520  -1.169  0.00  0.00    +0.263 C 
ATOM      8  O   UNL     1       0.595  -0.342  -2.348  0.00  0.00    -0.271 OA
ATOM      9  N   UNL     1       1.833  -1.217  -0.627  0.00  0.00    -0.137 N 
ATOM     10  C   UNL     1       1.777  -1.214   0.710  0.00  0.00    +0.326 C 
ATOM     11  O   UNL     1       2.586  -1.776   1.421  0.00  0.00    -0.251 OA
ATOM     12  N   UNL     1       0.724  -0.519   1.178  0.00  0.00    -0.284 N 
ATOM     13  H   UNL     1       0.487  -0.383   2.109  0.00  0.00    +0.151 HD
BRANCH   6  14
ATOM     14  C   UNL     1      -1.423  -0.560  -0.041  0.00  0.00    +0.040 C 
BRANCH  14  15
ATOM     15  C   UNL     1      -2.200  -0.066   1.182  0.00  0.00    +0.038 C 
BRANCH  15  16
ATOM     16  C   UNL     1      -3.603  -0.614   1.140  0.00  0.00    -0.047 A 
ATOM     17  C   UNL     1      -4.603   0.095   0.500  0.00  0.00    +0.003 A 
ATOM     18  C   UNL     1      -5.890  -0.407   0.461  0.00  0.00    +0.000 A 
ATOM     19  C   UNL     1      -6.178  -1.618   1.062  0.00  0.00    +0.000 A 
ATOM     20  C   UNL     1      -5.178  -2.328   1.701  0.00  0.00    +0.000 A 
ATOM     21  C   UNL     1      -3.889  -1.827   1.736  0.00  0.00    +0.003 A 
ENDBRANCH  15  16
ENDBRANCH  14  15
ENDBRANCH   6  14
ENDBRANCH   1   9
BRANCH   2  22
ATOM     22  C   UNL     1       5.131  -2.036  -2.252  0.00  0.00    +0.182 C 
BRANCH  22  23
ATOM     23  N   UNL     1       6.379  -1.264  -2.181  0.00  0.00    -0.298 NA
ATOM     24  C   UNL     1       6.235   0.034  -2.856  0.00  0.00    +0.066 C 
ATOM     25  C   UNL     1       7.534   0.829  -2.709  0.00  0.00    -0.063 C 
ATOM     26  N   UNL     1       8.643   0.070  -3.301  0.00  0.00    +0.384 N 
ATOM     27  C   UNL     1       8.791  -1.212  -2.600  0.00  0.00    -0.063 C 
ATOM     28  C   UNL     1       7.502  -2.025  -2.747  0.00  0.00    +0.066 C 
ATOM     29  H   UNL     1       8.451  -0.101  -4.277  0.00  0.00    -0.081 HD
BRANCH  26  30
ATOM     30  C   UNL     1       9.887   0.842  -3.175  0.00  0.00    -0.051 C 
BRANCH  30  31
ATOM     31  C   UNL     1      11.001   0.120  -3.890  0.00  0.00    -0.045 C 
ATOM     32  C   UNL     1      11.702   0.745  -4.825  0.00  0.00    +0.002 C 
BRANCH  32  33
ATOM     33  C   UNL     1      12.794   0.037  -5.526  0.00  0.00    -0.025 A 
ATOM     34  C   UNL     1      13.086  -1.290  -5.209  0.00  0.00    +0.008 A 
ATOM     35  C   UNL     1      14.107  -1.944  -5.867  0.00  0.00    +0.001 A 
ATOM     36  C   UNL     1      14.841  -1.288  -6.839  0.00  0.00    +0.000 A 
ATOM     37  C   UNL     1      14.557   0.028  -7.157  0.00  0.00    +0.001 A 
ATOM     38  C   UNL     1      13.534   0.692  -6.511  0.00  0.00    +0.008 A 
ENDBRANCH  32  33
ENDBRANCH  30  31
ENDBRANCH  26  30
ENDBRANCH  22  23
ENDBRANCH   2  22
TORSDOF 9
