REMARK  Name = ZINC29195252
REMARK  5 active torsions:
REMARK  status: ('A' for Active; 'I' for Inactive)
REMARK    1  A    between atoms: C_1  and  N_2
REMARK    2  A    between atoms: C_8  and  N_13
REMARK    3  A    between atoms: C_14  and  C_16
REMARK    4  A    between atoms: C_16  and  N_17
REMARK    5  A    between atoms: C_25  and  C_27
REMARK                            x       y       z     vdW  Elec       q    Type
REMARK                         _______ _______ _______ _____ _____    ______ ____
ROOT
ATOM      1  N   UNL     1      -1.729   4.165  -1.840  0.00  0.00    -0.287 N 
ATOM      2  C   UNL     1      -0.882   3.512  -1.020  0.00  0.00    +0.201 C 
ATOM      3  O   UNL     1      -0.287   4.117  -0.154  0.00  0.00    -0.278 OA
ATOM      4  H   UNL     1      -2.202   3.635  -2.679  0.00  0.00    +0.155 HD
ENDROOT
BRANCH   1  12
ATOM      5  C   UNL     1      -2.900  10.597   1.605  0.00  0.00    +0.142 C 
ATOM      6  N   UNL     1      -2.713   9.466   0.694  0.00  0.00    -0.237 N 
ATOM      7  C   UNL     1      -2.809   9.543  -0.645  0.00  0.00    +0.254 C 
ATOM      8  O   UNL     1      -3.062  10.547  -1.280  0.00  0.00    -0.270 OA
ATOM      9  C   UNL     1      -2.557   8.205  -1.214  0.00  0.00    +0.050 A 
ATOM     10  C   UNL     1      -2.524   7.693  -2.504  0.00  0.00    +0.015 A 
ATOM     11  C   UNL     1      -2.249   6.353  -2.705  0.00  0.00    +0.024 A 
ATOM     12  C   UNL     1      -2.005   5.515  -1.624  0.00  0.00    +0.034 A 
ATOM     13  C   UNL     1      -2.041   6.017  -0.323  0.00  0.00    +0.037 A 
ATOM     14  C   UNL     1      -2.310   7.357  -0.114  0.00  0.00    +0.051 A 
ATOM     15  C   UNL     1      -2.421   8.212   1.087  0.00  0.00    +0.254 C 
ATOM     16  O   UNL     1      -2.275   7.845   2.236  0.00  0.00    -0.270 OA
ENDBRANCH   1  12
BRANCH   2  17
ATOM     17  C   UNL     1      -0.674   2.027  -1.180  0.00  0.00    +0.020 C 
BRANCH  17  18
ATOM     18  N   UNL     1       0.288   1.557  -0.174  0.00  0.00    +0.393 N 
ATOM     19  C   UNL     1       1.614   2.150  -0.397  0.00  0.00    -0.072 C 
ATOM     20  C   UNL     1       2.458   1.970   0.877  0.00  0.00    +0.024 C 
ATOM     21  C   UNL     1       2.304   0.554   1.328  0.00  0.00    -0.010 A 
ATOM     22  C   UNL     1       1.368  -0.339   0.901  0.00  0.00    -0.046 A 
ATOM     23  C   UNL     1       1.420  -1.612   1.463  0.00  0.00    +0.010 A 
ATOM     24  C   UNL     1       2.368  -1.907   2.384  0.00  0.00    +0.045 A 
ATOM     25  S   UNL     1       3.257  -0.361   2.506  0.00  0.00    -0.101 S 
ATOM     26  C   UNL     1       0.339   0.090  -0.141  0.00  0.00    +0.002 C 
ATOM     27  H   UNL     1      -0.056   1.891   0.815  0.00  0.00    -0.080 HD
BRANCH  26  28
ATOM     28  C   UNL     1      -1.016  -0.455   0.233  0.00  0.00    -0.019 A 
ATOM     29  C   UNL     1      -1.667  -1.536  -0.262  0.00  0.00    +0.010 A 
ATOM     30  C   UNL     1      -2.917  -1.851   0.238  0.00  0.00    +0.008 A 
ATOM     31  C   UNL     1      -3.454  -1.071   1.207  0.00  0.00    +0.045 A 
ATOM     32  S   UNL     1      -2.176   0.152   1.447  0.00  0.00    -0.103 S 
ENDBRANCH  26  28
ENDBRANCH  17  18
ENDBRANCH   2  17
TORSDOF 4
