REMARK  Name = ZINC36637688
REMARK  8 active torsions:
REMARK  status: ('A' for Active; 'I' for Inactive)
REMARK    1  A    between atoms: C_1  and  N_2
REMARK    2  A    between atoms: N_2  and  C_3
REMARK    3  A    between atoms: N_2  and  C_4
REMARK    4  A    between atoms: C_4  and  C_5
REMARK    5  A    between atoms: C_5  and  N_6
REMARK    6  A    between atoms: C_18  and  C_20
REMARK    7  A    between atoms: C_23  and  S_26
REMARK    8  A    between atoms: S_26  and  N_29
REMARK                            x       y       z     vdW  Elec       q    Type
REMARK                         _______ _______ _______ _____ _____    ______ ____
ROOT
ATOM      1  N   UNL     1      -2.660  -2.903   0.020  0.00  0.00    -0.248 N 
ATOM      2  C   UNL     1      -3.262  -3.045  -1.219  0.00  0.00    +0.168 A 
ATOM      3  N   UNL     1      -2.702  -3.100  -2.405  0.00  0.00    -0.221 NA
ATOM      4  C   UNL     1      -3.421  -3.242  -3.541  0.00  0.00    +0.116 A 
ATOM      5  C   UNL     1      -2.944  -3.314  -4.872  0.00  0.00    +0.152 A 
ATOM      6  C   UNL     1      -3.816  -3.460  -5.922  0.00  0.00    +0.079 A 
ATOM      7  C   UNL     1      -5.188  -3.542  -5.718  0.00  0.00    +0.127 A 
ATOM      8  C   UNL     1      -5.687  -3.476  -4.429  0.00  0.00    +0.055 A 
ATOM      9  C   UNL     1      -4.820  -3.330  -3.373  0.00  0.00    +0.046 A 
ATOM     10  S   UNL     1      -4.998  -3.209  -1.609  0.00  0.00    -0.052 S 
ATOM     11  F   UNL     1      -6.027  -3.684  -6.768  0.00  0.00    -0.205 F 
ATOM     12  F   UNL     1      -1.617  -3.238  -5.112  0.00  0.00    -0.203 F 
ATOM     13  C   UNL     1      -3.414  -2.875   1.137  0.00  0.00    +0.252 C 
ATOM     14  O   UNL     1      -4.617  -3.036   1.062  0.00  0.00    -0.270 OA
ENDROOT
BRANCH  13  15
ATOM     15  C   UNL     1      -2.779  -2.648   2.452  0.00  0.00    +0.037 A 
ATOM     16  C   UNL     1      -1.553  -1.985   2.534  0.00  0.00    +0.015 A 
ATOM     17  C   UNL     1      -0.966  -1.777   3.764  0.00  0.00    +0.029 A 
ATOM     18  C   UNL     1      -1.589  -2.224   4.916  0.00  0.00    +0.106 A 
ATOM     19  C   UNL     1      -2.804  -2.881   4.842  0.00  0.00    +0.029 A 
ATOM     20  C   UNL     1      -3.405  -3.091   3.618  0.00  0.00    +0.015 A 
BRANCH  18  21
ATOM     21  S   UNL     1      -0.832  -1.954   6.484  0.00  0.00    +0.061 S 
ATOM     22  O   UNL     1      -1.348  -2.946   7.360  0.00  0.00    -0.153 OA
ATOM     23  O   UNL     1       0.560  -1.800   6.242  0.00  0.00    -0.153 OA
BRANCH  21  24
ATOM     24  N   UNL     1      -1.378  -0.495   7.047  0.00  0.00    -0.177 NA
ATOM     25  C   UNL     1      -0.638   0.700   6.708  0.00  0.00    +0.109 C 
ATOM     26  C   UNL     1       0.451   0.958   7.779  0.00  0.00    +0.017 C 
ATOM     27  C   UNL     1      -0.167   1.400   9.039  0.00  0.00    +0.001 C 
ATOM     28  C   UNL     1      -1.092   0.370   9.681  0.00  0.00    +0.001 C 
ATOM     29  C   UNL     1      -2.468   0.487   9.074  0.00  0.00    +0.017 C 
ATOM     30  C   UNL     1      -2.603  -0.468   7.870  0.00  0.00    +0.109 C 
ENDBRANCH  21  24
ENDBRANCH  18  21
ENDBRANCH  13  15
BRANCH   1  31
ATOM     31  C   UNL     1      -1.203  -2.784   0.117  0.00  0.00    +0.097 C 
BRANCH  31  32
ATOM     32  C   UNL     1      -0.771  -1.400  -0.372  0.00  0.00    -0.060 C 
BRANCH  32  34
ATOM     33  C   UNL     1       1.110  -0.049  -0.998  0.00  0.00    -0.097 C 
ATOM     34  N   UNL     1       0.696  -1.330  -0.408  0.00  0.00    +0.377 N 
ATOM     35  C   UNL     1       1.226  -1.434   0.958  0.00  0.00    -0.097 C 
ATOM     36  H   UNL     1       1.055  -2.089  -0.967  0.00  0.00    -0.083 HD
ENDBRANCH  32  34
ENDBRANCH  31  32
ENDBRANCH   1  31
TORSDOF 6
