REMARK  Name = ZINC36610255
REMARK  15 active torsions:
REMARK  status: ('A' for Active; 'I' for Inactive)
REMARK    1  A    between atoms: C_1  and  C_2
REMARK    2  A    between atoms: C_2  and  C_3
REMARK    3  A    between atoms: C_2  and  C_4
REMARK    4  A    between atoms: C_2  and  C_5
REMARK    5  A    between atoms: C_5  and  C_6
REMARK    6  A    between atoms: C_6  and  C_7
REMARK    7  A    between atoms: C_6  and  C_8
REMARK    8  A    between atoms: C_6  and  N_9
REMARK    9  A    between atoms: C_10  and  C_12
REMARK   10  A    between atoms: C_12  and  C_14
REMARK   11  A    between atoms: C_12  and  N_20
REMARK   12  A    between atoms: N_20  and  C_21
REMARK   13  A    between atoms: C_27  and  C_29
REMARK   14  A    between atoms: C_33  and  O_36
REMARK   15  A    between atoms: C_34  and  O_35
REMARK                            x       y       z     vdW  Elec       q    Type
REMARK                         _______ _______ _______ _____ _____    ______ ____
ROOT
ATOM      1  C   UNL     1       5.092  -0.769  -4.342  0.00  0.00    +0.170 C 
ENDROOT
BRANCH   1   2
ATOM      2  C   UNL     1       4.670  -2.167  -3.882  0.00  0.00    +0.019 C 
ATOM      3  C   UNL     1       4.645  -3.113  -5.084  0.00  0.00    +0.006 C 
ATOM      4  C   UNL     1       4.223  -4.510  -4.625  0.00  0.00    +0.000 C 
ATOM      5  C   UNL     1       2.828  -4.441  -4.000  0.00  0.00    +0.000 C 
ATOM      6  C   UNL     1       2.853  -3.495  -2.798  0.00  0.00    +0.000 C 
ATOM      7  C   UNL     1       3.275  -2.098  -3.258  0.00  0.00    +0.006 C 
ENDBRANCH   1   2
BRANCH   1   9
ATOM      8  N   UNL     1       4.035   0.644  -2.609  0.00  0.00    -0.309 N 
ATOM      9  C   UNL     1       5.166   0.150  -3.151  0.00  0.00    +0.235 C 
ATOM     10  O   UNL     1       6.244   0.446  -2.679  0.00  0.00    -0.274 OA
ATOM     11  H   UNL     1       3.171   0.342  -2.931  0.00  0.00    +0.149 HD
BRANCH   8  12
ATOM     12  C   UNL     1       4.111   1.638  -1.536  0.00  0.00    +0.030 C 
ATOM     13  C   UNL     1       5.122   2.722  -1.914  0.00  0.00    +0.031 C 
ATOM     14  C   UNL     1       4.554   0.956  -0.240  0.00  0.00    +0.031 C 
BRANCH  12  15
ATOM     15  C   UNL     1       2.734   2.274  -1.332  0.00  0.00    +0.031 C 
BRANCH  15  17
ATOM     16  C   UNL     1       1.479   1.270  -3.245  0.00  0.00    +0.010 C 
ATOM     17  C   UNL     1       2.096   2.557  -2.693  0.00  0.00    -0.036 C 
ATOM     18  C   UNL     1       3.166   3.066  -3.662  0.00  0.00    +0.010 C 
ATOM     19  C   UNL     1       1.005   3.618  -2.535  0.00  0.00    +0.010 C 
ENDBRANCH  15  17
ENDBRANCH  12  15
ENDBRANCH   8  12
ENDBRANCH   1   9
BRANCH   1  20
ATOM     20  N   UNL     1       6.407  -0.843  -4.985  0.00  0.00    -0.255 N 
ATOM     21  C   UNL     1       6.548  -0.475  -6.274  0.00  0.00    +0.255 C 
ATOM     22  O   UNL     1       5.617   0.034  -6.867  0.00  0.00    -0.269 OA
BRANCH  20  23
ATOM     23  C   UNL     1       7.514  -1.295  -4.261  0.00  0.00    +0.037 A 
ATOM     24  C   UNL     1       8.552  -0.423  -3.959  0.00  0.00    +0.023 A 
ATOM     25  C   UNL     1       9.645  -0.872  -3.244  0.00  0.00    +0.002 A 
ATOM     26  C   UNL     1       9.707  -2.189  -2.829  0.00  0.00    +0.000 A 
ATOM     27  C   UNL     1       8.675  -3.061  -3.127  0.00  0.00    +0.002 A 
ATOM     28  C   UNL     1       7.577  -2.616  -3.837  0.00  0.00    +0.023 A 
ENDBRANCH  20  23
BRANCH  21  29
ATOM     29  C   UNL     1       7.833  -0.691  -6.965  0.00  0.00    +0.082 A 
ATOM     30  C   UNL     1       8.750  -1.623  -6.470  0.00  0.00    +0.017 A 
ATOM     31  C   UNL     1       9.949  -1.821  -7.118  0.00  0.00    +0.005 A 
ATOM     32  C   UNL     1      10.254  -1.100  -8.261  0.00  0.00    +0.049 A 
ATOM     33  C   UNL     1       9.357  -0.174  -8.764  0.00  0.00    +0.159 A 
ATOM     34  C   UNL     1       8.139   0.033  -8.124  0.00  0.00    +0.171 A 
BRANCH  34  35
ATOM     35  O   UNL     1       7.254   0.937  -8.617  0.00  0.00    -0.503 OA
ATOM     36  H   UNL     1       7.368   1.831  -8.267  0.00  0.00    +0.292 HD
ENDBRANCH  34  35
BRANCH  33  37
ATOM     37  O   UNL     1       9.663   0.530  -9.887  0.00  0.00    -0.503 OA
ATOM     38  H   UNL     1       9.380   0.104 -10.708  0.00  0.00    +0.292 HD
ENDBRANCH  33  37
ENDBRANCH  21  29
ENDBRANCH   1  20
TORSDOF 10
