REMARK  Name = ZINC28066977
REMARK  9 active torsions:
REMARK  status: ('A' for Active; 'I' for Inactive)
REMARK    1  A    between atoms: C_1  and  C_2
REMARK    2  A    between atoms: C_2  and  C_3
REMARK    3  A    between atoms: C_6  and  C_9
REMARK    4  A    between atoms: C_12  and  C_35
REMARK    5  A    between atoms: C_19  and  C_22
REMARK    6  A    between atoms: C_22  and  C_23
REMARK    7  A    between atoms: N_25  and  C_26
REMARK    8  A    between atoms: C_29  and  C_32
REMARK    9  A    between atoms: C_32  and  C_34
REMARK                            x       y       z     vdW  Elec       q    Type
REMARK                         _______ _______ _______ _____ _____    ______ ____
ROOT
ATOM      1  C   UNL     1     -12.134  -2.296   4.028  0.00  0.00    +0.136 C 
ATOM      2  C   UNL     1     -12.408  -1.770   5.450  0.00  0.00    +0.087 C 
ATOM      3  C   UNL     1     -11.185  -0.941   5.774  0.00  0.00    +0.069 C 
ATOM      4  N   UNL     1     -10.369  -0.970   4.777  0.00  0.00    -0.182 NA
ATOM      5  N   UNL     1     -10.814  -1.734   3.700  0.00  0.00    -0.195 N 
ATOM      6  C   UNL     1     -10.138  -1.924   2.529  0.00  0.00    +0.170 C 
ATOM      7  N   UNL     1     -10.511  -2.636   1.474  0.00  0.00    -0.157 NA
ATOM      8  C   UNL     1      -9.802  -2.768   0.387  0.00  0.00    +0.252 C 
ATOM      9  O   UNL     1     -10.180  -3.431  -0.560  0.00  0.00    -0.272 OA
ATOM     10  C   UNL     1      -8.467  -2.033   0.385  0.00  0.00    +0.150 C 
ATOM     11  S   UNL     1      -8.542  -1.271   2.056  0.00  0.00    -0.078 S 
ENDROOT
BRANCH   1  15
ATOM     12  C   UNL     1     -15.095  -0.875   1.297  0.00  0.00    -0.048 A 
ATOM     13  C   UNL     1     -15.133  -2.184   1.737  0.00  0.00    +0.004 A 
ATOM     14  C   UNL     1     -14.174  -2.644   2.621  0.00  0.00    +0.006 A 
ATOM     15  C   UNL     1     -13.178  -1.795   3.064  0.00  0.00    -0.025 A 
ATOM     16  C   UNL     1     -13.143  -0.484   2.627  0.00  0.00    +0.006 A 
ATOM     17  C   UNL     1     -14.098  -0.025   1.740  0.00  0.00    +0.004 A 
BRANCH  12  19
ATOM     18  C   UNL     1     -17.325   0.194   1.117  0.00  0.00    +0.009 C 
ATOM     19  C   UNL     1     -16.140  -0.373   0.334  0.00  0.00    +0.032 C 
ENDBRANCH  12  19
ENDBRANCH   1  15
BRANCH   3  20
ATOM     20  C   UNL     1     -10.961  -0.212   7.036  0.00  0.00    -0.002 A 
ATOM     21  C   UNL     1     -11.924  -0.249   8.048  0.00  0.00    +0.010 A 
ATOM     22  C   UNL     1     -11.705   0.432   9.228  0.00  0.00    +0.001 A 
ATOM     23  C   UNL     1     -10.541   1.159   9.406  0.00  0.00    +0.000 A 
ATOM     24  C   UNL     1      -9.586   1.204   8.405  0.00  0.00    +0.001 A 
ATOM     25  C   UNL     1      -9.789   0.524   7.223  0.00  0.00    +0.010 A 
ENDBRANCH   3  20
BRANCH  10  26
ATOM     26  C   UNL     1      -7.293  -3.007   0.268  0.00  0.00    +0.120 C 
BRANCH  26  27
ATOM     27  C   UNL     1      -6.007  -2.231   0.147  0.00  0.00    +0.219 C 
ATOM     28  O   UNL     1      -6.027  -1.018   0.154  0.00  0.00    -0.275 OA
ATOM     29  N   UNL     1      -4.834  -2.885   0.031  0.00  0.00    -0.285 N 
ATOM     30  H   UNL     1      -4.822  -3.980  -0.063  0.00  0.00    +0.155 HD
BRANCH  29  31
ATOM     31  C   UNL     1      -3.637  -2.172   0.030  0.00  0.00    +0.033 A 
ATOM     32  C   UNL     1      -3.518  -1.014   0.794  0.00  0.00    +0.024 A 
ATOM     33  C   UNL     1      -2.341  -0.310   0.797  0.00  0.00    +0.013 A 
ATOM     34  C   UNL     1      -1.258  -0.758   0.030  0.00  0.00    +0.017 A 
ATOM     35  C   UNL     1      -1.385  -1.920  -0.742  0.00  0.00    +0.013 A 
ATOM     36  C   UNL     1      -2.563  -2.620  -0.734  0.00  0.00    +0.024 A 
BRANCH  34  37
ATOM     37  C   UNL     1       0.004  -0.007   0.030  0.00  0.00    +0.160 C 
ATOM     38  O   UNL     1       0.110   1.002   0.695  0.00  0.00    -0.292 OA
ATOM     39  C   UNL     1       1.168  -0.491  -0.796  0.00  0.00    +0.091 C 
ENDBRANCH  34  37
ENDBRANCH  29  31
ENDBRANCH  26  27
ENDBRANCH  10  26
TORSDOF 7
