REMARK  Name = ZINC63446531
REMARK  5 active torsions:
REMARK  status: ('A' for Active; 'I' for Inactive)
REMARK    1  A    between atoms: C_4  and  C_7
REMARK    2  A    between atoms: C_11  and  S_20
REMARK    3  A    between atoms: N_13  and  C_14
REMARK    4  A    between atoms: S_20  and  C_21
REMARK    5  A    between atoms: C_21  and  C_22
REMARK                            x       y       z     vdW  Elec       q    Type
REMARK                         _______ _______ _______ _____ _____    ______ ____
ROOT
ATOM      1  C   UNL     1       3.543  -0.638  -0.186  0.00  0.00    +0.188 C 
ATOM      2  N   UNL     1       4.591   0.057  -0.968  0.00  0.00    -0.230 NA
ATOM      3  N   UNL     1       5.504  -1.017  -1.392  0.00  0.00    -0.226 NA
ATOM      4  C   UNL     1       4.580  -2.144  -1.685  0.00  0.00    +0.217 C 
ATOM      5  N   UNL     1       3.537  -2.039  -0.643  0.00  0.00    -0.284 N 
ATOM      6  H   UNL     1       5.074   0.738  -0.401  0.00  0.00    +0.143 HD
ATOM      7  H   UNL     1       6.019  -0.749  -2.217  0.00  0.00    +0.143 HD
ENDROOT
BRANCH   1  11
ATOM      8  C   UNL     1      -0.263   1.156  -0.918  0.00  0.00    +0.000 A 
ATOM      9  C   UNL     1       0.426   0.551  -1.952  0.00  0.00    +0.000 A 
ATOM     10  C   UNL     1       1.658  -0.030  -1.716  0.00  0.00    +0.007 A 
ATOM     11  C   UNL     1       2.201  -0.004  -0.445  0.00  0.00    -0.012 A 
ATOM     12  C   UNL     1       1.512   0.602   0.589  0.00  0.00    +0.007 A 
ATOM     13  C   UNL     1       0.280   1.181   0.353  0.00  0.00    +0.000 A 
ENDBRANCH   1  11
BRANCH   5  14
ATOM     14  C   UNL     1       2.708  -3.065  -0.182  0.00  0.00    +0.033 A 
ATOM     15  C   UNL     1       1.858  -2.843   0.894  0.00  0.00    +0.023 A 
ATOM     16  C   UNL     1       1.040  -3.859   1.347  0.00  0.00    +0.002 A 
ATOM     17  C   UNL     1       1.065  -5.096   0.731  0.00  0.00    +0.000 A 
ATOM     18  C   UNL     1       1.910  -5.321  -0.341  0.00  0.00    +0.002 A 
ATOM     19  C   UNL     1       2.727  -4.307  -0.803  0.00  0.00    +0.023 A 
ENDBRANCH   5  14
BRANCH   4  20
ATOM     20  S   UNL     1       5.452  -3.729  -1.556  0.00  0.00    -0.118 S 
BRANCH  20  21
ATOM     21  C   UNL     1       6.075  -3.750   0.147  0.00  0.00    +0.119 C 
BRANCH  21  22
ATOM     22  C   UNL     1       6.842  -5.051   0.393  0.00  0.00    +0.184 C 
ATOM     23  N   UNL     1       7.930  -5.188  -0.583  0.00  0.00    -0.363 N 
ATOM     24  C   UNL     1       7.709  -6.275  -1.265  0.00  0.00    +0.060 A 
ATOM     25  C   UNL     1       8.434  -6.931  -2.361  0.00  0.00    +0.027 A 
ATOM     26  C   UNL     1       7.954  -8.077  -2.884  0.00  0.00    +0.002 A 
ATOM     27  C   UNL     1       6.773  -8.685  -2.422  0.00  0.00    +0.002 A 
ATOM     28  C   UNL     1       6.032  -8.167  -1.422  0.00  0.00    +0.027 A 
ATOM     29  C   UNL     1       6.459  -6.918  -0.775  0.00  0.00    +0.060 A 
ATOM     30  N   UNL     1       5.956  -6.205   0.190  0.00  0.00    -0.363 N 
ATOM     31  H   UNL     1       8.676  -4.580  -0.699  0.00  0.00    +0.162 HD
ATOM     32  H   UNL     1       5.144  -6.399   0.685  0.00  0.00    +0.162 HD
ENDBRANCH  21  22
ENDBRANCH  20  21
ENDBRANCH   4  20
TORSDOF 5
