REMARK  Name = ZINC01833427
REMARK  4 active torsions:
REMARK  status: ('A' for Active; 'I' for Inactive)
REMARK    1  A    between atoms: C_4  and  C_7
REMARK    2  A    between atoms: C_17  and  C_19
REMARK    3  A    between atoms: C_22  and  S_25
REMARK    4  A    between atoms: S_25  and  C_26
REMARK                            x       y       z     vdW  Elec       q    Type
REMARK                         _______ _______ _______ _____ _____    ______ ____
ROOT
ATOM      1  C   UNL     1       3.747  -0.604  -0.011  0.00  0.00    +0.019 C 
ATOM      2  C   UNL     1       3.814  -1.482  -1.263  0.00  0.00    +0.013 C 
ATOM      3  C   UNL     1       5.139  -2.244  -1.282  0.00  0.00    +0.067 C 
ATOM      4  C   UNL     1       5.231  -3.134  -0.037  0.00  0.00    +0.180 C 
ATOM      5  C   UNL     1       5.174  -2.249   1.213  0.00  0.00    +0.067 C 
ATOM      6  C   UNL     1       3.849  -1.486   1.235  0.00  0.00    +0.013 C 
ATOM      7  N   UNL     1       6.450  -3.904  -0.054  0.00  0.00    -0.177 NA
ATOM      8  C   UNL     1       6.412  -4.909  -1.161  0.00  0.00    +0.138 C 
ATOM      9  C   UNL     1       7.842  -5.376  -1.169  0.00  0.00    +0.023 C 
ATOM     10  C   UNL     1       8.539  -4.401  -0.552  0.00  0.00    +0.047 C 
ATOM     11  N   UNL     1       7.672  -3.357  -0.172  0.00  0.00    -0.273 N 
ATOM     12  C   UNL     1       5.397  -5.906  -0.687  0.00  0.00    +0.017 A 
ATOM     13  C   UNL     1       5.547  -7.262  -0.802  0.00  0.00    +0.009 A 
ATOM     14  C   UNL     1       4.557  -8.104  -0.320  0.00  0.00    +0.001 A 
ATOM     15  C   UNL     1       3.428  -7.570   0.273  0.00  0.00    +0.004 A 
ATOM     16  C   UNL     1       3.274  -6.202   0.385  0.00  0.00    +0.046 A 
ATOM     17  C   UNL     1       4.254  -5.350  -0.101  0.00  0.00    +0.128 A 
ATOM     18  O   UNL     1       4.102  -4.021  -0.023  0.00  0.00    -0.469 OA
ATOM     19  H   UNL     1       7.910  -2.429  -0.025  0.00  0.00    +0.167 HD
ENDROOT
BRANCH   1  23
ATOM     20  C   UNL     1       0.040   1.517   0.042  0.00  0.00    +0.000 A 
ATOM     21  C   UNL     1       1.234   2.213   0.028  0.00  0.00    +0.000 A 
ATOM     22  C   UNL     1       2.434   1.526   0.010  0.00  0.00    +0.004 A 
ATOM     23  C   UNL     1       2.439   0.144   0.008  0.00  0.00    -0.044 A 
ATOM     24  C   UNL     1       1.245  -0.552   0.024  0.00  0.00    +0.004 A 
ATOM     25  C   UNL     1       0.045   0.135   0.039  0.00  0.00    +0.000 A 
ENDBRANCH   1  23
BRANCH  10  26
ATOM     26  C   UNL     1       9.999  -4.424  -0.309  0.00  0.00    -0.003 A 
ATOM     27  C   UNL     1      10.762  -5.512  -0.736  0.00  0.00    +0.011 A 
ATOM     28  C   UNL     1      12.120  -5.531  -0.509  0.00  0.00    +0.016 A 
ATOM     29  C   UNL     1      12.732  -4.467   0.145  0.00  0.00    +0.013 A 
ATOM     30  C   UNL     1      11.974  -3.381   0.572  0.00  0.00    +0.016 A 
ATOM     31  C   UNL     1      10.616  -3.355   0.342  0.00  0.00    +0.011 A 
BRANCH  29  32
ATOM     32  S   UNL     1      14.470  -4.494   0.434  0.00  0.00    -0.089 S 
BRANCH  32  33
ATOM     33  C   UNL     1      14.621  -5.142   2.066  0.00  0.00    +0.013 A 
ATOM     34  C   UNL     1      13.496  -5.602   2.739  0.00  0.00    +0.015 A 
ATOM     35  C   UNL     1      13.618  -6.110   4.018  0.00  0.00    +0.001 A 
ATOM     36  C   UNL     1      14.858  -6.160   4.628  0.00  0.00    +0.000 A 
ATOM     37  C   UNL     1      15.980  -5.703   3.961  0.00  0.00    +0.001 A 
ATOM     38  C   UNL     1      15.866  -5.199   2.680  0.00  0.00    +0.015 A 
ENDBRANCH  32  33
ENDBRANCH  29  32
ENDBRANCH  10  26
TORSDOF 4
