REMARK  Name = ZINC06190621
REMARK  10 active torsions:
REMARK  status: ('A' for Active; 'I' for Inactive)
REMARK    1  A    between atoms: C_1  and  C_2
REMARK    2  A    between atoms: C_2  and  C_3
REMARK    3  A    between atoms: C_2  and  C_4
REMARK    4  A    between atoms: C_4  and  C_6
REMARK    5  A    between atoms: C_4  and  N_19
REMARK    6  A    between atoms: N_8  and  N_9
REMARK    7  A    between atoms: C_10  and  C_11
REMARK    8  A    between atoms: C_20  and  C_22
REMARK    9  A    between atoms: C_22  and  C_23
REMARK   10  A    between atoms: C_22  and  C_29
REMARK                            x       y       z     vdW  Elec       q    Type
REMARK                         _______ _______ _______ _____ _____    ______ ____
ROOT
ATOM      1  C   UNL     1       6.600   2.890  -0.235  0.00  0.00    +0.163 C 
ENDROOT
BRANCH   1   2
ATOM      2  C   UNL     1       5.737   1.788   0.323  0.00  0.00    +0.253 C 
ATOM      3  O   UNL     1       6.043   0.628   0.145  0.00  0.00    -0.272 OA
ATOM      4  N   UNL     1       4.623   2.091   1.019  0.00  0.00    -0.205 N 
ATOM      5  H   UNL     1       4.414   3.017   1.220  0.00  0.00    +0.177 HD
BRANCH   4   6
ATOM      6  N   UNL     1       3.768   1.070   1.453  0.00  0.00    -0.188 NA
ATOM      7  C   UNL     1       2.696   1.362   2.123  0.00  0.00    +0.139 C 
BRANCH   7   8
ATOM      8  C   UNL     1       1.797   0.287   2.580  0.00  0.00    +0.013 A 
ATOM      9  C   UNL     1       0.642   0.597   3.303  0.00  0.00    +0.012 A 
ATOM     10  C   UNL     1      -0.195  -0.413   3.727  0.00  0.00    +0.021 A 
ATOM     11  C   UNL     1       0.104  -1.734   3.435  0.00  0.00    +0.042 A 
ATOM     12  C   UNL     1       1.249  -2.050   2.724  0.00  0.00    +0.040 A 
ATOM     13  C   UNL     1       2.096  -1.048   2.293  0.00  0.00    +0.051 A 
ATOM     14 CL   UNL     1       3.528  -1.446   1.397  0.00  0.00    -0.083 Cl
ATOM     15 CL   UNL     1      -0.960  -2.998   3.967  0.00  0.00    -0.083 Cl
ENDBRANCH   7   8
ENDBRANCH   4   6
ENDBRANCH   1   2
BRANCH   1  16
ATOM     16  N   UNL     1       7.978   2.410  -0.371  0.00  0.00    -0.303 N 
ATOM     17  C   UNL     1       9.001   3.286  -0.355  0.00  0.00    +0.225 C 
ATOM     18  O   UNL     1       8.782   4.473  -0.229  0.00  0.00    -0.275 OA
ATOM     19  H   UNL     1       8.153   1.461  -0.471  0.00  0.00    +0.149 HD
BRANCH  17  20
ATOM     20  C   UNL     1      10.418   2.792  -0.495  0.00  0.00    +0.135 C 
BRANCH  20  21
ATOM     21  C   UNL     1      10.572   2.075  -1.812  0.00  0.00    -0.031 A 
ATOM     22  C   UNL     1      11.107   0.800  -1.846  0.00  0.00    +0.005 A 
ATOM     23  C   UNL     1      11.244   0.141  -3.053  0.00  0.00    +0.000 A 
ATOM     24  C   UNL     1      10.856   0.759  -4.226  0.00  0.00    +0.000 A 
ATOM     25  C   UNL     1      10.326   2.035  -4.193  0.00  0.00    +0.000 A 
ATOM     26  C   UNL     1      10.184   2.693  -2.985  0.00  0.00    +0.005 A 
ENDBRANCH  20  21
BRANCH  20  27
ATOM     27  C   UNL     1      11.366   3.963  -0.447  0.00  0.00    -0.031 A 
ATOM     28  C   UNL     1      11.200   5.022  -1.320  0.00  0.00    +0.005 A 
ATOM     29  C   UNL     1      12.066   6.099  -1.273  0.00  0.00    +0.000 A 
ATOM     30  C   UNL     1      13.104   6.111  -0.360  0.00  0.00    +0.000 A 
ATOM     31  C   UNL     1      13.273   5.050   0.509  0.00  0.00    +0.000 A 
ATOM     32  C   UNL     1      12.404   3.976   0.466  0.00  0.00    +0.005 A 
ENDBRANCH  20  27
ENDBRANCH  17  20
ENDBRANCH   1  16
BRANCH   1  34
ATOM     33  C   UNL     1       6.030   2.093  -2.533  0.00  0.00    +0.009 C 
ATOM     34  C   UNL     1       6.069   3.310  -1.607  0.00  0.00    +0.012 C 
ATOM     35  C   UNL     1       4.657   3.880  -1.454  0.00  0.00    +0.009 C 
ENDBRANCH   1  34
TORSDOF 8
