REMARK  Name = ZINC32636321
REMARK  13 active torsions:
REMARK  status: ('A' for Active; 'I' for Inactive)
REMARK    1  A    between atoms: C_1  and  N_2
REMARK    2  A    between atoms: N_2  and  C_3
REMARK    3  A    between atoms: N_2  and  C_4
REMARK    4  A    between atoms: C_4  and  C_6
REMARK    5  A    between atoms: C_4  and  C_30
REMARK    6  A    between atoms: C_6  and  N_7
REMARK    7  A    between atoms: C_8  and  C_10
REMARK    8  A    between atoms: C_10  and  S_11
REMARK    9  A    between atoms: S_11  and  C_12
REMARK   10  A    between atoms: N_25  and  C_26
REMARK   11  A    between atoms: C_26  and  C_27
REMARK   12  A    between atoms: C_27  and  O_28
REMARK   13  A    between atoms: O_28  and  C_29
REMARK                            x       y       z     vdW  Elec       q    Type
REMARK                         _______ _______ _______ _____ _____    ______ ____
ROOT
ATOM      1  S   UNL     1       0.803   3.225   2.659  0.00  0.00    -0.078 S 
ENDROOT
BRANCH   1   2
ATOM      2  C   UNL     1      -0.740   2.656   3.291  0.00  0.00    +0.173 A 
ATOM      3  N   UNL     1      -1.540   3.501   3.910  0.00  0.00    -0.216 NA
ATOM      4  C   UNL     1      -2.706   3.097   4.401  0.00  0.00    +0.117 A 
ATOM      5  C   UNL     1      -3.147   1.768   4.283  0.00  0.00    +0.076 A 
ATOM      6  C   UNL     1      -4.454   1.474   4.873  0.00  0.00    -0.023 A 
ATOM      7  C   UNL     1      -5.101   2.496   5.467  0.00  0.00    -0.004 A 
ATOM      8  S   UNL     1      -4.026   3.893   5.280  0.00  0.00    -0.073 S 
ATOM      9  C   UNL     1      -6.441   2.455   6.138  0.00  0.00    +0.043 C 
ATOM     10  C   UNL     1      -7.147   1.155   5.730  0.00  0.00    +0.005 C 
ATOM     11  C   UNL     1      -6.166  -0.010   5.894  0.00  0.00    +0.005 C 
ATOM     12  C   UNL     1      -5.072   0.079   4.829  0.00  0.00    +0.037 C 
ATOM     13  C   UNL     1      -2.261   0.876   3.600  0.00  0.00    +0.263 A 
ATOM     14  O   UNL     1      -2.559  -0.297   3.451  0.00  0.00    -0.267 OA
ATOM     15  N   UNL     1      -1.093   1.348   3.127  0.00  0.00    -0.285 N 
BRANCH  15  16
ATOM     16  C   UNL     1      -0.181   0.440   2.427  0.00  0.00    +0.155 C 
BRANCH  16  17
ATOM     17  C   UNL     1      -0.503   0.447   0.931  0.00  0.00    +0.181 C 
BRANCH  17  18
ATOM     18  O   UNL     1      -0.233   1.742   0.392  0.00  0.00    -0.381 OA
ATOM     19  C   UNL     1      -0.501   1.857  -1.007  0.00  0.00    +0.194 C 
ENDBRANCH  17  18
ENDBRANCH  16  17
ENDBRANCH  15  16
ENDBRANCH   1   2
BRANCH   1  20
ATOM     20  C   UNL     1       0.724   4.964   3.155  0.00  0.00    +0.173 C 
BRANCH  20  22
ATOM     21  N   UNL     1       2.139   6.984   2.967  0.00  0.00    -0.316 N 
ATOM     22  C   UNL     1       1.976   5.672   2.706  0.00  0.00    +0.223 C 
ATOM     23  O   UNL     1       2.838   5.061   2.110  0.00  0.00    -0.275 OA
ATOM     24  H   UNL     1       1.358   7.538   3.508  0.00  0.00    +0.149 HD
BRANCH  21  25
ATOM     25  C   UNL     1       3.357   7.673   2.531  0.00  0.00    +0.093 C 
BRANCH  25  26
ATOM     26  C   UNL     1       3.289   9.143   2.950  0.00  0.00    -0.021 C 
BRANCH  26  27
ATOM     27  C   UNL     1       4.482   9.878   2.396  0.00  0.00    -0.059 A 
ATOM     28  C   UNL     1       5.231  10.699   3.219  0.00  0.00    +0.002 A 
ATOM     29  C   UNL     1       6.329  11.370   2.712  0.00  0.00    +0.000 A 
ATOM     30  C   UNL     1       6.671  11.227   1.380  0.00  0.00    +0.000 A 
ATOM     31  C   UNL     1       5.919  10.411   0.556  0.00  0.00    +0.000 A 
ATOM     32  C   UNL     1       4.825   9.736   1.065  0.00  0.00    +0.002 A 
ENDBRANCH  26  27
BRANCH  26  34
ATOM     33  C   UNL     1       1.865  11.101   2.960  0.00  0.00    -0.096 C 
ATOM     34  N   UNL     1       2.056   9.745   2.427  0.00  0.00    +0.382 N 
ATOM     35  C   UNL     1       2.056   9.752   0.958  0.00  0.00    -0.096 C 
ATOM     36  H   UNL     1       1.210   9.128   2.762  0.00  0.00    -0.082 HD
ENDBRANCH  26  34
ENDBRANCH  25  26
ENDBRANCH  21  25
ENDBRANCH  20  22
ENDBRANCH   1  20
TORSDOF 10
