REMARK  Name = ZINC20134453
REMARK  11 active torsions:
REMARK  status: ('A' for Active; 'I' for Inactive)
REMARK    1  A    between atoms: C_1  and  C_2
REMARK    2  A    between atoms: C_2  and  C_33
REMARK    3  A    between atoms: C_6  and  C_22
REMARK    4  A    between atoms: C_12  and  S_16
REMARK    5  A    between atoms: S_16  and  C_17
REMARK    6  A    between atoms: C_17  and  C_18
REMARK    7  A    between atoms: C_18  and  N_19
REMARK    8  A    between atoms: N_19  and  C_20
REMARK    9  A    between atoms: N_19  and  C_21
REMARK   10  A    between atoms: C_27  and  O_28
REMARK   11  A    between atoms: O_28  and  C_29
REMARK                            x       y       z     vdW  Elec       q    Type
REMARK                         _______ _______ _______ _____ _____    ______ ____
ROOT
ATOM      1  C   UNL     1      -1.053   8.548   2.820  0.00  0.00    +0.011 C 
ATOM      2  C   UNL     1      -1.708   7.331   3.476  0.00  0.00    -0.023 C 
ATOM      3  C   UNL     1      -2.737   6.722   2.521  0.00  0.00    +0.058 C 
ATOM      4  C   UNL     1      -2.047   6.263   1.259  0.00  0.00    +0.017 C 
ATOM      5  C   UNL     1      -0.772   5.826   1.285  0.00  0.00    +0.024 C 
ATOM      6  C   UNL     1      -0.082   5.350   0.031  0.00  0.00    +0.096 C 
ATOM      7  C   UNL     1      -0.792   5.836  -1.197  0.00  0.00    +0.071 A 
ATOM      8  C   UNL     1      -0.141   5.842  -2.436  0.00  0.00    +0.280 A 
ATOM      9  O   UNL     1       1.012   5.454  -2.534  0.00  0.00    -0.265 OA
ATOM     10  N   UNL     1      -0.812   6.285  -3.520  0.00  0.00    -0.183 NA
ATOM     11  C   UNL     1      -2.099   6.713  -3.400  0.00  0.00    +0.193 A 
ATOM     12  N   UNL     1      -2.717   6.711  -2.236  0.00  0.00    -0.206 NA
ATOM     13  C   UNL     1      -2.099   6.287  -1.128  0.00  0.00    +0.135 A 
ATOM     14  N   UNL     1      -2.754   6.300   0.088  0.00  0.00    -0.302 N 
ATOM     15  C   UNL     1      -0.038   5.802   2.486  0.00  0.00    +0.162 C 
ATOM     16  O   UNL     1       1.106   5.392   2.477  0.00  0.00    -0.292 OA
ATOM     17  C   UNL     1      -0.643   6.272   3.780  0.00  0.00    +0.086 C 
ATOM     18  C   UNL     1      -2.398   7.755   4.774  0.00  0.00    +0.011 C 
ATOM     19  H   UNL     1      -3.853   6.340   0.110  0.00  0.00    +0.153 HD
ENDROOT
BRANCH   6  20
ATOM     20  C   UNL     1      -0.057   3.844   0.023  0.00  0.00    +0.006 A 
ATOM     21  C   UNL     1      -1.242   3.132   0.031  0.00  0.00    +0.008 A 
ATOM     22  C   UNL     1      -1.220   1.750   0.017  0.00  0.00    +0.001 A 
ATOM     23  C   UNL     1      -0.013   1.076   0.008  0.00  0.00    +0.004 A 
ATOM     24  C   UNL     1       1.174   1.782   0.000  0.00  0.00    +0.046 A 
ATOM     25  C   UNL     1       1.155   3.169   0.008  0.00  0.00    +0.124 A 
BRANCH  25  26
ATOM     26  O   UNL     1       2.321   3.867   0.000  0.00  0.00    -0.495 OA
ATOM     27  C   UNL     1       3.531   3.107  -0.016  0.00  0.00    +0.277 C 
ENDBRANCH  25  26
ENDBRANCH   6  20
BRANCH  11  28
ATOM     28  S   UNL     1      -2.956   7.284  -4.830  0.00  0.00    -0.088 S 
BRANCH  28  29
ATOM     29  C   UNL     1      -4.554   7.705  -4.091  0.00  0.00    +0.059 C 
BRANCH  29  30
ATOM     30  C   UNL     1      -5.492   8.239  -5.176  0.00  0.00    -0.068 C 
BRANCH  30  31
ATOM     31  N   UNL     1      -6.789   8.581  -4.576  0.00  0.00    +0.376 N 
ATOM     32  C   UNL     1      -6.657   9.708  -3.643  0.00  0.00    -0.097 C 
ATOM     33  C   UNL     1      -7.788   8.871  -5.613  0.00  0.00    -0.097 C 
ATOM     34  H   UNL     1      -7.138   7.708  -4.005  0.00  0.00    -0.083 HD
ENDBRANCH  30  31
ENDBRANCH  29  30
ENDBRANCH  28  29
ENDBRANCH  11  28
TORSDOF 6
