REMARK  Name = ZINC04556807
REMARK  13 active torsions:
REMARK  status: ('A' for Active; 'I' for Inactive)
REMARK    1  A    between atoms: C_1  and  C_2
REMARK    2  A    between atoms: C_1  and  O_35
REMARK    3  A    between atoms: C_4  and  O_34
REMARK    4  A    between atoms: C_6  and  O_33
REMARK    5  A    between atoms: C_8  and  O_32
REMARK    6  A    between atoms: C_10  and  O_13
REMARK    7  A    between atoms: O_13  and  C_14
REMARK    8  A    between atoms: C_16  and  C_30
REMARK    9  A    between atoms: C_19  and  O_27
REMARK   10  A    between atoms: C_21  and  O_26
REMARK   11  A    between atoms: C_23  and  O_25
REMARK   12  A    between atoms: O_27  and  P_28
REMARK   13  A    between atoms: C_30  and  O_31
REMARK                            x       y       z     vdW  Elec       q    Type
REMARK                         _______ _______ _______ _____ _____    ______ ____
ROOT
ATOM      1  C   UNL     1      -3.622   3.267  -1.275  0.00  0.00    +0.183 C 
ATOM      2  C   UNL     1      -5.058   3.627  -0.884  0.00  0.00    +0.178 C 
ATOM      3  O   UNL     1      -5.663   2.515  -0.221  0.00  0.00    -0.340 OA
ATOM      4  C   UNL     1      -5.751   1.335  -1.022  0.00  0.00    +0.293 C 
ATOM      5  C   UNL     1      -4.343   0.883  -1.419  0.00  0.00    +0.202 C 
ATOM      6  C   UNL     1      -3.641   2.021  -2.166  0.00  0.00    +0.179 C 
ENDROOT
BRANCH   6   7
ATOM      7  O   UNL     1      -2.301   1.634  -2.476  0.00  0.00    -0.386 OA
ATOM      8  H   UNL     1      -2.236   0.815  -2.986  0.00  0.00    +0.210 HD
ENDBRANCH   6   7
BRANCH   5   9
ATOM      9  O   UNL     1      -3.600   0.551  -0.244  0.00  0.00    -0.384 OA
ATOM     10  H   UNL     1      -3.991  -0.161   0.281  0.00  0.00    +0.210 HD
ENDBRANCH   5   9
BRANCH   1  11
ATOM     11  O   UNL     1      -2.859   2.999  -0.097  0.00  0.00    -0.340 OA
BRANCH  11  16
ATOM     12  C   UNL     1      -0.294   1.986  -0.634  0.00  0.00    +0.178 C 
ATOM     13  C   UNL     1       0.274   1.838   0.780  0.00  0.00    +0.177 C 
ATOM     14  C   UNL     1      -0.777   2.297   1.796  0.00  0.00    +0.179 C 
ATOM     15  C   UNL     1      -1.181   3.740   1.479  0.00  0.00    +0.201 C 
ATOM     16  C   UNL     1      -1.693   3.815   0.038  0.00  0.00    +0.282 C 
ATOM     17  O   UNL     1      -0.678   3.345  -0.852  0.00  0.00    -0.341 OA
BRANCH  15  18
ATOM     18  O   UNL     1      -2.215   4.154   2.374  0.00  0.00    -0.384 OA
ATOM     19  H   UNL     1      -2.523   5.059   2.228  0.00  0.00    +0.210 HD
ENDBRANCH  15  18
BRANCH  14  20
ATOM     20  O   UNL     1      -1.925   1.451   1.712  0.00  0.00    -0.386 OA
ATOM     21  H   UNL     1      -2.632   1.685   2.329  0.00  0.00    +0.210 HD
ENDBRANCH  14  20
BRANCH  13  22
ATOM     22  O   UNL     1       1.447   2.643   0.910  0.00  0.00    -0.386 OA
ATOM     23  H   UNL     1       1.859   2.599   1.784  0.00  0.00    +0.210 HD
ENDBRANCH  13  22
BRANCH  12  24
ATOM     24  C   UNL     1       0.771   1.586  -1.656  0.00  0.00    +0.190 C 
BRANCH  24  25
ATOM     25  O   UNL     1       0.193   1.562  -2.962  0.00  0.00    -0.392 OA
ATOM     26  H   UNL     1       0.813   1.316  -3.663  0.00  0.00    +0.210 HD
ENDBRANCH  24  25
ENDBRANCH  12  24
ENDBRANCH  11  16
ENDBRANCH   1  11
BRANCH   4  27
ATOM     27  O   UNL     1      -6.392   0.299  -0.276  0.00  0.00    -0.251 OA
BRANCH  27  28
ATOM     28  P   UNL     1      -7.986   0.070  -0.284  0.00  0.00    +0.534 P 
ATOM     29  O   UNL     1      -8.454  -0.090  -1.679  0.00  0.00    -0.222 OA
ATOM     30  O   UNL     1      -8.342  -1.256   0.557  0.00  0.00    -0.114 OA
ATOM     31  O   UNL     1      -8.714   1.341   0.384  0.00  0.00    -0.114 OA
ENDBRANCH  27  28
ENDBRANCH   4  27
BRANCH   2  32
ATOM     32  C   UNL     1      -5.043   4.835   0.054  0.00  0.00    +0.190 C 
BRANCH  32  33
ATOM     33  O   UNL     1      -6.385   5.244   0.326  0.00  0.00    -0.392 OA
ATOM     34  H   UNL     1      -6.452   6.006   0.916  0.00  0.00    +0.210 HD
ENDBRANCH  32  33
ENDBRANCH   2  32
TORSDOF 13
