REMARK  Name = ZINC21877884
REMARK  13 active torsions:
REMARK  status: ('A' for Active; 'I' for Inactive)
REMARK    1  A    between atoms: C_1  and  C_2
REMARK    2  A    between atoms: C_2  and  C_3
REMARK    3  A    between atoms: C_3  and  C_4
REMARK    4  A    between atoms: C_4  and  N_5
REMARK    5  A    between atoms: C_10  and  C_24
REMARK    6  A    between atoms: C_14  and  C_15
REMARK    7  A    between atoms: C_14  and  C_16
REMARK    8  A    between atoms: N_18  and  C_19
REMARK    9  A    between atoms: N_26  and  C_27
REMARK   10  A    between atoms: C_30  and  O_35
REMARK   11  A    between atoms: C_32  and  O_33
REMARK   12  A    between atoms: O_33  and  C_34
REMARK   13  A    between atoms: O_35  and  C_36
REMARK                            x       y       z     vdW  Elec       q    Type
REMARK                         _______ _______ _______ _____ _____    ______ ____
ROOT
ATOM      1  N   UNL     1       2.376   1.463  -0.171  0.00  0.00    -0.281 N 
ATOM      2  C   UNL     1       1.231   2.156   0.043  0.00  0.00    +0.266 C 
ATOM      3  O   UNL     1       1.234   3.358   0.225  0.00  0.00    -0.268 OA
ATOM      4  C   UNL     1      -0.016   1.373   0.041  0.00  0.00    +0.124 A 
ATOM      5  C   UNL     1      -1.312   1.762   0.035  0.00  0.00    +0.067 A 
ATOM      6  C   UNL     1      -2.058   0.561   0.012  0.00  0.00    +0.148 A 
ATOM      7  N   UNL     1      -1.196  -0.443   0.009  0.00  0.00    -0.166 NA
ATOM      8  N   UNL     1       0.002  -0.005   0.035  0.00  0.00    -0.256 N 
ATOM      9  C   UNL     1       1.268  -0.749   0.067  0.00  0.00    +0.179 C 
ATOM     10  C   UNL     1       2.355   0.075  -0.620  0.00  0.00    +0.130 C 
ATOM     11  C   UNL     1       3.716  -0.560  -0.327  0.00  0.00    +0.044 C 
ENDROOT
BRANCH  10  12
ATOM     12  C   UNL     1       2.118   0.051  -2.108  0.00  0.00    +0.238 C 
ATOM     13  O   UNL     1       2.693  -0.762  -2.801  0.00  0.00    -0.273 OA
ATOM     14  N   UNL     1       1.266   0.932  -2.669  0.00  0.00    -0.311 N 
ATOM     15  H   UNL     1       0.744   1.669  -2.041  0.00  0.00    +0.149 HD
BRANCH  14  16
ATOM     16  C   UNL     1       1.035   0.908  -4.116  0.00  0.00    +0.073 C 
ATOM     17  C   UNL     1       2.078   1.792  -4.832  0.00  0.00    +0.022 C 
ATOM     18  C   UNL     1       1.286   2.453  -5.987  0.00  0.00    +0.002 C 
ATOM     19  C   UNL     1      -0.092   2.734  -5.340  0.00  0.00    +0.002 C 
ATOM     20  C   UNL     1      -0.345   1.508  -4.439  0.00  0.00    +0.022 C 
ENDBRANCH  14  16
ENDBRANCH  10  12
BRANCH   6  21
ATOM     21  C   UNL     1      -3.531   0.448  -0.005  0.00  0.00    +0.268 C 
ATOM     22  O   UNL     1      -4.218   1.451  -0.001  0.00  0.00    -0.268 OA
ATOM     23  N   UNL     1      -4.113  -0.767  -0.026  0.00  0.00    -0.277 N 
ATOM     24  H   UNL     1      -3.495  -1.672  -0.122  0.00  0.00    +0.155 HD
BRANCH  23  25
ATOM     25  C   UNL     1      -5.508  -0.878   0.074  0.00  0.00    +0.077 A 
ATOM     26  C   UNL     1      -6.241   0.125   0.691  0.00  0.00    +0.050 A 
ATOM     27  C   UNL     1      -7.616   0.018   0.785  0.00  0.00    +0.084 A 
ATOM     28  C   UNL     1      -8.264  -1.099   0.273  0.00  0.00    +0.142 A 
ATOM     29  C   UNL     1      -7.534  -2.106  -0.339  0.00  0.00    +0.094 A 
ATOM     30  C   UNL     1      -6.156  -1.999  -0.439  0.00  0.00    +0.145 A 
ATOM     31 CL   UNL     1      -8.534   1.277   1.551  0.00  0.00    -0.080 Cl
BRANCH  30  32
ATOM     32  O   UNL     1      -5.439  -2.986  -1.038  0.00  0.00    -0.493 OA
ATOM     33  C   UNL     1      -6.170  -4.106  -1.542  0.00  0.00    +0.277 C 
ENDBRANCH  30  32
BRANCH  28  34
ATOM     34  O   UNL     1      -9.616  -1.204   0.372  0.00  0.00    -0.494 OA
ATOM     35  C   UNL     1     -10.217  -2.379  -0.177  0.00  0.00    +0.277 C 
ENDBRANCH  28  34
ENDBRANCH  23  25
ENDBRANCH   6  21
BRANCH   1  36
ATOM     36  C   UNL     1       3.664   2.123   0.055  0.00  0.00    +0.109 C 
BRANCH  36  37
ATOM     37  C   UNL     1       4.125   2.797  -1.239  0.00  0.00    +0.019 C 
BRANCH  37  39
ATOM     38  C   UNL     1       5.932   4.160  -2.297  0.00  0.00    +0.004 C 
ATOM     39  C   UNL     1       5.471   3.486  -1.003  0.00  0.00    -0.002 C 
ENDBRANCH  37  39
ENDBRANCH  36  37
ENDBRANCH   1  36
TORSDOF 9
