REMARK  Name = ZINC08568289
REMARK  8 active torsions:
REMARK  status: ('A' for Active; 'I' for Inactive)
REMARK    1  A    between atoms: C_1  and  C_2
REMARK    2  A    between atoms: C_2  and  C_3
REMARK    3  A    between atoms: C_3  and  C_4
REMARK    4  A    between atoms: C_11  and  N_29
REMARK    5  A    between atoms: C_12  and  C_27
REMARK    6  A    between atoms: C_13  and  C_15
REMARK    7  A    between atoms: C_18  and  O_25
REMARK    8  A    between atoms: O_25  and  C_26
REMARK                            x       y       z     vdW  Elec       q    Type
REMARK                         _______ _______ _______ _____ _____    ______ ____
ROOT
ATOM      1  C   UNL     1       0.885  -2.449   1.373  0.00  0.00    +0.071 A 
ATOM      2  C   UNL     1      -0.232  -3.085   1.897  0.00  0.00    +0.049 A 
ATOM      3  C   UNL     1      -0.059  -4.433   1.751  0.00  0.00    +0.222 A 
ATOM      4  N   UNL     1       1.129  -4.628   1.156  0.00  0.00    -0.246 N 
ATOM      5  H   UNL     1       1.518  -5.486   0.926  0.00  0.00    +0.192 HD
ATOM      6  N   UNL     1       1.704  -3.369   0.921  0.00  0.00    -0.176 NA
ATOM      7  O   UNL     1      -0.981  -5.338   2.164  0.00  0.00    -0.423 OA
ATOM      8  C   UNL     1      -2.209  -4.879   2.480  0.00  0.00    +0.200 C 
ATOM      9  C   UNL     1      -2.499  -3.572   2.662  0.00  0.00    +0.098 C 
ATOM     10  C   UNL     1      -1.460  -2.486   2.532  0.00  0.00    +0.102 C 
ENDROOT
BRANCH  10  11
ATOM     11  C   UNL     1      -1.115  -1.946   3.897  0.00  0.00    -0.027 A 
ATOM     12  C   UNL     1      -0.523  -2.752   4.821  0.00  0.00    +0.009 A 
ATOM     13  C   UNL     1      -0.197  -2.274   6.086  0.00  0.00    +0.046 A 
ATOM     14  C   UNL     1      -0.461  -0.980   6.438  0.00  0.00    +0.128 A 
ATOM     15  C   UNL     1      -1.073  -0.118   5.506  0.00  0.00    +0.024 A 
ATOM     16  C   UNL     1      -1.399  -0.608   4.217  0.00  0.00    -0.010 A 
ATOM     17  C   UNL     1      -2.005   0.253   3.286  0.00  0.00    +0.009 A 
ATOM     18  C   UNL     1      -2.265   1.543   3.632  0.00  0.00    +0.001 A 
ATOM     19  C   UNL     1      -1.939   2.026   4.897  0.00  0.00    +0.001 A 
ATOM     20  C   UNL     1      -1.362   1.218   5.829  0.00  0.00    +0.012 A 
BRANCH  14  21
ATOM     21  O   UNL     1      -0.137  -0.529   7.677  0.00  0.00    -0.495 OA
ATOM     22  C   UNL     1       0.480  -1.461   8.567  0.00  0.00    +0.277 C 
ENDBRANCH  14  21
ENDBRANCH  10  11
BRANCH   8  23
ATOM     23  N   UNL     1      -3.223  -5.793   2.624  0.00  0.00    -0.328 N 
ATOM     24  H   UNL     1      -3.046  -6.738   2.500  0.00  0.00    +0.145 HD
ATOM     25  H   UNL     1      -4.117  -5.493   2.852  0.00  0.00    +0.145 HD
ENDBRANCH   8  23
BRANCH   9  26
ATOM     26  C   UNL     1      -3.844  -3.204   2.991  0.00  0.00    +0.101 C 
ATOM     27  N   UNL     1      -4.910  -2.912   3.252  0.00  0.00    -0.191 NA
ENDBRANCH   9  26
BRANCH   1  28
ATOM     28  C   UNL     1       1.115  -0.960   1.325  0.00  0.00    +0.057 C 
BRANCH  28  30
ATOM     29  C   UNL     1       0.781   1.113  -0.028  0.00  0.00    +0.004 C 
ATOM     30  C   UNL     1       0.548  -0.398   0.020  0.00  0.00    +0.003 C 
ENDBRANCH  28  30
ENDBRANCH   1  28
TORSDOF 6
