REMARK  Name = ZINC39654263
REMARK  7 active torsions:
REMARK  status: ('A' for Active; 'I' for Inactive)
REMARK    1  A    between atoms: C_1  and  C_2
REMARK    2  A    between atoms: C_2  and  C_3
REMARK    3  A    between atoms: C_6  and  C_9
REMARK    4  A    between atoms: C_9  and  C_10
REMARK    5  A    between atoms: C_10  and  N_11
REMARK    6  A    between atoms: C_12  and  C_14
REMARK    7  A    between atoms: C_25  and  C_27
REMARK                            x       y       z     vdW  Elec       q    Type
REMARK                         _______ _______ _______ _____ _____    ______ ____
ROOT
ATOM      1  C   UNL     1     -10.222  -1.006   0.084  0.00  0.00    +0.100 C 
ATOM      2  C   UNL     1     -10.456  -1.913   1.313  0.00  0.00    +0.121 C 
ATOM      3  N   UNL     1     -11.039  -1.013   2.337  0.00  0.00    -0.296 N 
ATOM      4  C   UNL     1     -11.959  -0.135   1.574  0.00  0.00    +0.115 C 
ATOM      5  C   UNL     1     -11.213   0.157   0.257  0.00  0.00    -0.004 C 
ATOM      6  C   UNL     1     -10.460   1.481   0.360  0.00  0.00    -0.010 C 
ATOM      7  C   UNL     1     -11.468   2.628   0.475  0.00  0.00    -0.082 C 
ATOM      8  N   UNL     1     -12.345   2.631  -0.703  0.00  0.00    +0.379 N 
ATOM      9  C   UNL     1     -13.133   1.393  -0.744  0.00  0.00    -0.082 C 
ATOM     10  C   UNL     1     -12.195   0.194  -0.909  0.00  0.00    -0.010 C 
ATOM     11  C   UNL     1     -10.789  -0.996   3.661  0.00  0.00    +0.249 C 
ATOM     12  O   UNL     1      -9.930  -1.720   4.127  0.00  0.00    -0.270 OA
ATOM     13  H   UNL     1     -12.967   3.423  -0.654  0.00  0.00    -0.086 HD
ATOM     14  H   UNL     1     -11.783   2.698  -1.538  0.00  0.00    -0.086 HD
ENDROOT
BRANCH  11  15
ATOM     15  C   UNL     1     -11.557  -0.099   4.545  0.00  0.00    +0.072 A 
ATOM     16  C   UNL     1     -12.904   0.162   4.281  0.00  0.00    +0.019 A 
ATOM     17  C   UNL     1     -13.617   1.000   5.110  0.00  0.00    +0.039 A 
ATOM     18  C   UNL     1     -13.001   1.586   6.207  0.00  0.00    +0.126 A 
ATOM     19  C   UNL     1     -11.666   1.332   6.477  0.00  0.00    +0.077 A 
ATOM     20  C   UNL     1     -10.942   0.488   5.656  0.00  0.00    +0.138 A 
ATOM     21  F   UNL     1      -9.641   0.236   5.922  0.00  0.00    -0.205 F 
ATOM     22  F   UNL     1     -13.706   2.407   7.015  0.00  0.00    -0.205 F 
ENDBRANCH  11  15
BRANCH   1  24
ATOM     23  N   UNL     1      -8.193  -0.231  -1.099  0.00  0.00    -0.315 N 
ATOM     24  C   UNL     1      -8.806  -0.492   0.072  0.00  0.00    +0.218 C 
ATOM     25  O   UNL     1      -8.217  -0.314   1.117  0.00  0.00    -0.275 OA
ATOM     26  H   UNL     1      -8.664  -0.373  -1.935  0.00  0.00    +0.149 HD
BRANCH  23  27
ATOM     27  C   UNL     1      -6.816   0.269  -1.111  0.00  0.00    +0.109 C 
BRANCH  27  28
ATOM     28  C   UNL     1      -6.362   0.482  -2.556  0.00  0.00    +0.054 C 
BRANCH  28  32
ATOM     29  C   UNL     1      -2.347   1.938  -2.591  0.00  0.00    -0.048 A 
ATOM     30  C   UNL     1      -2.589   0.578  -2.622  0.00  0.00    +0.004 A 
ATOM     31  C   UNL     1      -3.888   0.106  -2.611  0.00  0.00    +0.004 A 
ATOM     32  C   UNL     1      -4.946   0.996  -2.568  0.00  0.00    -0.046 A 
ATOM     33  C   UNL     1      -4.704   2.356  -2.536  0.00  0.00    +0.004 A 
ATOM     34  C   UNL     1      -3.404   2.827  -2.543  0.00  0.00    +0.004 A 
BRANCH  29  36
ATOM     35  C   UNL     1      -0.422   2.582  -1.166  0.00  0.00    +0.009 C 
ATOM     36  C   UNL     1      -0.930   2.452  -2.604  0.00  0.00    +0.032 C 
ENDBRANCH  29  36
ENDBRANCH  28  32
ENDBRANCH  27  28
ENDBRANCH  23  27
ENDBRANCH   1  24
TORSDOF 6
