REMARK  Name = ZINC49289547
REMARK  12 active torsions:
REMARK  status: ('A' for Active; 'I' for Inactive)
REMARK    1  A    between atoms: C_1  and  C_2
REMARK    2  A    between atoms: C_2  and  C_3
REMARK    3  A    between atoms: C_3  and  C_4
REMARK    4  A    between atoms: C_4  and  C_6
REMARK    5  A    between atoms: C_4  and  N_7
REMARK    6  A    between atoms: C_8  and  C_10
REMARK    7  A    between atoms: C_10  and  O_11
REMARK    8  A    between atoms: O_11  and  C_12
REMARK    9  A    between atoms: C_13  and  C_19
REMARK   10  A    between atoms: C_19  and  C_20
REMARK   11  A    between atoms: C_20  and  C_22
REMARK   12  A    between atoms: C_20  and  N_23
REMARK                            x       y       z     vdW  Elec       q    Type
REMARK                         _______ _______ _______ _____ _____    ______ ____
ROOT
ATOM      1  C   UNL     1       1.734  -6.077   3.658  0.00  0.00    +0.138 A 
ATOM      2  C   UNL     1       3.103  -5.861   3.600  0.00  0.00    -0.006 A 
ATOM      3  C   UNL     1       3.946  -6.544   4.455  0.00  0.00    +0.007 A 
ATOM      4  C   UNL     1       3.426  -7.443   5.369  0.00  0.00    +0.002 A 
ATOM      5  C   UNL     1       2.063  -7.660   5.429  0.00  0.00    +0.019 A 
ATOM      6  C   UNL     1       1.214  -6.975   4.580  0.00  0.00    +0.060 A 
ATOM      7 BR   UNL     1      -0.652  -7.267   4.668  0.00  0.00    -0.047 Br
ENDROOT
BRANCH   1   8
ATOM      8  O   UNL     1       0.903  -5.406   2.818  0.00  0.00    -0.481 OA
BRANCH   8   9
ATOM      9  C   UNL     1       0.353  -4.176   3.294  0.00  0.00    +0.324 C 
BRANCH   9  11
ATOM     10  N   UNL     1      -1.132  -2.388   2.447  0.00  0.00    -0.310 N 
ATOM     11  C   UNL     1      -0.506  -3.560   2.220  0.00  0.00    +0.251 C 
ATOM     12  O   UNL     1      -0.635  -4.120   1.152  0.00  0.00    -0.272 OA
ATOM     13  H   UNL     1      -1.028  -1.941   3.301  0.00  0.00    +0.149 HD
BRANCH  10  14
ATOM     14  C   UNL     1      -1.967  -1.790   1.403  0.00  0.00    +0.070 C 
ATOM     15  C   UNL     1      -3.375  -2.386   1.472  0.00  0.00    +0.028 C 
BRANCH  14  16
ATOM     16  C   UNL     1      -2.043  -0.277   1.615  0.00  0.00    +0.022 C 
BRANCH  16  18
ATOM     17  C   UNL     1      -0.731   1.849   1.635  0.00  0.00    +0.004 C 
ATOM     18  C   UNL     1      -0.654   0.336   1.423  0.00  0.00    -0.002 C 
ENDBRANCH  16  18
ENDBRANCH  14  16
ENDBRANCH  10  14
ENDBRANCH   9  11
ENDBRANCH   8   9
ENDBRANCH   1   8
BRANCH   2  19
ATOM     19  C   UNL     1       3.671  -4.882   2.605  0.00  0.00    +0.022 C 
BRANCH  19  20
ATOM     20  C   UNL     1       3.934  -5.598   1.279  0.00  0.00    -0.074 C 
ATOM     21  C   UNL     1       4.639  -4.642   0.314  0.00  0.00    -0.014 C 
BRANCH  20  22
ATOM     22  N   UNL     1       2.658  -6.031   0.694  0.00  0.00    +0.380 N 
ATOM     23  H   UNL     1       2.073  -5.226   0.531  0.00  0.00    -0.090 HD
ATOM     24  H   UNL     1       2.832  -6.503  -0.180  0.00  0.00    -0.090 HD
ATOM     25  H   UNL     1       2.193  -6.662   1.330  0.00  0.00    -0.090 HD
ENDBRANCH  20  22
ENDBRANCH  19  20
ENDBRANCH   2  19
TORSDOF 9
