REMARK  Name = ZINC50163590
REMARK  8 active torsions:
REMARK  status: ('A' for Active; 'I' for Inactive)
REMARK    1  A    between atoms: C_1  and  C_2
REMARK    2  A    between atoms: C_2  and  C_4
REMARK    3  A    between atoms: C_2  and  N_11
REMARK    4  A    between atoms: N_11  and  S_12
REMARK    5  A    between atoms: S_12  and  C_15
REMARK    6  A    between atoms: C_18  and  C_21
REMARK    7  A    between atoms: C_21  and  C_22
REMARK    8  A    between atoms: C_21  and  C_23
REMARK                            x       y       z     vdW  Elec       q    Type
REMARK                         _______ _______ _______ _____ _____    ______ ____
ROOT
ATOM      1  N   UNL     1      -1.372  -0.511   0.012  0.00  0.00    -0.187 NA
ATOM      2  H   UNL     1      -1.861  -0.606  -0.820  0.00  0.00    +0.148 HD
ENDROOT
BRANCH   1   3
ATOM      3  S   UNL     1      -2.092  -0.923   1.446  0.00  0.00    +0.059 S 
ATOM      4  O   UNL     1      -3.411  -1.347   1.131  0.00  0.00    -0.153 OA
ATOM      5  O   UNL     1      -1.170  -1.752   2.140  0.00  0.00    -0.153 OA
BRANCH   3   6
ATOM      6  C   UNL     1      -2.251   0.555   2.392  0.00  0.00    +0.105 A 
ATOM      7  C   UNL     1      -1.234   0.943   3.244  0.00  0.00    +0.029 A 
ATOM      8  C   UNL     1      -1.359   2.103   3.986  0.00  0.00    +0.006 A 
ATOM      9  C   UNL     1      -2.501   2.874   3.877  0.00  0.00    -0.045 A 
ATOM     10  C   UNL     1      -3.517   2.487   3.024  0.00  0.00    +0.006 A 
ATOM     11  C   UNL     1      -3.391   1.329   2.278  0.00  0.00    +0.029 A 
BRANCH   9  12
ATOM     12  C   UNL     1      -2.637   4.138   4.686  0.00  0.00    +0.013 C 
ATOM     13  C   UNL     1      -2.804   5.332   3.745  0.00  0.00    +0.012 C 
ATOM     14  C   UNL     1      -3.862   4.030   5.596  0.00  0.00    +0.012 C 
ENDBRANCH   9  12
ENDBRANCH   3   6
ENDBRANCH   1   3
BRANCH   1  16
ATOM     15  C   UNL     1      -0.019   1.526   0.010  0.00  0.00    +0.026 C 
ATOM     16  C   UNL     1       0.002  -0.004   0.002  0.00  0.00    +0.075 C 
BRANCH  16  17
ATOM     17  C   UNL     1       0.718  -0.497  -1.257  0.00  0.00    -0.010 C 
ATOM     18  C   UNL     1       0.741  -2.029  -1.265  0.00  0.00    +0.001 C 
ATOM     19  C   UNL     1       1.528  -2.511  -2.487  0.00  0.00    -0.019 C 
ATOM     20  C   UNL     1       2.934  -1.910  -2.452  0.00  0.00    -0.083 C 
ATOM     21  N   UNL     1       2.845  -0.445  -2.473  0.00  0.00    +0.379 N 
ATOM     22  C   UNL     1       2.155   0.030  -1.267  0.00  0.00    -0.078 C 
ATOM     23  H   UNL     1       3.774  -0.053  -2.503  0.00  0.00    -0.086 HD
ATOM     24  H   UNL     1       2.332  -0.152  -3.290  0.00  0.00    -0.086 HD
ENDBRANCH  16  17
ENDBRANCH   1  16
TORSDOF 5
