REMARK  Name = ZINC19617151
REMARK  5 active torsions:
REMARK  status: ('A' for Active; 'I' for Inactive)
REMARK    1  A    between atoms: C_6  and  C_7
REMARK    2  A    between atoms: C_10  and  C_12
REMARK    3  A    between atoms: N_14  and  N_15
REMARK    4  A    between atoms: C_16  and  C_18
REMARK    5  A    between atoms: C_21  and  C_24
REMARK                            x       y       z     vdW  Elec       q    Type
REMARK                         _______ _______ _______ _____ _____    ______ ____
ROOT
ATOM      1  C   UNL     1      -5.231  -1.984   0.039  0.00  0.00    +0.267 C 
ATOM      2  O   UNL     1      -5.637  -3.132   0.040  0.00  0.00    -0.268 OA
ATOM      3  N   UNL     1      -6.106  -0.960   0.047  0.00  0.00    -0.230 N 
ATOM      4  H   UNL     1      -5.783  -0.045   0.045  0.00  0.00    +0.173 HD
ENDROOT
BRANCH   1   8
ATOM      5  C   UNL     1      -1.266  -0.763   0.011  0.00  0.00    +0.020 A 
ATOM      6  C   UNL     1      -1.459  -2.135   0.011  0.00  0.00    +0.017 A 
ATOM      7  C   UNL     1      -2.737  -2.619   0.020  0.00  0.00    +0.021 A 
ATOM      8  C   UNL     1      -3.791  -1.717   0.029  0.00  0.00    +0.076 A 
ATOM      9  S   UNL     1      -2.941  -0.147   0.031  0.00  0.00    -0.084 S 
BRANCH   5  15
ATOM     10  C   UNL     1      -0.017   1.392   0.010  0.00  0.00    +0.012 A 
ATOM     11  C   UNL     1       1.169   2.095   0.002  0.00  0.00    +0.039 A 
ATOM     12  C   UNL     1       2.379   1.419  -0.013  0.00  0.00    +0.123 A 
ATOM     13  C   UNL     1       2.404   0.033  -0.021  0.00  0.00    +0.039 A 
ATOM     14  C   UNL     1       1.223  -0.680  -0.014  0.00  0.00    +0.012 A 
ATOM     15  C   UNL     1       0.002  -0.004   0.002  0.00  0.00    -0.011 A 
ATOM     16  F   UNL     1       3.538   2.112  -0.021  0.00  0.00    -0.205 F 
ENDBRANCH   5  15
ENDBRANCH   1   8
BRANCH   3  17
ATOM     17  N   UNL     1      -7.484  -1.215   0.056  0.00  0.00    -0.230 N 
ATOM     18  C   UNL     1      -8.359  -0.191   0.064  0.00  0.00    +0.260 C 
ATOM     19  O   UNL     1      -7.954   0.955   0.062  0.00  0.00    -0.269 OA
ATOM     20  H   UNL     1      -7.807  -2.130   0.057  0.00  0.00    +0.173 HD
BRANCH  18  21
ATOM     21  C   UNL     1      -9.815  -0.461   0.074  0.00  0.00    +0.038 A 
ATOM     22  C   UNL     1     -10.280  -1.776   0.081  0.00  0.00    +0.014 A 
ATOM     23  C   UNL     1     -11.635  -2.028   0.091  0.00  0.00    +0.014 A 
ATOM     24  C   UNL     1     -12.542  -0.967   0.093  0.00  0.00    +0.037 A 
ATOM     25  C   UNL     1     -12.076   0.349   0.087  0.00  0.00    +0.014 A 
ATOM     26  C   UNL     1     -10.721   0.600   0.082  0.00  0.00    +0.014 A 
BRANCH  24  27
ATOM     27  C   UNL     1     -13.997  -1.237   0.102  0.00  0.00    +0.242 C 
ATOM     28  O   UNL     1     -14.403  -2.383   0.108  0.00  0.00    -0.270 OA
ATOM     29  N   UNL     1     -14.873  -0.212   0.105  0.00  0.00    -0.325 N 
ATOM     30  H   UNL     1     -14.549   0.702   0.101  0.00  0.00    +0.145 HD
ATOM     31  H   UNL     1     -15.826  -0.389   0.111  0.00  0.00    +0.145 HD
ENDBRANCH  24  27
ENDBRANCH  18  21
ENDBRANCH   3  17
TORSDOF 5
