REMARK  Name = ZINC36500758
REMARK  13 active torsions:
REMARK  status: ('A' for Active; 'I' for Inactive)
REMARK    1  A    between atoms: C_1  and  C_2
REMARK    2  A    between atoms: C_2  and  C_3
REMARK    3  A    between atoms: C_2  and  C_4
REMARK    4  A    between atoms: C_2  and  N_5
REMARK    5  A    between atoms: C_6  and  C_8
REMARK    6  A    between atoms: C_8  and  C_10
REMARK    7  A    between atoms: C_8  and  N_17
REMARK    8  A    between atoms: C_15  and  O_16
REMARK    9  A    between atoms: N_17  and  C_18
REMARK   10  A    between atoms: C_18  and  C_19
REMARK   11  A    between atoms: C_24  and  C_26
REMARK   12  A    between atoms: C_30  and  O_33
REMARK   13  A    between atoms: C_31  and  O_32
REMARK                            x       y       z     vdW  Elec       q    Type
REMARK                         _______ _______ _______ _____ _____    ______ ____
ROOT
ATOM      1  N   UNL     1       3.365  -0.602  -1.852  0.00  0.00    -0.274 N 
ATOM      2  C   UNL     1       4.407  -1.225  -1.267  0.00  0.00    +0.252 C 
ATOM      3  O   UNL     1       4.812  -2.281  -1.712  0.00  0.00    -0.270 OA
ENDROOT
BRANCH   2   4
ATOM      4  C   UNL     1       5.055  -0.625  -0.085  0.00  0.00    +0.082 A 
ATOM      5  C   UNL     1       5.472   0.709  -0.113  0.00  0.00    +0.017 A 
ATOM      6  C   UNL     1       6.077   1.265   0.992  0.00  0.00    +0.005 A 
ATOM      7  C   UNL     1       6.275   0.509   2.136  0.00  0.00    +0.049 A 
ATOM      8  C   UNL     1       5.867  -0.813   2.180  0.00  0.00    +0.159 A 
ATOM      9  C   UNL     1       5.250  -1.388   1.073  0.00  0.00    +0.171 A 
BRANCH   9  10
ATOM     10  O   UNL     1       4.844  -2.682   1.114  0.00  0.00    -0.503 OA
ATOM     11  H   UNL     1       5.515  -3.315   0.823  0.00  0.00    +0.292 HD
ENDBRANCH   9  10
BRANCH   8  12
ATOM     12  O   UNL     1       6.066  -1.549   3.307  0.00  0.00    -0.503 OA
ATOM     13  H   UNL     1       5.333  -1.509   3.937  0.00  0.00    +0.292 HD
ENDBRANCH   8  12
ENDBRANCH   2   4
BRANCH   1  14
ATOM     14  C   UNL     1       2.628  -1.264  -2.932  0.00  0.00    +0.196 C 
BRANCH  14  15
ATOM     15  C   UNL     1       2.637  -0.387  -4.157  0.00  0.00    +0.023 A 
ATOM     16  C   UNL     1       1.486   0.270  -4.546  0.00  0.00    +0.009 A 
ATOM     17  C   UNL     1       1.494   1.075  -5.670  0.00  0.00    +0.001 A 
ATOM     18  C   UNL     1       2.653   1.224  -6.409  0.00  0.00    +0.004 A 
ATOM     19  C   UNL     1       3.807   0.569  -6.024  0.00  0.00    +0.046 A 
ATOM     20  C   UNL     1       3.804  -0.234  -4.893  0.00  0.00    +0.122 A 
BRANCH  20  21
ATOM     21  O   UNL     1       4.939  -0.875  -4.509  0.00  0.00    -0.506 OA
ATOM     22  H   UNL     1       5.083  -1.721  -4.955  0.00  0.00    +0.292 HD
ENDBRANCH  20  21
ENDBRANCH  14  15
BRANCH  14  24
ATOM     23  N   UNL     1       0.376  -2.228  -3.273  0.00  0.00    -0.309 N 
ATOM     24  C   UNL     1       1.206  -1.504  -2.497  0.00  0.00    +0.239 C 
ATOM     25  O   UNL     1       0.807  -1.044  -1.447  0.00  0.00    -0.273 OA
ATOM     26  H   UNL     1       0.672  -2.534  -4.145  0.00  0.00    +0.149 HD
BRANCH  23  28
ATOM     27  C   UNL     1      -1.747  -1.260  -2.539  0.00  0.00    +0.031 C 
ATOM     28  C   UNL     1      -0.972  -2.553  -2.801  0.00  0.00    +0.026 C 
ATOM     29  C   UNL     1      -0.878  -3.362  -1.506  0.00  0.00    +0.031 C 
ATOM     30  C   UNL     1      -1.700  -3.377  -3.865  0.00  0.00    +0.031 C 
ENDBRANCH  23  28
ENDBRANCH  14  24
ENDBRANCH   1  14
BRANCH   1  31
ATOM     31  C   UNL     1       2.968   0.737  -1.409  0.00  0.00    +0.183 C 
BRANCH  31  32
ATOM     32  C   UNL     1       3.464   1.761  -2.397  0.00  0.00    +0.122 A 
ATOM     33  C   UNL     1       2.734   2.333  -3.371  0.00  0.00    +0.046 A 
ATOM     34  C   UNL     1       3.591   3.225  -4.055  0.00  0.00    +0.041 A 
ATOM     35  C   UNL     1       4.794   3.145  -3.458  0.00  0.00    +0.195 A 
ATOM     36  O   UNL     1       4.710   2.261  -2.451  0.00  0.00    -0.466 OA
ENDBRANCH  31  32
ENDBRANCH   1  31
TORSDOF 10
