REMARK  Name = ZINC35032903
REMARK  12 active torsions:
REMARK  status: ('A' for Active; 'I' for Inactive)
REMARK    1  A    between atoms: C_1  and  C_2
REMARK    2  A    between atoms: C_2  and  N_3
REMARK    3  A    between atoms: C_13  and  C_14
REMARK    4  A    between atoms: C_14  and  C_16
REMARK    5  A    between atoms: C_14  and  N_17
REMARK    6  A    between atoms: N_17  and  C_18
REMARK    7  A    between atoms: N_17  and  S_23
REMARK    8  A    between atoms: C_18  and  C_19
REMARK    9  A    between atoms: C_19  and  N_20
REMARK   10  A    between atoms: N_20  and  C_21
REMARK   11  A    between atoms: N_20  and  C_22
REMARK   12  A    between atoms: S_23  and  C_26
REMARK                            x       y       z     vdW  Elec       q    Type
REMARK                         _______ _______ _______ _____ _____    ______ ____
ROOT
ATOM      1  N   UNL     1       3.936  -0.798  -0.015  0.00  0.00    -0.168 NA
ENDROOT
BRANCH   1   2
ATOM      2  S   UNL     1       5.154   0.165   0.560  0.00  0.00    +0.061 S 
ATOM      3  O   UNL     1       6.332  -0.207  -0.141  0.00  0.00    -0.153 OA
ATOM      4  O   UNL     1       4.654   1.496   0.559  0.00  0.00    -0.153 OA
BRANCH   2   5
ATOM      5  C   UNL     1       5.412  -0.274   2.247  0.00  0.00    +0.106 A 
ATOM      6  C   UNL     1       4.703   0.369   3.245  0.00  0.00    +0.029 A 
ATOM      7  C   UNL     1       4.906   0.024   4.568  0.00  0.00    +0.017 A 
ATOM      8  C   UNL     1       5.818  -0.963   4.894  0.00  0.00    +0.018 A 
ATOM      9  C   UNL     1       6.527  -1.606   3.895  0.00  0.00    +0.017 A 
ATOM     10  C   UNL     1       6.320  -1.264   2.572  0.00  0.00    +0.029 A 
ATOM     11 BR   UNL     1       6.096  -1.434   6.704  0.00  0.00    -0.050 Br
ENDBRANCH   2   5
ENDBRANCH   1   2
BRANCH   1  12
ATOM     12  C   UNL     1       2.556  -0.306  -0.025  0.00  0.00    +0.143 C 
ATOM     13  C   UNL     1       1.716  -1.122   0.961  0.00  0.00    +0.034 C 
BRANCH  12  24
ATOM     14  N   UNL     1       2.340   0.462  -2.354  0.00  0.00    -0.295 N 
ATOM     15  C   UNL     1       1.857   0.374  -3.615  0.00  0.00    +0.262 A 
ATOM     16  O   UNL     1       2.175   1.180  -4.471  0.00  0.00    -0.267 OA
ATOM     17  C   UNL     1       0.935  -0.732  -3.912  0.00  0.00    +0.065 A 
ATOM     18  C   UNL     1       0.383  -0.911  -5.178  0.00  0.00    +0.015 A 
ATOM     19  C   UNL     1      -0.476  -1.966  -5.401  0.00  0.00    +0.001 A 
ATOM     20  C   UNL     1      -0.793  -2.847  -4.375  0.00  0.00    +0.002 A 
ATOM     21  C   UNL     1      -0.258  -2.687  -3.117  0.00  0.00    +0.028 A 
ATOM     22  C   UNL     1       0.615  -1.626  -2.866  0.00  0.00    +0.078 A 
ATOM     23  N   UNL     1       1.166  -1.432  -1.642  0.00  0.00    -0.232 NA
ATOM     24  C   UNL     1       1.982  -0.449  -1.411  0.00  0.00    +0.132 A 
BRANCH  14  26
ATOM     25  C   UNL     1       4.686   1.154  -2.409  0.00  0.00    +0.027 C 
ATOM     26  C   UNL     1       3.263   1.544  -2.003  0.00  0.00    +0.123 C 
ENDBRANCH  14  26
ENDBRANCH  12  24
ENDBRANCH   1  12
BRANCH   1  27
ATOM     27  C   UNL     1       4.238  -2.142  -0.514  0.00  0.00    +0.092 C 
BRANCH  27  28
ATOM     28  C   UNL     1       4.453  -2.087  -2.027  0.00  0.00    -0.062 C 
BRANCH  28  29
ATOM     29  N   UNL     1       4.638  -3.450  -2.545  0.00  0.00    +0.377 N 
ATOM     30  C   UNL     1       3.400  -4.218  -2.356  0.00  0.00    -0.097 C 
ATOM     31  C   UNL     1       4.963  -3.390  -3.976  0.00  0.00    -0.097 C 
ATOM     32  H   UNL     1       5.392  -3.899  -2.047  0.00  0.00    -0.083 HD
ENDBRANCH  28  29
ENDBRANCH  27  28
ENDBRANCH   1  27
TORSDOF 8
