REMARK  Name = ZINC19771406
REMARK  8 active torsions:
REMARK  status: ('A' for Active; 'I' for Inactive)
REMARK    1  A    between atoms: C_1  and  C_2
REMARK    2  A    between atoms: C_7  and  O_8
REMARK    3  A    between atoms: O_8  and  C_9
REMARK    4  A    between atoms: C_9  and  C_10
REMARK    5  A    between atoms: C_22  and  C_28
REMARK    6  A    between atoms: C_22  and  C_29
REMARK    7  A    between atoms: C_24  and  C_26
REMARK    8  A    between atoms: C_24  and  C_27
REMARK                            x       y       z     vdW  Elec       q    Type
REMARK                         _______ _______ _______ _____ _____    ______ ____
ROOT
ATOM      1  C   UNL     1       0.046   0.131   4.829  0.00  0.00    +0.189 A 
ATOM      2  N   UNL     1      -1.114   0.554   5.419  0.00  0.00    -0.207 NA
ATOM      3  C   UNL     1      -0.682   1.428   6.389  0.00  0.00    +0.168 A 
ATOM      4  C   UNL     1      -1.452   2.225   7.337  0.00  0.00    +0.055 A 
ATOM      5  C   UNL     1      -2.885   2.344   7.509  0.00  0.00    -0.021 A 
ATOM      6  C   UNL     1      -3.366   3.091   8.502  0.00  0.00    +0.015 A 
ATOM      7  S   UNL     1      -1.855   3.782   9.248  0.00  0.00    -0.071 S 
ATOM      8  C   UNL     1      -0.715   2.986   8.206  0.00  0.00    +0.114 A 
ATOM      9  N   UNL     1       0.665   2.962   8.154  0.00  0.00    -0.228 NA
ATOM     10  C   UNL     1       1.232   2.282   7.227  0.00  0.00    +0.226 A 
ATOM     11  N   UNL     1       0.661   1.531   6.380  0.00  0.00    -0.201 N 
ATOM     12  N   UNL     1       1.090   0.700   5.341  0.00  0.00    -0.145 NA
ATOM     13  C   UNL     1      -4.767   3.372   8.898  0.00  0.00    +0.046 C 
ATOM     14  N   UNL     1      -5.668   2.596   8.085  0.00  0.00    -0.301 NA
ATOM     15  C   UNL     1      -5.230   1.343   7.568  0.00  0.00    +0.018 C 
ATOM     16  C   UNL     1      -3.937   1.527   6.738  0.00  0.00    +0.058 C 
ATOM     17  C   UNL     1      -6.318   0.674   6.619  0.00  0.00    +0.028 C 
ATOM     18  C   UNL     1      -4.890   0.284   8.691  0.00  0.00    +0.028 C 
ATOM     19  C   UNL     1      -5.066   4.897   8.546  0.00  0.00    +0.033 C 
ATOM     20  C   UNL     1      -5.012   3.148  10.338  0.00  0.00    +0.033 C 
ATOM     21  H   UNL     1      -6.569   2.353   8.667  0.00  0.00    +0.123 HD
ENDROOT
BRANCH   1  22
ATOM     22  C   UNL     1       0.047  -0.820   3.574  0.00  0.00    +0.306 C 
BRANCH  22  23
ATOM     23  O   UNL     1       0.025  -0.033   2.381  0.00  0.00    -0.484 OA
BRANCH  23  30
ATOM     24  C   UNL     1      -0.018   1.503   0.010  0.00  0.00    +0.047 C 
ATOM     25  C   UNL     1       0.002  -0.004   0.002  0.00  0.00    -0.009 A 
ATOM     26  C   UNL     1      -0.006  -0.689  -1.198  0.00  0.00    +0.007 A 
ATOM     27  C   UNL     1       0.018  -2.071  -1.206  0.00  0.00    +0.000 A 
ATOM     28  C   UNL     1       0.039  -2.772  -0.014  0.00  0.00    +0.004 A 
ATOM     29  C   UNL     1       0.041  -2.092   1.188  0.00  0.00    +0.046 A 
ATOM     30  C   UNL     1       0.023  -0.705   1.199  0.00  0.00    +0.124 A 
ENDBRANCH  23  30
ENDBRANCH  22  23
ENDBRANCH   1  22
TORSDOF 3
