REMARK  Name = ZINC11910464
REMARK  11 active torsions:
REMARK  status: ('A' for Active; 'I' for Inactive)
REMARK    1  A    between atoms: C_1  and  C_2
REMARK    2  A    between atoms: C_3  and  C_9
REMARK    3  A    between atoms: C_4  and  C_8
REMARK    4  A    between atoms: N_5  and  C_7
REMARK    5  A    between atoms: C_9  and  C_11
REMARK    6  A    between atoms: C_9  and  N_71
REMARK    7  A    between atoms: C_12  and  N_71
REMARK    8  A    between atoms: C_13  and  C_14
REMARK    9  A    between atoms: C_13  and  N_71
REMARK   10  A    between atoms: N_22  and  C_25
REMARK   11  A    between atoms: C_25  and  C_26
REMARK                            x       y       z     vdW  Elec       q    Type
REMARK                         _______ _______ _______ _____ _____    ______ ____
ROOT
ATOM      1  C   UNL     1      -2.809   7.059  -0.928  0.00  0.00    +0.001 A 
ATOM      2  C   UNL     1      -2.846   5.731  -0.662  0.00  0.00    +0.017 A 
ATOM      3  C   UNL     1      -1.697   4.908  -1.043  0.00  0.00    -0.001 A 
ATOM      4  C   UNL     1      -1.677   3.532  -0.798  0.00  0.00    +0.014 A 
ATOM      5  C   UNL     1      -0.587   2.788  -1.162  0.00  0.00    -0.043 A 
ATOM      6  C   UNL     1       0.499   3.389  -1.785  0.00  0.00    -0.042 A 
ATOM      7  C   UNL     1       0.496   4.747  -2.040  0.00  0.00    +0.030 A 
ATOM      8  C   UNL     1      -0.598   5.522  -1.673  0.00  0.00    +0.053 A 
ATOM      9  N   UNL     1      -0.623   6.878  -1.917  0.00  0.00    -0.304 N 
ATOM     10  C   UNL     1      -1.682   7.626  -1.561  0.00  0.00    +0.253 A 
ATOM     11  O   UNL     1      -1.669   8.823  -1.792  0.00  0.00    -0.267 OA
ATOM     12  C   UNL     1       1.556   2.346  -2.084  0.00  0.00    +0.036 C 
ATOM     13  C   UNL     1       1.198   1.140  -1.190  0.00  0.00    +0.009 C 
ATOM     14  C   UNL     1      -0.325   1.305  -1.003  0.00  0.00    +0.036 C 
ENDROOT
BRANCH   1  15
ATOM     15  C   UNL     1      -3.976   7.934  -0.548  0.00  0.00    -0.037 C 
BRANCH  15  17
ATOM     16  C   UNL     1      -2.591   9.482   0.697  0.00  0.00    -0.095 C 
ATOM     17  N   UNL     1      -3.715   8.526   0.781  0.00  0.00    +0.385 N 
ATOM     18  H   UNL     1      -3.467   7.776   1.437  0.00  0.00    -0.081 HD
BRANCH  17  19
ATOM     19  C   UNL     1      -4.926   9.213   1.274  0.00  0.00    -0.037 C 
ATOM     20  C   UNL     1      -5.203  10.472   0.449  0.00  0.00    -0.008 C 
BRANCH  19  23
ATOM     21  C   UNL     1      -5.742  11.969   2.611  0.00  0.00    +0.068 C 
ATOM     22  C   UNL     1      -5.074  10.811   3.308  0.00  0.00    +0.062 A 
ATOM     23  C   UNL     1      -4.715   9.595   2.717  0.00  0.00    -0.018 A 
ATOM     24  C   UNL     1      -4.138   8.825   3.668  0.00  0.00    +0.038 A 
ATOM     25  N   UNL     1      -4.139   9.525   4.821  0.00  0.00    -0.271 N 
ATOM     26  N   UNL     1      -4.735  10.768   4.571  0.00  0.00    -0.176 NA
ATOM     27  C   UNL     1      -3.608   9.068   6.108  0.00  0.00    +0.172 C 
ATOM     28  C   UNL     1      -3.594   7.433   3.474  0.00  0.00    +0.065 C 
ENDBRANCH  19  23
ENDBRANCH  17  19
ENDBRANCH  15  17
ENDBRANCH   1  15
BRANCH   9  29
ATOM     29  C   UNL     1       0.523   7.515  -2.572  0.00  0.00    +0.162 C 
BRANCH  29  30
ATOM     30  C   UNL     1       0.138   7.923  -3.971  0.00  0.00    -0.006 A 
ATOM     31  C   UNL     1      -0.229   9.230  -4.233  0.00  0.00    +0.056 A 
ATOM     32  C   UNL     1      -0.582   9.608  -5.517  0.00  0.00    +0.167 A 
ATOM     33  C   UNL     1      -0.568   8.667  -6.545  0.00  0.00    +0.168 A 
ATOM     34  C   UNL     1      -0.200   7.359  -6.277  0.00  0.00    +0.070 A 
ATOM     35  C   UNL     1       0.157   6.990  -4.992  0.00  0.00    +0.050 A 
ATOM     36 CL   UNL     1       0.625   5.351  -4.660  0.00  0.00    -0.083 Cl
ATOM     37  O   UNL     1      -0.952   9.280  -7.702  0.00  0.00    -0.453 OA
ATOM     38  C   UNL     1      -1.593  10.504  -7.296  0.00  0.00    +0.466 C 
ATOM     39  O   UNL     1      -0.975  10.810  -6.032  0.00  0.00    -0.453 OA
ENDBRANCH  29  30
ENDBRANCH   9  29
TORSDOF 6
