REMARK  Name = ZINC39666782
REMARK  10 active torsions:
REMARK  status: ('A' for Active; 'I' for Inactive)
REMARK    1  A    between atoms: C_1  and  C_2
REMARK    2  A    between atoms: C_2  and  C_3
REMARK    3  A    between atoms: C_3  and  C_4
REMARK    4  A    between atoms: C_3  and  C_6
REMARK    5  A    between atoms: C_4  and  C_5
REMARK    6  A    between atoms: C_6  and  N_7
REMARK    7  A    between atoms: C_8  and  C_10
REMARK    8  A    between atoms: C_21  and  C_23
REMARK    9  A    between atoms: C_24  and  C_36
REMARK   10  A    between atoms: C_27  and  C_28
REMARK                            x       y       z     vdW  Elec       q    Type
REMARK                         _______ _______ _______ _____ _____    ______ ____
ROOT
ATOM      1  C   UNL     1       1.876  -3.272  -2.605  0.00  0.00    +0.100 C 
ATOM      2  C   UNL     1       3.401  -3.040  -2.514  0.00  0.00    +0.121 C 
ATOM      3  N   UNL     1       3.945  -4.322  -2.007  0.00  0.00    -0.296 N 
ATOM      4  C   UNL     1       3.148  -5.361  -2.703  0.00  0.00    +0.115 C 
ATOM      5  C   UNL     1       1.714  -4.796  -2.732  0.00  0.00    -0.004 C 
ATOM      6  C   UNL     1       0.909  -5.341  -1.556  0.00  0.00    -0.010 C 
ATOM      7  C   UNL     1       0.713  -6.850  -1.734  0.00  0.00    -0.082 C 
ATOM      8  N   UNL     1       0.011  -7.108  -2.997  0.00  0.00    +0.379 N 
ATOM      9  C   UNL     1       0.834  -6.663  -4.128  0.00  0.00    -0.082 C 
ATOM     10  C   UNL     1       1.035  -5.147  -4.051  0.00  0.00    -0.010 C 
ATOM     11  C   UNL     1       4.938  -4.503  -1.115  0.00  0.00    +0.252 C 
ATOM     12  O   UNL     1       5.274  -5.628  -0.797  0.00  0.00    -0.270 OA
ATOM     13  H   UNL     1      -0.171  -8.097  -3.083  0.00  0.00    -0.086 HD
ATOM     14  H   UNL     1      -0.865  -6.606  -3.002  0.00  0.00    -0.086 HD
ENDROOT
BRANCH  11  15
ATOM     15  C   UNL     1       5.618  -3.337  -0.524  0.00  0.00    +0.106 A 
ATOM     16  C   UNL     1       5.268  -2.685   0.621  0.00  0.00    +0.147 A 
ATOM     17  O   UNL     1       6.132  -1.685   0.815  0.00  0.00    -0.359 OA
ATOM     18  N   UNL     1       7.083  -1.674  -0.231  0.00  0.00    -0.077 NA
ATOM     19  C   UNL     1       6.811  -2.657  -1.052  0.00  0.00    +0.130 A 
ATOM     20  C   UNL     1       4.104  -3.031   1.514  0.00  0.00    +0.090 C 
BRANCH  19  21
ATOM     21  C   UNL     1       7.559  -3.013  -2.281  0.00  0.00    +0.058 A 
ATOM     22  C   UNL     1       8.007  -4.321  -2.475  0.00  0.00    +0.134 A 
ATOM     23  C   UNL     1       8.704  -4.646  -3.624  0.00  0.00    +0.039 A 
ATOM     24  C   UNL     1       8.957  -3.679  -4.580  0.00  0.00    +0.004 A 
ATOM     25  C   UNL     1       8.515  -2.382  -4.393  0.00  0.00    +0.021 A 
ATOM     26  C   UNL     1       7.813  -2.045  -3.252  0.00  0.00    +0.053 A 
ATOM     27 CL   UNL     1       7.254  -0.417  -3.024  0.00  0.00    -0.083 Cl
ATOM     28  F   UNL     1       7.761  -5.267  -1.542  0.00  0.00    -0.205 F 
ENDBRANCH  19  21
ENDBRANCH  11  15
BRANCH   1  30
ATOM     29  N   UNL     1      -0.119  -2.473  -1.379  0.00  0.00    -0.315 N 
ATOM     30  C   UNL     1       1.195  -2.774  -1.356  0.00  0.00    +0.218 C 
ATOM     31  O   UNL     1       1.828  -2.644  -0.330  0.00  0.00    -0.275 OA
ATOM     32  H   UNL     1      -0.626  -2.578  -2.200  0.00  0.00    +0.149 HD
BRANCH  29  33
ATOM     33  C   UNL     1      -0.781  -1.990  -0.166  0.00  0.00    +0.107 C 
BRANCH  33  34
ATOM     34  C   UNL     1      -2.259  -1.725  -0.462  0.00  0.00    +0.006 C 
BRANCH  34  36
ATOM     35  C   UNL     1      -4.398  -2.764  -1.229  0.00  0.00    +0.004 C 
ATOM     36  C   UNL     1      -2.955  -3.044  -0.804  0.00  0.00    +0.002 C 
ENDBRANCH  34  36
BRANCH  34  37
ATOM     37  C   UNL     1      -2.922  -1.103   0.769  0.00  0.00    +0.002 C 
ATOM     38  C   UNL     1      -2.303   0.269   1.043  0.00  0.00    +0.004 C 
ENDBRANCH  34  37
ENDBRANCH  33  34
ENDBRANCH  29  33
ENDBRANCH   1  30
TORSDOF 7
