REMARK  Name = ZINC42183356
REMARK  13 active torsions:
REMARK  status: ('A' for Active; 'I' for Inactive)
REMARK    1  A    between atoms: C_1  and  C_2
REMARK    2  A    between atoms: C_2  and  C_3
REMARK    3  A    between atoms: N_5  and  C_6
REMARK    4  A    between atoms: C_9  and  C_12
REMARK    5  A    between atoms: C_12  and  C_14
REMARK    6  A    between atoms: C_12  and  N_15
REMARK    7  A    between atoms: N_15  and  C_16
REMARK    8  A    between atoms: C_16  and  C_18
REMARK    9  A    between atoms: C_16  and  C_19
REMARK   10  A    between atoms: N_21  and  C_22
REMARK   11  A    between atoms: C_27  and  C_28
REMARK   12  A    between atoms: C_28  and  C_29
REMARK   13  A    between atoms: C_28  and  C_30
REMARK                            x       y       z     vdW  Elec       q    Type
REMARK                         _______ _______ _______ _____ _____    ______ ____
ROOT
ATOM      1  N   UNL     1       4.220  -4.632   5.998  0.00  0.00    +0.391 N 
ATOM      2  H   UNL     1       3.692  -5.430   5.680  0.00  0.00    -0.084 HD
ATOM      3  H   UNL     1       4.878  -4.356   5.284  0.00  0.00    -0.084 HD
ENDROOT
BRANCH   1   4
ATOM      4  C   UNL     1       3.304  -3.518   6.277  0.00  0.00    -0.043 C 
ATOM      5  C   UNL     1       2.231  -3.975   7.267  0.00  0.00    -0.009 C 
BRANCH   4   9
ATOM      6  C   UNL     1       1.442  -2.263   2.640  0.00  0.00    +0.033 A 
ATOM      7  C   UNL     1       1.852  -1.320   3.573  0.00  0.00    +0.023 A 
ATOM      8  C   UNL     1       2.454  -1.729   4.747  0.00  0.00    +0.004 A 
ATOM      9  C   UNL     1       2.647  -3.075   4.994  0.00  0.00    -0.062 A 
ATOM     10  C   UNL     1       2.241  -4.017   4.067  0.00  0.00    +0.004 A 
ATOM     11  C   UNL     1       1.633  -3.615   2.893  0.00  0.00    +0.023 A 
BRANCH   6  14
ATOM     12  C   UNL     1      -0.151  -2.595   0.904  0.00  0.00    +0.217 C 
ATOM     13  O   UNL     1      -0.451  -3.661   1.399  0.00  0.00    -0.275 OA
ATOM     14  N   UNL     1       0.832  -1.852   1.449  0.00  0.00    -0.286 N 
ATOM     15  H   UNL     1       1.118  -1.033   1.016  0.00  0.00    +0.155 HD
BRANCH  12  17
ATOM     16  C   UNL     1      -1.938  -3.127  -0.731  0.00  0.00    +0.013 C 
ATOM     17  C   UNL     1      -0.878  -2.102  -0.320  0.00  0.00    +0.093 C 
ENDBRANCH  12  17
ENDBRANCH   6  14
ENDBRANCH   4   9
ENDBRANCH   1   4
BRANCH   1  18
ATOM     18  C   UNL     1       4.949  -4.984   7.224  0.00  0.00    +0.014 C 
ATOM     19  C   UNL     1       5.846  -3.816   7.638  0.00  0.00    -0.004 C 
BRANCH  18  20
ATOM     20  C   UNL     1       5.797  -6.204   6.972  0.00  0.00    +0.203 C 
ATOM     21  O   UNL     1       5.795  -6.728   5.878  0.00  0.00    -0.277 OA
ATOM     22  N   UNL     1       6.558  -6.712   7.961  0.00  0.00    -0.287 N 
ATOM     23  H   UNL     1       6.509  -6.335   8.853  0.00  0.00    +0.155 HD
BRANCH  22  24
ATOM     24  C   UNL     1       7.418  -7.785   7.701  0.00  0.00    +0.037 A 
ATOM     25  C   UNL     1       7.051  -8.766   6.789  0.00  0.00    +0.023 A 
ATOM     26  C   UNL     1       7.902  -9.824   6.535  0.00  0.00    +0.002 A 
ATOM     27  C   UNL     1       9.118  -9.906   7.188  0.00  0.00    +0.000 A 
ATOM     28  C   UNL     1       9.487  -8.932   8.097  0.00  0.00    +0.006 A 
ATOM     29  C   UNL     1       8.643  -7.868   8.351  0.00  0.00    -0.024 A 
BRANCH  29  30
ATOM     30  C   UNL     1       9.048  -6.802   9.336  0.00  0.00    +0.015 C 
ATOM     31  C   UNL     1       9.392  -7.452  10.677  0.00  0.00    +0.012 C 
ATOM     32  C   UNL     1      10.271  -6.053   8.803  0.00  0.00    +0.012 C 
ENDBRANCH  29  30
ENDBRANCH  22  24
ENDBRANCH  18  20
ENDBRANCH   1  18
TORSDOF 8
