REMARK  Name = ZINC21148629
REMARK  16 active torsions:
REMARK  status: ('A' for Active; 'I' for Inactive)
REMARK    1  A    between atoms: C_1  and  C_2
REMARK    2  A    between atoms: C_2  and  O_3
REMARK    3  A    between atoms: O_3  and  C_4
REMARK    4  A    between atoms: C_7  and  C_12
REMARK    5  A    between atoms: C_9  and  O_10
REMARK    6  A    between atoms: O_10  and  C_11
REMARK    7  A    between atoms: C_15  and  C_30
REMARK    8  A    between atoms: N_22  and  C_23
REMARK    9  A    between atoms: C_23  and  C_24
REMARK   10  A    between atoms: C_24  and  C_25
REMARK   11  A    between atoms: C_25  and  O_26
REMARK   12  A    between atoms: O_26  and  C_27
REMARK   13  A    between atoms: C_27  and  C_28
REMARK   14  A    between atoms: C_27  and  C_29
REMARK   15  A    between atoms: C_32  and  C_37
REMARK   16  A    between atoms: C_35  and  O_36
REMARK                            x       y       z     vdW  Elec       q    Type
REMARK                         _______ _______ _______ _____ _____    ______ ____
ROOT
ATOM      1  C   UNL     1      -1.860  -5.946  -0.075  0.00  0.00    +0.141 C 
ATOM      2  C   UNL     1      -1.827  -6.566  -1.445  0.00  0.00    +0.035 A 
ATOM      3  C   UNL     1      -2.391  -6.631  -2.724  0.00  0.00    +0.102 A 
ATOM      4  N   UNL     1      -1.705  -7.521  -3.412  0.00  0.00    -0.173 NA
ATOM      5  N   UNL     1      -0.764  -8.024  -2.695  0.00  0.00    -0.272 N 
ATOM      6  H   UNL     1      -0.134  -8.698  -2.996  0.00  0.00    +0.189 HD
ATOM      7  C   UNL     1      -0.782  -7.470  -1.447  0.00  0.00    +0.126 A 
ATOM      8  C   UNL     1      -0.145  -7.450  -0.126  0.00  0.00    +0.265 C 
ATOM      9  O   UNL     1       0.807  -8.134   0.196  0.00  0.00    -0.268 OA
ATOM     10  N   UNL     1      -0.764  -6.567   0.681  0.00  0.00    -0.285 N 
ENDROOT
BRANCH   3  11
ATOM     11  C   UNL     1      -3.549  -5.843  -3.214  0.00  0.00    +0.044 A 
ATOM     12  C   UNL     1      -4.683  -5.697  -2.420  0.00  0.00    +0.017 A 
ATOM     13  C   UNL     1      -5.758  -4.963  -2.880  0.00  0.00    -0.050 A 
ATOM     14  C   UNL     1      -5.712  -4.371  -4.130  0.00  0.00    +0.007 A 
ATOM     15  C   UNL     1      -4.592  -4.510  -4.927  0.00  0.00    +0.046 A 
ATOM     16  C   UNL     1      -3.504  -5.239  -4.474  0.00  0.00    +0.126 A 
ATOM     17  C   UNL     1      -6.984  -4.806  -2.019  0.00  0.00    +0.044 C 
BRANCH  16  18
ATOM     18  O   UNL     1      -2.399  -5.371  -5.254  0.00  0.00    -0.506 OA
ATOM     19  H   UNL     1      -2.453  -6.095  -5.893  0.00  0.00    +0.292 HD
ENDBRANCH  16  18
ENDBRANCH   3  11
BRANCH   1  23
ATOM     20  C   UNL     1      -1.238  -1.724  -0.356  0.00  0.00    +0.162 A 
ATOM     21  C   UNL     1      -0.192  -2.599  -0.601  0.00  0.00    +0.050 A 
ATOM     22  C   UNL     1      -0.396  -3.963  -0.509  0.00  0.00    +0.009 A 
ATOM     23  C   UNL     1      -1.643  -4.458  -0.173  0.00  0.00    -0.019 A 
ATOM     24  C   UNL     1      -2.691  -3.590   0.072  0.00  0.00    +0.055 A 
ATOM     25  C   UNL     1      -2.492  -2.221  -0.013  0.00  0.00    +0.162 A 
BRANCH  25  26
ATOM     26  O   UNL     1      -3.520  -1.367   0.233  0.00  0.00    -0.491 OA
ATOM     27  C   UNL     1      -4.779  -1.948   0.580  0.00  0.00    +0.277 C 
ENDBRANCH  25  26
BRANCH  20  28
ATOM     28  O   UNL     1      -1.039  -0.382  -0.446  0.00  0.00    -0.489 OA
BRANCH  28  30
ATOM     29  C   UNL     1       0.303   1.586  -0.854  0.00  0.00    +0.048 C 
ATOM     30  C   UNL     1       0.273   0.057  -0.803  0.00  0.00    +0.226 C 
ENDBRANCH  28  30
ENDBRANCH  20  28
ENDBRANCH   1  23
BRANCH  10  31
ATOM     31  C   UNL     1      -0.407  -6.276   2.071  0.00  0.00    +0.111 C 
BRANCH  31  32
ATOM     32  C   UNL     1      -1.180  -7.212   3.003  0.00  0.00    +0.047 C 
BRANCH  32  33
ATOM     33  C   UNL     1      -0.807  -6.908   4.455  0.00  0.00    +0.161 C 
BRANCH  33  34
ATOM     34  O   UNL     1      -1.529  -7.782   5.325  0.00  0.00    -0.377 OA
BRANCH  34  35
ATOM     35  C   UNL     1      -1.252  -7.580   6.713  0.00  0.00    +0.112 C 
ATOM     36  C   UNL     1      -2.489  -7.942   7.538  0.00  0.00    +0.037 C 
ATOM     37  C   UNL     1      -0.080  -8.468   7.133  0.00  0.00    +0.037 C 
ENDBRANCH  34  35
ENDBRANCH  33  34
ENDBRANCH  32  33
ENDBRANCH  31  32
ENDBRANCH  10  31
TORSDOF 11
