REMARK  Name = ZINC22357467
REMARK  7 active torsions:
REMARK  status: ('A' for Active; 'I' for Inactive)
REMARK    1  A    between atoms: C_1  and  C_2
REMARK    2  A    between atoms: C_3  and  C_27
REMARK    3  A    between atoms: C_4  and  C_21
REMARK    4  A    between atoms: C_10  and  C_11
REMARK    5  A    between atoms: C_16  and  O_17
REMARK    6  A    between atoms: C_27  and  O_29
REMARK    7  A    between atoms: O_29  and  C_30
REMARK                            x       y       z     vdW  Elec       q    Type
REMARK                         _______ _______ _______ _____ _____    ______ ____
ROOT
ATOM      1  C   UNL     1       8.781  -0.323  -0.025  0.00  0.00    +0.066 C 
ATOM      2  C   UNL     1       7.877   0.867   0.171  0.00  0.00    +0.053 C 
ATOM      3  C   UNL     1       8.417   2.084   0.480  0.00  0.00    +0.085 C 
ATOM      4  C   UNL     1       7.476   3.252   0.668  0.00  0.00    +0.162 C 
ATOM      5  N   UNL     1       6.020   2.985   0.503  0.00  0.00    -0.275 N 
ATOM      6  C   UNL     1       5.037   3.887   0.623  0.00  0.00    +0.268 A 
ATOM      7  O   UNL     1       5.281   5.049   0.891  0.00  0.00    -0.266 OA
ATOM      8  C   UNL     1       3.654   3.430   0.427  0.00  0.00    +0.081 A 
ATOM      9  C   UNL     1       2.494   4.133   0.497  0.00  0.00    +0.032 C 
ATOM     10  S   UNL     1       3.912   1.700   0.064  0.00  0.00    -0.046 S 
ATOM     11  C   UNL     1       5.690   1.687   0.192  0.00  0.00    +0.178 A 
ATOM     12  N   UNL     1       6.564   0.724   0.043  0.00  0.00    -0.228 NA
ENDROOT
BRANCH   9  13
ATOM     13  C   UNL     1       1.207   3.428   0.499  0.00  0.00    +0.018 A 
ATOM     14  C   UNL     1       1.150   2.067   0.822  0.00  0.00    +0.011 A 
ATOM     15  C   UNL     1      -0.062   1.412   0.822  0.00  0.00    +0.001 A 
ATOM     16  C   UNL     1      -1.225   2.092   0.499  0.00  0.00    +0.004 A 
ATOM     17  C   UNL     1      -1.185   3.437   0.184  0.00  0.00    +0.046 A 
ATOM     18  C   UNL     1       0.024   4.114   0.178  0.00  0.00    +0.124 A 
BRANCH  18  19
ATOM     19  O   UNL     1       0.065   5.434  -0.136  0.00  0.00    -0.506 OA
ATOM     20  H   UNL     1      -0.863   5.968  -0.387  0.00  0.00    +0.292 HD
ENDBRANCH  18  19
ENDBRANCH   9  13
BRANCH   4  21
ATOM     21  C   UNL     1       7.692   3.801   2.055  0.00  0.00    -0.020 A 
ATOM     22  C   UNL     1       6.987   3.278   3.123  0.00  0.00    +0.006 A 
ATOM     23  C   UNL     1       7.189   3.779   4.396  0.00  0.00    +0.000 A 
ATOM     24  C   UNL     1       8.088   4.810   4.599  0.00  0.00    +0.000 A 
ATOM     25  C   UNL     1       8.789   5.336   3.530  0.00  0.00    +0.000 A 
ATOM     26  C   UNL     1       8.591   4.832   2.258  0.00  0.00    +0.006 A 
ENDBRANCH   4  21
BRANCH   3  27
ATOM     27  C   UNL     1       9.805   2.245   0.618  0.00  0.00    +0.339 C 
ATOM     28  O   UNL     1      10.538   1.272   0.580  0.00  0.00    -0.245 OA
BRANCH  27  29
ATOM     29  O   UNL     1      10.328   3.478   0.792  0.00  0.00    -0.465 OA
ATOM     30  C   UNL     1      11.748   3.568   0.925  0.00  0.00    +0.280 C 
ENDBRANCH  27  29
ENDBRANCH   3  27
TORSDOF 5
