REMARK  Name = ZINC38686360
REMARK  9 active torsions:
REMARK  status: ('A' for Active; 'I' for Inactive)
REMARK    1  A    between atoms: C_3  and  C_6
REMARK    2  A    between atoms: C_6  and  O_8
REMARK    3  A    between atoms: O_8  and  C_9
REMARK    4  A    between atoms: C_16  and  N_37
REMARK    5  A    between atoms: C_17  and  C_35
REMARK    6  A    between atoms: C_18  and  C_20
REMARK    7  A    between atoms: C_23  and  O_26
REMARK    8  A    between atoms: O_26  and  C_27
REMARK    9  A    between atoms: C_27  and  C_28
REMARK                            x       y       z     vdW  Elec       q    Type
REMARK                         _______ _______ _______ _____ _____    ______ ____
ROOT
ATOM      1  C   UNL     1       5.559  -0.452  -0.020  0.00  0.00    +0.136 A 
ATOM      2  C   UNL     1       6.151   0.801   0.059  0.00  0.00    +0.047 A 
ATOM      3  C   UNL     1       7.527   0.914   0.081  0.00  0.00    +0.012 A 
ATOM      4  C   UNL     1       8.320  -0.217   0.024  0.00  0.00    +0.008 A 
ATOM      5  C   UNL     1       7.735  -1.471  -0.054  0.00  0.00    +0.138 A 
ATOM      6  C   UNL     1       6.351  -1.588  -0.070  0.00  0.00    +0.093 A 
ATOM      7  O   UNL     1       8.496  -2.592  -0.110  0.00  0.00    -0.441 OA
ATOM      8  C   UNL     1       9.787  -2.508  -0.473  0.00  0.00    +0.199 C 
ATOM      9  C   UNL     1      10.472  -1.341  -0.422  0.00  0.00    +0.098 C 
ATOM     10  C   UNL     1       9.819  -0.072   0.050  0.00  0.00    +0.098 C 
ENDROOT
BRANCH  10  11
ATOM     11  C   UNL     1      10.268   0.227   1.457  0.00  0.00    -0.034 A 
ATOM     12  C   UNL     1      10.004  -0.674   2.472  0.00  0.00    +0.008 A 
ATOM     13  C   UNL     1      10.414  -0.402   3.763  0.00  0.00    +0.046 A 
ATOM     14  C   UNL     1      11.091   0.777   4.040  0.00  0.00    +0.121 A 
ATOM     15  C   UNL     1      11.355   1.679   3.020  0.00  0.00    +0.046 A 
ATOM     16  C   UNL     1      10.947   1.400   1.730  0.00  0.00    +0.008 A 
BRANCH  14  17
ATOM     17  O   UNL     1      11.495   1.047   5.309  0.00  0.00    -0.487 OA
BRANCH  17  18
ATOM     18  C   UNL     1      12.187   2.280   5.521  0.00  0.00    +0.264 C 
BRANCH  18  19
ATOM     19  C   UNL     1      12.554   2.406   6.977  0.00  0.00    -0.010 A 
ATOM     20  C   UNL     1      11.677   3.007   7.861  0.00  0.00    +0.008 A 
ATOM     21  C   UNL     1      12.012   3.123   9.197  0.00  0.00    +0.020 A 
ATOM     22  C   UNL     1      13.226   2.637   9.649  0.00  0.00    +0.041 A 
ATOM     23  C   UNL     1      14.104   2.036   8.764  0.00  0.00    +0.020 A 
ATOM     24  C   UNL     1      13.764   1.915   7.430  0.00  0.00    +0.008 A 
ATOM     25 CL   UNL     1      13.649   2.783  11.327  0.00  0.00    -0.084 Cl
ENDBRANCH  18  19
ENDBRANCH  17  18
ENDBRANCH  14  17
ENDBRANCH  10  11
BRANCH   8  26
ATOM     26  N   UNL     1      10.430  -3.639  -0.910  0.00  0.00    -0.328 N 
ATOM     27  H   UNL     1       9.953  -4.483  -0.953  0.00  0.00    +0.145 HD
ATOM     28  H   UNL     1      11.362  -3.595  -1.176  0.00  0.00    +0.145 HD
ENDBRANCH   8  26
BRANCH   9  29
ATOM     29  C   UNL     1      11.846  -1.316  -0.824  0.00  0.00    +0.101 C 
ATOM     30  N   UNL     1      12.936  -1.296  -1.143  0.00  0.00    -0.191 NA
ENDBRANCH   9  29
BRANCH   1  31
ATOM     31  O   UNL     1       4.205  -0.566  -0.041  0.00  0.00    -0.420 OA
BRANCH  31  32
ATOM     32  C   UNL     1       3.583  -0.948   1.094  0.00  0.00    +0.380 C 
ATOM     33  O   UNL     1       4.238  -1.265   2.068  0.00  0.00    -0.241 OA
BRANCH  32  36
ATOM     34  C   UNL     1       0.024  -1.229   1.845  0.00  0.00    +0.042 A 
ATOM     35  C   UNL     1       1.367  -1.345   2.232  0.00  0.00    +0.056 A 
ATOM     36  C   UNL     1       2.120  -0.980   1.152  0.00  0.00    +0.212 A 
ATOM     37  O   UNL     1       1.279  -0.654   0.148  0.00  0.00    -0.456 OA
ATOM     38  C   UNL     1       0.014  -0.803   0.562  0.00  0.00    +0.196 A 
ENDBRANCH  32  36
ENDBRANCH  31  32
ENDBRANCH   1  31
TORSDOF 9
