REMARK  Name = ZINC28463956
REMARK  6 active torsions:
REMARK  status: ('A' for Active; 'I' for Inactive)
REMARK    1  A    between atoms: C_1  and  C_2
REMARK    2  A    between atoms: C_3  and  N_15
REMARK    3  A    between atoms: N_6  and  C_9
REMARK    4  A    between atoms: N_7  and  C_8
REMARK    5  A    between atoms: N_15  and  C_16
REMARK    6  A    between atoms: N_24  and  C_27
REMARK                            x       y       z     vdW  Elec       q    Type
REMARK                         _______ _______ _______ _____ _____    ______ ____
ROOT
ATOM      1  C   UNL     1      -2.830   2.725  -0.414  0.00  0.00    +0.105 A 
ATOM      2  C   UNL     1      -1.524   2.874  -0.860  0.00  0.00    +0.019 A 
ATOM      3  C   UNL     1      -1.012   4.227  -1.098  0.00  0.00    +0.019 A 
ATOM      4  C   UNL     1       0.309   4.416  -1.551  0.00  0.00    +0.032 A 
ATOM      5  C   UNL     1       0.779   5.711  -1.771  0.00  0.00    +0.012 A 
ATOM      6  C   UNL     1      -0.051   6.793  -1.546  0.00  0.00    +0.003 A 
ATOM      7  C   UNL     1      -1.347   6.615  -1.102  0.00  0.00    +0.026 A 
ATOM      8  C   UNL     1      -1.843   5.335  -0.873  0.00  0.00    +0.053 A 
ATOM      9  N   UNL     1      -3.139   5.154  -0.430  0.00  0.00    -0.310 N 
ATOM     10  C   UNL     1      -3.645   3.930  -0.201  0.00  0.00    +0.273 A 
ATOM     11  O   UNL     1      -4.794   3.818   0.188  0.00  0.00    -0.266 OA
ATOM     12  C   UNL     1      -3.985   6.329  -0.204  0.00  0.00    +0.152 C 
ATOM     13  C   UNL     1       1.177   3.252  -1.786  0.00  0.00    +0.194 C 
ATOM     14  O   UNL     1       2.319   3.411  -2.177  0.00  0.00    -0.287 OA
ATOM     15  C   UNL     1       0.662   1.894  -1.546  0.00  0.00    +0.030 A 
ATOM     16  C   UNL     1      -0.659   1.708  -1.093  0.00  0.00    -0.004 A 
ATOM     17  C   UNL     1      -1.137   0.415  -0.874  0.00  0.00    +0.009 A 
ATOM     18  C   UNL     1      -0.314  -0.668  -1.092  0.00  0.00    +0.001 A 
ATOM     19  C   UNL     1       0.987  -0.486  -1.538  0.00  0.00    +0.001 A 
ATOM     20  C   UNL     1       1.478   0.781  -1.765  0.00  0.00    +0.012 A 
ENDROOT
BRANCH   1  21
ATOM     21  N   UNL     1      -3.354   1.471  -0.177  0.00  0.00    -0.304 N 
ATOM     22  H   UNL     1      -2.953   0.853   0.640  0.00  0.00    +0.153 HD
BRANCH  21  25
ATOM     23  C   UNL     1      -4.834  -1.173   0.303  0.00  0.00    +0.067 C 
ATOM     24  C   UNL     1      -5.076  -0.175  -0.800  0.00  0.00    +0.059 A 
ATOM     25  C   UNL     1      -4.401   0.983  -0.979  0.00  0.00    +0.119 A 
ATOM     26  C   UNL     1      -4.958   1.631  -2.168  0.00  0.00    +0.293 A 
ATOM     27  O   UNL     1      -4.605   2.692  -2.648  0.00  0.00    -0.264 OA
ATOM     28  N   UNL     1      -5.939   0.827  -2.629  0.00  0.00    -0.216 N 
ATOM     29  N   UNL     1      -6.019  -0.288  -1.788  0.00  0.00    -0.282 N 
ATOM     30  C   UNL     1      -6.958  -1.403  -1.942  0.00  0.00    +0.171 C 
BRANCH  28  31
ATOM     31  C   UNL     1      -6.735   1.066  -3.753  0.00  0.00    +0.067 A 
ATOM     32  C   UNL     1      -6.915   0.069  -4.704  0.00  0.00    +0.028 A 
ATOM     33  C   UNL     1      -7.707   0.307  -5.810  0.00  0.00    +0.002 A 
ATOM     34  C   UNL     1      -8.312   1.540  -5.978  0.00  0.00    +0.000 A 
ATOM     35  C   UNL     1      -8.130   2.536  -5.036  0.00  0.00    +0.002 A 
ATOM     36  C   UNL     1      -7.344   2.303  -3.924  0.00  0.00    +0.028 A 
ENDBRANCH  28  31
ENDBRANCH  21  25
ENDBRANCH   1  21
TORSDOF 3
