REMARK  Name = ZINC16809441
REMARK  11 active torsions:
REMARK  status: ('A' for Active; 'I' for Inactive)
REMARK    1  A    between atoms: C_1  and  C_2
REMARK    2  A    between atoms: C_2  and  O_3
REMARK    3  A    between atoms: O_3  and  C_4
REMARK    4  A    between atoms: C_7  and  C_10
REMARK    5  A    between atoms: C_10  and  C_11
REMARK    6  A    between atoms: C_12  and  C_38
REMARK    7  A    between atoms: C_25  and  C_29
REMARK    8  A    between atoms: C_26  and  C_28
REMARK    9  A    between atoms: C_29  and  C_30
REMARK   10  A    between atoms: C_32  and  C_37
REMARK   11  A    between atoms: C_35  and  C_36
REMARK                            x       y       z     vdW  Elec       q    Type
REMARK                         _______ _______ _______ _____ _____    ______ ____
ROOT
ATOM      1  C   UNL     1      -0.976   1.061   1.860  0.00  0.00    +0.042 A 
ATOM      2  C   UNL     1      -1.869   0.401   2.653  0.00  0.00    +0.050 A 
ATOM      3  N   UNL     1      -2.468   1.038   3.657  0.00  0.00    -0.221 NA
ATOM      4  C   UNL     1      -2.220   2.306   3.910  0.00  0.00    +0.202 A 
ATOM      5  N   UNL     1      -1.340   3.015   3.154  0.00  0.00    -0.295 N 
ATOM      6  H   UNL     1      -1.168   3.949   3.354  0.00  0.00    +0.172 HD
ATOM      7  C   UNL     1      -0.701   2.414   2.127  0.00  0.00    +0.256 A 
ATOM      8  O   UNL     1       0.095   3.034   1.442  0.00  0.00    -0.267 OA
ATOM      9  N   UNL     1      -2.861   2.924   4.957  0.00  0.00    -0.255 N 
ATOM     10  C   UNL     1      -3.753   2.218   5.729  0.00  0.00    +0.202 A 
ATOM     11  N   UNL     1      -4.376   2.839   6.766  0.00  0.00    -0.295 N 
ATOM     12  H   UNL     1      -4.192   3.772   6.956  0.00  0.00    +0.172 HD
ATOM     13  C   UNL     1      -5.257   2.155   7.526  0.00  0.00    +0.256 A 
ATOM     14  O   UNL     1      -5.829   2.697   8.457  0.00  0.00    -0.267 OA
ATOM     15  C   UNL     1      -5.499   0.801   7.227  0.00  0.00    +0.042 A 
ATOM     16  C   UNL     1      -4.840   0.231   6.178  0.00  0.00    +0.050 A 
ATOM     17  N   UNL     1      -3.984   0.951   5.455  0.00  0.00    -0.221 NA
ATOM     18  C   UNL     1      -5.080  -1.217   5.836  0.00  0.00    +0.066 C 
ATOM     19  C   UNL     1      -2.178  -1.051   2.391  0.00  0.00    +0.066 C 
ATOM     20  H   UNL     1      -2.684   3.857   5.152  0.00  0.00    +0.158 HD
ENDROOT
BRANCH   1  21
ATOM     21  C   UNL     1      -0.292   0.350   0.721  0.00  0.00    +0.077 C 
BRANCH  21  25
ATOM     22  C   UNL     1       3.475  -1.169   2.048  0.00  0.00    +0.121 A 
ATOM     23  C   UNL     1       2.329  -1.940   2.182  0.00  0.00    +0.046 A 
ATOM     24  C   UNL     1       1.112  -1.446   1.752  0.00  0.00    +0.007 A 
ATOM     25  C   UNL     1       1.036  -0.186   1.189  0.00  0.00    -0.043 A 
ATOM     26  C   UNL     1       2.178   0.582   1.049  0.00  0.00    +0.007 A 
ATOM     27  C   UNL     1       3.396   0.095   1.482  0.00  0.00    +0.046 A 
BRANCH  22  28
ATOM     28  O   UNL     1       4.673  -1.653   2.470  0.00  0.00    -0.492 OA
BRANCH  28  30
ATOM     29  C   UNL     1       7.059  -1.514   2.830  0.00  0.00    +0.048 C 
ATOM     30  C   UNL     1       5.811  -0.805   2.301  0.00  0.00    +0.225 C 
ENDBRANCH  28  30
ENDBRANCH  22  28
ENDBRANCH  21  25
ENDBRANCH   1  21
BRANCH  15  31
ATOM     31  C   UNL     1      -6.470  -0.004   8.051  0.00  0.00    +0.077 C 
BRANCH  31  32
ATOM     32  C   UNL     1      -5.764  -0.554   9.264  0.00  0.00    -0.040 A 
ATOM     33  C   UNL     1      -4.455  -0.194   9.524  0.00  0.00    +0.007 A 
ATOM     34  C   UNL     1      -3.808  -0.698  10.637  0.00  0.00    -0.050 A 
ATOM     35  C   UNL     1      -4.469  -1.563  11.488  0.00  0.00    +0.003 A 
ATOM     36  C   UNL     1      -5.778  -1.924  11.227  0.00  0.00    +0.004 A 
ATOM     37  C   UNL     1      -6.427  -1.415  10.118  0.00  0.00    -0.047 A 
ATOM     38  C   UNL     1      -7.856  -1.804   9.837  0.00  0.00    +0.044 C 
ATOM     39  C   UNL     1      -2.381  -0.305  10.921  0.00  0.00    +0.044 C 
ENDBRANCH  31  32
ENDBRANCH  15  31
TORSDOF 6
