REMARK  Name = ZINC26515438
REMARK  1 active torsions:
REMARK  status: ('A' for Active; 'I' for Inactive)
REMARK    1  A    between atoms: C_9  and  S_11
REMARK                            x       y       z     vdW  Elec       q    Type
REMARK                         _______ _______ _______ _____ _____    ______ ____
ROOT
ATOM      1  C   UNL     1      -1.219   1.751   0.017  0.00  0.00    +0.000 A 
ATOM      2  C   UNL     1      -0.013   1.076   0.008  0.00  0.00    +0.000 A 
ATOM      3  C   UNL     1       1.173   1.783   0.000  0.00  0.00    +0.005 A 
ATOM      4  C   UNL     1       1.159   3.168   0.008  0.00  0.00    -0.032 A 
ATOM      5  C   UNL     1      -0.047   3.844   0.023  0.00  0.00    -0.043 A 
ATOM      6  C   UNL     1      -1.235   3.132   0.031  0.00  0.00    +0.004 A 
ATOM      7  C   UNL     1       0.203   5.336   0.027  0.00  0.00    +0.037 C 
ATOM      8  C   UNL     1       1.678   5.498   0.454  0.00  0.00    +0.023 C 
ATOM      9  C   UNL     1       2.302   4.161   0.001  0.00  0.00    +0.074 C 
ENDROOT
BRANCH   9  10
ATOM     10  S   UNL     1       3.593   3.643   1.165  0.00  0.00    -0.170 S 
ATOM     11  H   UNL     1       4.500   4.252   1.288  0.00  0.00    +0.102 HD
ENDBRANCH   9  10
TORSDOF 1
