REMARK  Name = ZINC19685059
REMARK  1 active torsions:
REMARK  status: ('A' for Active; 'I' for Inactive)
REMARK    1  A    between atoms: C_4  and  C_21
REMARK                            x       y       z     vdW  Elec       q    Type
REMARK                         _______ _______ _______ _____ _____    ______ ____
ROOT
ATOM      1  C   UNL     1       0.170   5.101  -0.571  0.00  0.00    +0.014 A 
ATOM      2  C   UNL     1       1.319   5.830  -0.230  0.00  0.00    +0.002 A 
ATOM      3  C   UNL     1       1.363   7.229  -0.364  0.00  0.00    +0.032 A 
ATOM      4  C   UNL     1       2.534   7.884  -0.006  0.00  0.00    +0.092 A 
ATOM      5  C   UNL     1       3.631   7.131   0.475  0.00  0.00    +0.140 A 
ATOM      6  N   UNL     1       3.564   5.822   0.590  0.00  0.00    -0.231 NA
ATOM      7  C   UNL     1       2.459   5.143   0.258  0.00  0.00    +0.073 A 
ATOM      8  C   UNL     1       2.405   3.748   0.385  0.00  0.00    +0.033 A 
ATOM      9  C   UNL     1       1.272   3.064   0.043  0.00  0.00    -0.028 A 
ATOM     10  C   UNL     1       0.153   3.741  -0.433  0.00  0.00    -0.041 A 
ATOM     11  C   UNL     1      -1.112   3.009  -0.806  0.00  0.00    +0.050 C 
ATOM     12  C   UNL     1      -0.818   1.519  -0.987  0.00  0.00    +0.086 C 
ATOM     13  N   UNL     1      -0.089   1.040   0.198  0.00  0.00    -0.312 NA
ATOM     14  C   UNL     1       1.280   1.564   0.198  0.00  0.00    +0.116 C 
ATOM     15  N   UNL     1       4.797   7.783   0.831  0.00  0.00    -0.310 N 
ATOM     16  C   UNL     1       5.923   7.343  -0.005  0.00  0.00    +0.134 C 
ATOM     17  C   UNL     1       7.177   8.132   0.381  0.00  0.00    +0.178 C 
ATOM     18  O   UNL     1       7.436   7.953   1.776  0.00  0.00    -0.377 OA
ATOM     19  C   UNL     1       6.360   8.372   2.620  0.00  0.00    +0.178 C 
ATOM     20  C   UNL     1       5.098   7.585   2.256  0.00  0.00    +0.134 C 
ATOM     21  H   UNL     1      -0.605   1.381   1.108  0.00  0.00    +0.122 HD
ENDROOT
BRANCH   4  22
ATOM     22  C   UNL     1       2.630   9.308  -0.123  0.00  0.00    +0.103 C 
ATOM     23  N   UNL     1       2.706  10.437  -0.216  0.00  0.00    -0.191 NA
ENDBRANCH   4  22
TORSDOF 1
