REMARK  Name = ZINC35266844
REMARK  8 active torsions:
REMARK  status: ('A' for Active; 'I' for Inactive)
REMARK    1  A    between atoms: C_1  and  C_2
REMARK    2  A    between atoms: C_2  and  C_3
REMARK    3  A    between atoms: C_3  and  C_5
REMARK    4  A    between atoms: C_3  and  C_6
REMARK    5  A    between atoms: C_6  and  C_8
REMARK    6  A    between atoms: C_6  and  N_23
REMARK    7  A    between atoms: C_14  and  C_16
REMARK    8  A    between atoms: C_24  and  C_26
REMARK                            x       y       z     vdW  Elec       q    Type
REMARK                         _______ _______ _______ _____ _____    ______ ____
ROOT
ATOM      1  C   UNL     1       0.630  -2.023  -1.329  0.00  0.00    +0.162 C 
ENDROOT
BRANCH   1   2
ATOM      2  C   UNL     1      -0.809  -2.436  -1.501  0.00  0.00    +0.239 C 
ATOM      3  O   UNL     1      -1.340  -3.144  -0.672  0.00  0.00    -0.273 OA
ATOM      4  N   UNL     1      -1.505  -2.019  -2.577  0.00  0.00    -0.262 N 
ATOM      5  C   UNL     1      -2.832  -2.399  -2.736  0.00  0.00    +0.188 A 
ATOM      6  N   UNL     1      -3.602  -3.152  -1.960  0.00  0.00    -0.125 NA
ATOM      7  N   UNL     1      -4.802  -3.404  -2.255  0.00  0.00    -0.140 NA
ATOM      8  C   UNL     1      -5.367  -2.930  -3.359  0.00  0.00    +0.134 A 
ATOM      9  S   UNL     1      -3.993  -2.007  -4.041  0.00  0.00    -0.030 S 
ATOM     10  H   UNL     1      -1.080  -1.453  -3.240  0.00  0.00    +0.157 HD
BRANCH   8  11
ATOM     11  C   UNL     1      -6.741  -3.109  -3.875  0.00  0.00    +0.009 A 
ATOM     12  C   UNL     1      -7.120  -2.514  -5.079  0.00  0.00    +0.012 A 
ATOM     13  C   UNL     1      -8.403  -2.684  -5.556  0.00  0.00    +0.020 A 
ATOM     14  C   UNL     1      -9.315  -3.443  -4.841  0.00  0.00    +0.041 A 
ATOM     15  C   UNL     1      -8.944  -4.036  -3.645  0.00  0.00    +0.020 A 
ATOM     16  C   UNL     1      -7.662  -3.877  -3.162  0.00  0.00    +0.012 A 
ATOM     17 CL   UNL     1     -10.928  -3.652  -5.446  0.00  0.00    -0.084 Cl
ENDBRANCH   8  11
ENDBRANCH   1   2
BRANCH   1  18
ATOM     18  N   UNL     1       1.159  -2.602  -0.091  0.00  0.00    -0.303 N 
ATOM     19  C   UNL     1       2.484  -2.813   0.042  0.00  0.00    +0.220 C 
ATOM     20  O   UNL     1       3.238  -2.525  -0.864  0.00  0.00    -0.275 OA
ATOM     21  H   UNL     1       0.556  -2.832   0.633  0.00  0.00    +0.149 HD
BRANCH  19  22
ATOM     22  C   UNL     1       3.028  -3.408   1.315  0.00  0.00    +0.048 C 
ATOM     23  C   UNL     1       2.409  -4.790   1.538  0.00  0.00    +0.019 C 
ATOM     24  C   UNL     1       2.961  -5.394   2.830  0.00  0.00    -0.009 C 
ATOM     25  C   UNL     1       4.481  -5.528   2.721  0.00  0.00    +0.007 C 
ATOM     26  C   UNL     1       5.101  -4.146   2.499  0.00  0.00    -0.009 C 
ATOM     27  C   UNL     1       4.548  -3.542   1.206  0.00  0.00    +0.019 C 
ATOM     28  C   UNL     1       4.752  -3.235   3.677  0.00  0.00    +0.007 C 
ATOM     29  C   UNL     1       3.232  -3.101   3.786  0.00  0.00    -0.009 C 
ATOM     30  C   UNL     1       2.613  -4.482   4.009  0.00  0.00    +0.007 C 
ATOM     31  C   UNL     1       2.679  -2.497   2.494  0.00  0.00    +0.019 C 
ENDBRANCH  19  22
ENDBRANCH   1  18
BRANCH   1  32
ATOM     32  C   UNL     1       0.718  -0.497  -1.257  0.00  0.00    +0.015 C 
ATOM     33  C   UNL     1       2.187  -0.073  -1.207  0.00  0.00    +0.010 C 
BRANCH  32  35
ATOM     34  C   UNL     1      -0.019   1.526   0.010  0.00  0.00    +0.004 C 
ATOM     35  C   UNL     1       0.002  -0.004   0.002  0.00  0.00    +0.002 C 
ENDBRANCH  32  35
ENDBRANCH   1  32
TORSDOF 6
