REMARK  Name = ZINC39675718
REMARK  9 active torsions:
REMARK  status: ('A' for Active; 'I' for Inactive)
REMARK    1  A    between atoms: C_1  and  C_2
REMARK    2  A    between atoms: C_2  and  C_8
REMARK    3  A    between atoms: C_12  and  C_21
REMARK    4  A    between atoms: N_23  and  C_24
REMARK    5  A    between atoms: C_24  and  C_25
REMARK    6  A    between atoms: C_25  and  C_27
REMARK    7  A    between atoms: C_25  and  N_33
REMARK    8  A    between atoms: N_33  and  C_34
REMARK    9  A    between atoms: N_33  and  C_35
REMARK                            x       y       z     vdW  Elec       q    Type
REMARK                         _______ _______ _______ _____ _____    ______ ____
ROOT
ATOM      1  C   UNL     1      -1.863  -0.709  -0.008  0.00  0.00    +0.222 C 
ATOM      2  O   UNL     1      -2.439  -1.300   0.881  0.00  0.00    -0.275 OA
ATOM      3  N   UNL     1      -2.545  -0.294  -1.094  0.00  0.00    -0.300 N 
ATOM      4  C   UNL     1      -2.005   0.351  -2.314  0.00  0.00    +0.121 C 
ATOM      5  C   UNL     1      -2.814  -0.270  -3.474  0.00  0.00    +0.100 C 
ATOM      6  C   UNL     1      -4.125  -0.745  -2.828  0.00  0.00    -0.004 C 
ATOM      7  C   UNL     1      -4.004  -0.385  -1.340  0.00  0.00    +0.115 C 
ATOM      8  C   UNL     1      -5.315  -0.022  -3.452  0.00  0.00    -0.010 C 
ATOM      9  C   UNL     1      -6.611  -0.554  -2.834  0.00  0.00    -0.082 C 
ATOM     10  N   UNL     1      -6.712  -1.999  -3.072  0.00  0.00    +0.379 N 
ATOM     11  C   UNL     1      -5.615  -2.696  -2.390  0.00  0.00    -0.082 C 
ATOM     12  C   UNL     1      -4.277  -2.255  -2.989  0.00  0.00    -0.010 C 
ATOM     13  H   UNL     1      -7.595  -2.336  -2.717  0.00  0.00    -0.086 HD
ATOM     14  H   UNL     1      -6.659  -2.180  -4.063  0.00  0.00    -0.086 HD
ENDROOT
BRANCH   1  16
ATOM     15  C   UNL     1       0.362  -1.255  -0.957  0.00  0.00    +0.021 C 
ATOM     16  C   UNL     1      -0.384  -0.440   0.101  0.00  0.00    +0.044 C 
ATOM     17  C   UNL     1       0.106  -0.843   1.494  0.00  0.00    +0.016 C 
ATOM     18  C   UNL     1      -0.640  -0.028   2.552  0.00  0.00    +0.001 C 
ATOM     19  C   UNL     1      -0.375   1.462   2.329  0.00  0.00    +0.000 C 
ATOM     20  C   UNL     1      -0.865   1.865   0.937  0.00  0.00    +0.001 C 
ATOM     21  C   UNL     1      -0.119   1.050  -0.122  0.00  0.00    +0.016 C 
ENDBRANCH   1  16
BRANCH   5  22
ATOM     22  C   UNL     1      -3.093   0.766  -4.532  0.00  0.00    +0.218 C 
ATOM     23  O   UNL     1      -3.280   1.922  -4.215  0.00  0.00    -0.275 OA
ATOM     24  N   UNL     1      -3.135   0.409  -5.831  0.00  0.00    -0.316 N 
ATOM     25  H   UNL     1      -2.985  -0.515  -6.085  0.00  0.00    +0.149 HD
BRANCH  24  26
ATOM     26  C   UNL     1      -3.406   1.416  -6.860  0.00  0.00    +0.093 C 
BRANCH  26  27
ATOM     27  C   UNL     1      -3.523   0.734  -8.224  0.00  0.00    -0.021 C 
BRANCH  27  28
ATOM     28  C   UNL     1      -4.707  -0.199  -8.219  0.00  0.00    -0.059 A 
ATOM     29  C   UNL     1      -5.982   0.302  -8.405  0.00  0.00    +0.002 A 
ATOM     30  C   UNL     1      -7.068  -0.553  -8.400  0.00  0.00    +0.000 A 
ATOM     31  C   UNL     1      -6.879  -1.909  -8.210  0.00  0.00    +0.000 A 
ATOM     32  C   UNL     1      -5.604  -2.410  -8.025  0.00  0.00    +0.000 A 
ATOM     33  C   UNL     1      -4.518  -1.556  -8.034  0.00  0.00    +0.002 A 
ENDBRANCH  27  28
BRANCH  27  34
ATOM     34  N   UNL     1      -3.706   1.752  -9.267  0.00  0.00    +0.382 N 
ATOM     35  C   UNL     1      -2.506   2.595  -9.344  0.00  0.00    -0.096 C 
ATOM     36  C   UNL     1      -3.925   1.093 -10.562  0.00  0.00    -0.096 C 
ATOM     37  H   UNL     1      -4.506   2.324  -9.042  0.00  0.00    -0.082 HD
ENDBRANCH  27  34
ENDBRANCH  26  27
ENDBRANCH  24  26
ENDBRANCH   5  22
TORSDOF 6
