REMARK  Name = ZINC13055895
REMARK  14 active torsions:
REMARK  status: ('A' for Active; 'I' for Inactive)
REMARK    1  A    between atoms: C_1  and  C_2
REMARK    2  A    between atoms: C_2  and  C_3
REMARK    3  A    between atoms: C_2  and  C_4
REMARK    4  A    between atoms: C_4  and  C_6
REMARK    5  A    between atoms: C_4  and  N_13
REMARK    6  A    between atoms: C_14  and  C_16
REMARK    7  A    between atoms: C_16  and  S_17
REMARK    8  A    between atoms: S_17  and  C_18
REMARK    9  A    between atoms: N_28  and  C_29
REMARK   10  A    between atoms: C_29  and  C_30
REMARK   11  A    between atoms: C_30  and  C_31
REMARK   12  A    between atoms: C_31  and  C_32
REMARK   13  A    between atoms: C_32  and  C_33
REMARK   14  A    between atoms: C_33  and  C_34
REMARK                            x       y       z     vdW  Elec       q    Type
REMARK                         _______ _______ _______ _____ _____    ______ ____
ROOT
ATOM      1  C   UNL     1      -1.119  -2.036   0.003  0.00  0.00    +0.173 A 
ATOM      2  N   UNL     1      -1.136  -0.726   0.009  0.00  0.00    -0.223 NA
ATOM      3  C   UNL     1       0.002  -0.004   0.002  0.00  0.00    +0.079 A 
ATOM      4  C   UNL     1      -0.017   1.394   0.010  0.00  0.00    +0.028 A 
ATOM      5  C   UNL     1       1.161   2.086   0.002  0.00  0.00    +0.002 A 
ATOM      6  C   UNL     1       2.381   1.422  -0.013  0.00  0.00    +0.001 A 
ATOM      7  C   UNL     1       2.432   0.055  -0.021  0.00  0.00    +0.015 A 
ATOM      8  C   UNL     1       1.245  -0.677  -0.013  0.00  0.00    +0.065 A 
ATOM      9  C   UNL     1       1.239  -2.146  -0.021  0.00  0.00    +0.262 A 
ATOM     10  O   UNL     1       2.277  -2.782  -0.034  0.00  0.00    -0.267 OA
ATOM     11  N   UNL     1       0.036  -2.766  -0.012  0.00  0.00    -0.287 N 
ENDROOT
BRANCH   1  12
ATOM     12  S   UNL     1      -2.656  -2.897   0.014  0.00  0.00    -0.078 S 
BRANCH  12  13
ATOM     13  C   UNL     1      -3.801  -1.496   0.033  0.00  0.00    +0.173 C 
BRANCH  13  15
ATOM     14  N   UNL     1      -6.248  -1.135   0.060  0.00  0.00    -0.308 N 
ATOM     15  C   UNL     1      -5.219  -2.005   0.045  0.00  0.00    +0.224 C 
ATOM     16  O   UNL     1      -5.434  -3.199   0.041  0.00  0.00    -0.275 OA
ATOM     17  H   UNL     1      -6.076  -0.180   0.063  0.00  0.00    +0.149 HD
BRANCH  14  18
ATOM     18  C   UNL     1      -7.627  -1.631   0.071  0.00  0.00    +0.106 C 
BRANCH  18  19
ATOM     19  C   UNL     1      -8.529  -0.592   0.686  0.00  0.00    -0.027 A 
ATOM     20  C   UNL     1      -8.334   0.747   0.402  0.00  0.00    +0.008 A 
ATOM     21  C   UNL     1      -9.165   1.700   0.961  0.00  0.00    +0.038 A 
ATOM     22  C   UNL     1     -10.184   1.314   1.815  0.00  0.00    +0.123 A 
ATOM     23  C   UNL     1     -10.374  -0.027   2.103  0.00  0.00    +0.038 A 
ATOM     24  C   UNL     1      -9.546  -0.978   1.538  0.00  0.00    +0.008 A 
ATOM     25  F   UNL     1     -10.992   2.245   2.366  0.00  0.00    -0.205 F 
ENDBRANCH  18  19
BRANCH  18  27
ATOM     26  C   UNL     1      -7.162  -2.969  -1.987  0.00  0.00    +0.009 C 
ATOM     27  C   UNL     1      -8.078  -1.914  -1.363  0.00  0.00    +0.008 C 
ATOM     28  C   UNL     1      -9.518  -2.432  -1.351  0.00  0.00    +0.009 C 
ENDBRANCH  18  27
ENDBRANCH  14  18
ENDBRANCH  13  15
ENDBRANCH  12  13
ENDBRANCH   1  12
BRANCH  11  29
ATOM     29  C   UNL     1      -0.028  -4.229  -0.019  0.00  0.00    +0.127 C 
BRANCH  29  30
ATOM     30  C   UNL     1      -0.037  -4.746   1.421  0.00  0.00    +0.022 C 
BRANCH  30  31
ATOM     31  C   UNL     1      -0.104  -6.275   1.414  0.00  0.00    +0.002 C 
BRANCH  31  32
ATOM     32  C   UNL     1      -0.112  -6.791   2.854  0.00  0.00    +0.011 C 
BRANCH  32  33
ATOM     33  C   UNL     1      -0.179  -8.320   2.847  0.00  0.00    +0.125 C 
BRANCH  33  34
ATOM     34  C   UNL     1      -0.188  -8.829   4.266  0.00  0.00    +0.356 C 
ATOM     35  O   UNL     1      -0.144  -8.049   5.187  0.00  0.00    -0.246 OA
ATOM     36  O   UNL     1      -0.243 -10.149   4.505  0.00  0.00    -0.246 OA
ENDBRANCH  33  34
ENDBRANCH  32  33
ENDBRANCH  31  32
ENDBRANCH  30  31
ENDBRANCH  29  30
ENDBRANCH  11  29
TORSDOF 12
