REMARK  Name = ZINC36371016
REMARK  6 active torsions:
REMARK  status: ('A' for Active; 'I' for Inactive)
REMARK    1  A    between atoms: C_1  and  C_2
REMARK    2  A    between atoms: C_2  and  C_4
REMARK    3  A    between atoms: C_10  and  C_31
REMARK    4  A    between atoms: C_12  and  O_30
REMARK    5  A    between atoms: C_22  and  C_29
REMARK    6  A    between atoms: C_25  and  O_28
REMARK                            x       y       z     vdW  Elec       q    Type
REMARK                         _______ _______ _______ _____ _____    ______ ____
ROOT
ATOM      1  C   UNL     1      -1.286  -0.770   0.021  0.00  0.00    +0.061 C 
ATOM      2  C   UNL     1      -1.781  -0.997  -1.426  0.00  0.00    +0.012 C 
ATOM      3  C   UNL     1      -2.379  -2.416  -1.468  0.00  0.00    +0.005 C 
ATOM      4  C   UNL     1      -2.264  -2.980  -0.027  0.00  0.00    -0.001 C 
ATOM      5  C   UNL     1      -1.073  -2.197   0.559  0.00  0.00    -0.017 C 
ATOM      6  C   UNL     1      -1.002  -2.246   2.066  0.00  0.00    +0.039 C 
ATOM      7  C   UNL     1      -2.327  -1.827   2.701  0.00  0.00    +0.119 C 
ATOM      8  C   UNL     1      -3.423  -2.778   2.204  0.00  0.00    +0.027 C 
ATOM      9  C   UNL     1      -3.568  -2.619   0.689  0.00  0.00    -0.001 C 
ATOM     10  C   UNL     1      -4.690  -3.521   0.167  0.00  0.00    +0.004 C 
ATOM     11  C   UNL     1      -6.009  -3.144   0.842  0.00  0.00    +0.004 C 
ATOM     12  C   UNL     1      -5.770  -2.000   1.830  0.00  0.00    -0.002 C 
ATOM     13  C   UNL     1      -4.738  -2.426   2.905  0.00  0.00    -0.024 C 
ATOM     14  C   UNL     1      -4.490  -1.298   3.909  0.00  0.00    +0.010 C 
ATOM     15  C   UNL     1      -5.802  -0.939   4.609  0.00  0.00    +0.032 C 
ATOM     16  C   UNL     1      -6.825  -0.478   3.568  0.00  0.00    +0.115 C 
ATOM     17  C   UNL     1      -7.089  -1.635   2.514  0.00  0.00    +0.035 C 
ATOM     18  C   UNL     1      -5.269  -3.658   3.642  0.00  0.00    +0.012 C 
ATOM     19  C   UNL     1       0.228  -2.762  -0.013  0.00  0.00    +0.012 C 
ENDROOT
BRANCH   1  21
ATOM     20  C   UNL     1       0.422   0.779   1.244  0.00  0.00    +0.086 C 
ATOM     21  C   UNL     1       0.012  -0.004   0.023  0.00  0.00    +0.134 C 
ATOM     22  O   UNL     1       0.723  -0.016  -0.953  0.00  0.00    -0.297 OA
ENDBRANCH   1  21
BRANCH  16  23
ATOM     23  O   UNL     1      -8.050  -0.139   4.221  0.00  0.00    -0.392 OA
ATOM     24  H   UNL     1      -7.965   0.571   4.871  0.00  0.00    +0.210 HD
ENDBRANCH  16  23
BRANCH   7  25
ATOM     25  O   UNL     1      -2.642  -0.486   2.319  0.00  0.00    -0.391 OA
ATOM     26  H   UNL     1      -1.980   0.165   2.589  0.00  0.00    +0.210 HD
ENDBRANCH   7  25
TORSDOF 3
