REMARK  Name = ZINC24635008
REMARK  12 active torsions:
REMARK  status: ('A' for Active; 'I' for Inactive)
REMARK    1  A    between atoms: C_1  and  C_2
REMARK    2  A    between atoms: C_2  and  C_3
REMARK    3  A    between atoms: C_2  and  C_4
REMARK    4  A    between atoms: C_2  and  C_5
REMARK    5  A    between atoms: C_8  and  O_11
REMARK    6  A    between atoms: O_11  and  C_12
REMARK    7  A    between atoms: C_12  and  C_13
REMARK    8  A    between atoms: C_16  and  S_19
REMARK    9  A    between atoms: N_17  and  N_18
REMARK   10  A    between atoms: S_19  and  C_20
REMARK   11  A    between atoms: C_20  and  C_21
REMARK   12  A    between atoms: N_23  and  C_24
REMARK                            x       y       z     vdW  Elec       q    Type
REMARK                         _______ _______ _______ _____ _____    ______ ____
ROOT
ATOM      1  C   UNL     1     -11.019   0.057   2.570  0.00  0.00    +0.189 A 
ATOM      2  N   UNL     1     -10.537  -0.431   1.463  0.00  0.00    -0.128 NA
ATOM      3  N   UNL     1      -9.315  -0.061   1.312  0.00  0.00    -0.121 NA
ATOM      4  C   UNL     1      -8.947   0.684   2.329  0.00  0.00    +0.209 A 
ATOM      5  N   UNL     1     -10.024   0.785   3.162  0.00  0.00    -0.225 N 
ENDROOT
BRANCH   5   6
ATOM      6  N   UNL     1     -10.093   1.471   4.341  0.00  0.00    -0.295 N 
ATOM      7  H   UNL     1      -9.215   2.022   4.710  0.00  0.00    +0.163 HD
ATOM      8  H   UNL     1     -11.027   1.474   4.922  0.00  0.00    +0.163 HD
ENDBRANCH   5   6
BRANCH   1   9
ATOM      9  C   UNL     1     -12.415  -0.143   3.101  0.00  0.00    +0.306 C 
BRANCH   9  10
ATOM     10  O   UNL     1     -13.266   0.892   2.606  0.00  0.00    -0.484 OA
BRANCH  10  14
ATOM     11  C   UNL     1     -17.220   0.790   3.780  0.00  0.00    -0.042 A 
ATOM     12  C   UNL     1     -16.774   1.796   2.944  0.00  0.00    +0.008 A 
ATOM     13  C   UNL     1     -15.451   1.833   2.549  0.00  0.00    +0.046 A 
ATOM     14  C   UNL     1     -14.569   0.859   2.993  0.00  0.00    +0.121 A 
ATOM     15  C   UNL     1     -15.020  -0.154   3.827  0.00  0.00    +0.046 A 
ATOM     16  C   UNL     1     -16.343  -0.182   4.224  0.00  0.00    +0.008 A 
BRANCH  11  18
ATOM     17  C   UNL     1     -19.560   0.632   2.975  0.00  0.00    +0.015 C 
ATOM     18  C   UNL     1     -18.664   0.752   4.209  0.00  0.00    -0.013 C 
ATOM     19  C   UNL     1     -18.893  -0.452   5.125  0.00  0.00    +0.015 C 
ATOM     20  C   UNL     1     -19.005   2.039   4.963  0.00  0.00    +0.015 C 
ENDBRANCH  11  18
ENDBRANCH  10  14
ENDBRANCH   9  10
ENDBRANCH   1   9
BRANCH   4  21
ATOM     21  S   UNL     1      -7.364   1.420   2.569  0.00  0.00    -0.075 S 
BRANCH  21  22
ATOM     22  C   UNL     1      -6.517   0.837   1.080  0.00  0.00    +0.173 C 
BRANCH  22  23
ATOM     23  C   UNL     1      -5.103   1.358   1.069  0.00  0.00    +0.224 C 
ATOM     24  O   UNL     1      -4.707   2.056   1.979  0.00  0.00    -0.275 OA
ATOM     25  N   UNL     1      -4.279   1.049   0.049  0.00  0.00    -0.309 N 
ATOM     26  H   UNL     1      -4.638   0.417  -0.776  0.00  0.00    +0.149 HD
BRANCH  25  27
ATOM     27  C   UNL     1      -2.904   1.556   0.038  0.00  0.00    +0.035 C 
ATOM     28  C   UNL     1      -2.188   1.063  -1.221  0.00  0.00    +0.029 C 
ATOM     29  C   UNL     1      -0.753   1.593  -1.232  0.00  0.00    -0.008 C 
ATOM     30  C   UNL     1      -0.013   1.086   0.008  0.00  0.00    +0.007 C 
ATOM     31  C   UNL     1      -0.729   1.579   1.267  0.00  0.00    -0.008 C 
ATOM     32  C   UNL     1      -2.164   1.050   1.278  0.00  0.00    +0.029 C 
ATOM     33  C   UNL     1      -0.750   3.109   1.275  0.00  0.00    +0.007 C 
ATOM     34  C   UNL     1      -1.490   3.616   0.036  0.00  0.00    -0.008 C 
ATOM     35  C   UNL     1      -0.773   3.123  -1.223  0.00  0.00    +0.007 C 
ATOM     36  C   UNL     1      -2.925   3.086   0.047  0.00  0.00    +0.029 C 
ENDBRANCH  25  27
ENDBRANCH  22  23
ENDBRANCH  21  22
ENDBRANCH   4  21
TORSDOF 9
