REMARK  Name = ZINC39634737
REMARK  12 active torsions:
REMARK  status: ('A' for Active; 'I' for Inactive)
REMARK    1  A    between atoms: C_1  and  C_2
REMARK    2  A    between atoms: C_2  and  C_3
REMARK    3  A    between atoms: C_2  and  N_4
REMARK    4  A    between atoms: N_4  and  C_5
REMARK    5  A    between atoms: N_4  and  C_34
REMARK    6  A    between atoms: C_5  and  C_6
REMARK    7  A    between atoms: C_6  and  N_7
REMARK    8  A    between atoms: C_8  and  C_10
REMARK    9  A    between atoms: C_21  and  C_23
REMARK   10  A    between atoms: C_26  and  C_30
REMARK   11  A    between atoms: C_34  and  C_35
REMARK   12  A    between atoms: C_34  and  C_36
REMARK                            x       y       z     vdW  Elec       q    Type
REMARK                         _______ _______ _______ _____ _____    ______ ____
ROOT
ATOM      1  C   UNL     1      -1.316   4.142   4.638  0.00  0.00    +0.100 C 
ATOM      2  C   UNL     1      -2.752   3.849   5.127  0.00  0.00    +0.121 C 
ATOM      3  N   UNL     1      -3.251   5.151   5.627  0.00  0.00    -0.296 N 
ATOM      4  C   UNL     1      -2.726   6.144   4.659  0.00  0.00    +0.115 C 
ATOM      5  C   UNL     1      -1.304   5.649   4.331  0.00  0.00    -0.004 C 
ATOM      6  C   UNL     1      -0.990   5.885   2.856  0.00  0.00    -0.010 C 
ATOM      7  C   UNL     1      -0.925   7.391   2.588  0.00  0.00    -0.082 C 
ATOM      8  N   UNL     1       0.112   7.997   3.432  0.00  0.00    +0.379 N 
ATOM      9  C   UNL     1      -0.245   7.846   4.848  0.00  0.00    -0.082 C 
ATOM     10  C   UNL     1      -0.281   6.359   5.212  0.00  0.00    -0.010 C 
ATOM     11  C   UNL     1      -4.009   5.382   6.717  0.00  0.00    +0.247 C 
ATOM     12  O   UNL     1      -4.274   4.471   7.477  0.00  0.00    -0.270 OA
ATOM     13  H   UNL     1       0.994   7.539   3.259  0.00  0.00    -0.086 HD
ATOM     14  H   UNL     1       0.195   8.977   3.210  0.00  0.00    -0.086 HD
ENDROOT
BRANCH  11  15
ATOM     15  C   UNL     1      -4.518   6.743   6.989  0.00  0.00    +0.040 A 
ATOM     16  C   UNL     1      -4.609   7.677   5.955  0.00  0.00    +0.014 A 
ATOM     17  C   UNL     1      -5.085   8.945   6.214  0.00  0.00    +0.016 A 
ATOM     18  C   UNL     1      -5.473   9.295   7.495  0.00  0.00    +0.090 A 
ATOM     19  C   UNL     1      -5.385   8.374   8.527  0.00  0.00    +0.136 A 
ATOM     20  C   UNL     1      -4.915   7.098   8.279  0.00  0.00    +0.052 A 
ATOM     21  F   UNL     1      -5.764   8.723   9.776  0.00  0.00    -0.205 F 
BRANCH  18  22
ATOM     22  C   UNL     1      -5.992  10.683   7.770  0.00  0.00    +0.420 C 
ATOM     23  F   UNL     1      -5.987  11.425   6.584  0.00  0.00    -0.166 F 
ATOM     24  F   UNL     1      -7.298  10.603   8.265  0.00  0.00    -0.166 F 
ATOM     25  F   UNL     1      -5.172  11.309   8.715  0.00  0.00    -0.166 F 
ENDBRANCH  18  22
ENDBRANCH  11  15
BRANCH   1  27
ATOM     26  N   UNL     1       0.250   2.964   3.129  0.00  0.00    -0.317 N 
ATOM     27  C   UNL     1      -1.014   3.350   3.392  0.00  0.00    +0.218 C 
ATOM     28  O   UNL     1      -1.909   3.060   2.626  0.00  0.00    -0.275 OA
ATOM     29  H   UNL     1       0.965   3.196   3.741  0.00  0.00    +0.149 HD
BRANCH  26  30
ATOM     30  C   UNL     1       0.543   2.194   1.917  0.00  0.00    +0.085 C 
BRANCH  30  31
ATOM     31  C   UNL     1       2.041   1.886   1.859  0.00  0.00    -0.059 C 
BRANCH  31  32
ATOM     32  N   UNL     1       2.363   1.264   0.568  0.00  0.00    +0.384 N 
ATOM     33  H   UNL     1       2.029   1.851  -0.181  0.00  0.00    -0.081 HD
BRANCH  32  35
ATOM     34  C   UNL     1       1.574  -0.642   1.889  0.00  0.00    -0.014 C 
ATOM     35  C   UNL     1       1.716  -0.052   0.484  0.00  0.00    -0.074 C 
ATOM     36  C   UNL     1       0.331   0.100  -0.148  0.00  0.00    -0.014 C 
ENDBRANCH  32  35
BRANCH  32  37
ATOM     37  C   UNL     1       3.819   1.102   0.452  0.00  0.00    -0.074 C 
ATOM     38  C   UNL     1       4.166   0.602  -0.952  0.00  0.00    -0.014 C 
ATOM     39  C   UNL     1       4.503   2.449   0.697  0.00  0.00    -0.014 C 
ENDBRANCH  32  37
ENDBRANCH  31  32
ENDBRANCH  30  31
ENDBRANCH  26  30
ENDBRANCH   1  27
TORSDOF 8
