REMARK  Name = ZINC08740108
REMARK  15 active torsions:
REMARK  status: ('A' for Active; 'I' for Inactive)
REMARK    1  A    between atoms: C_1  and  C_2
REMARK    2  A    between atoms: C_2  and  O_3
REMARK    3  A    between atoms: O_3  and  C_4
REMARK    4  A    between atoms: N_6  and  N_7
REMARK    5  A    between atoms: C_8  and  C_9
REMARK    6  A    between atoms: C_8  and  C_10
REMARK    7  A    between atoms: C_10  and  O_42
REMARK    8  A    between atoms: C_11  and  O_38
REMARK    9  A    between atoms: C_16  and  C_37
REMARK   10  A    between atoms: C_26  and  C_36
REMARK   11  A    between atoms: C_29  and  O_32
REMARK   12  A    between atoms: O_32  and  C_33
REMARK   13  A    between atoms: C_33  and  C_35
REMARK   14  A    between atoms: O_38  and  C_39
REMARK   15  A    between atoms: C_39  and  C_41
REMARK                            x       y       z     vdW  Elec       q    Type
REMARK                         _______ _______ _______ _____ _____    ______ ____
ROOT
ATOM      1  C   UNL     1       2.877  -2.478  -1.856  0.00  0.00    +0.147 C 
ATOM      2  C   UNL     1       1.575  -2.940  -2.542  0.00  0.00    +0.214 C 
ATOM      3  C   UNL     1       0.429  -2.643  -1.551  0.00  0.00    +0.052 C 
ATOM      4  C   UNL     1       0.994  -1.495  -0.662  0.00  0.00    +0.005 C 
ATOM      5  C   UNL     1       2.458  -1.925  -0.471  0.00  0.00    +0.009 C 
ATOM      6  C   UNL     1       3.339  -0.799   0.020  0.00  0.00    +0.010 C 
ATOM      7  C   UNL     1       3.232   0.412  -0.904  0.00  0.00    +0.005 C 
ATOM      8  C   UNL     1       1.787   0.890  -0.932  0.00  0.00    +0.003 C 
ATOM      9  C   UNL     1       0.890  -0.213  -1.494  0.00  0.00    +0.001 C 
ATOM     10  C   UNL     1      -0.567   0.269  -1.427  0.00  0.00    +0.031 C 
ATOM     11  C   UNL     1      -0.696   1.613  -2.077  0.00  0.00    -0.027 C 
ATOM     12  C   UNL     1       0.300   2.420  -2.260  0.00  0.00    -0.064 C 
ATOM     13  C   UNL     1       1.708   2.125  -1.824  0.00  0.00    -0.008 C 
ATOM     14  C   UNL     1       2.591   1.958  -3.059  0.00  0.00    +0.015 C 
ATOM     15  C   UNL     1       2.028   2.775  -4.221  0.00  0.00    +0.046 C 
ATOM     16  C   UNL     1       1.383   4.067  -3.723  0.00  0.00    +0.180 C 
ATOM     17  C   UNL     1       0.077   3.737  -2.987  0.00  0.00    +0.075 C 
ATOM     18  C   UNL     1       2.230   3.326  -1.033  0.00  0.00    +0.016 C 
ATOM     19  C   UNL     1       2.513  -3.061   0.553  0.00  0.00    +0.015 C 
ENDROOT
BRANCH   1  21
ATOM     20  N   UNL     1       5.082  -3.442  -1.647  0.00  0.00    -0.184 NA
ATOM     21  C   UNL     1       3.819  -3.642  -1.690  0.00  0.00    +0.069 C 
ATOM     22  C   UNL     1       3.273  -5.042  -1.573  0.00  0.00    +0.065 C 
BRANCH  20  25
ATOM     23  C   UNL     1       6.912  -1.919  -1.675  0.00  0.00    +0.420 C 
ATOM     24  O   UNL     1       7.347  -0.785  -1.635  0.00  0.00    -0.225 OA
ATOM     25  N   UNL     1       5.584  -2.135  -1.600  0.00  0.00    -0.172 N 
ATOM     26  H   UNL     1       4.975  -1.385  -1.514  0.00  0.00    +0.181 HD
BRANCH  23  27
ATOM     27  O   UNL     1       7.758  -2.961  -1.794  0.00  0.00    -0.450 OA
BRANCH  27  29
ATOM     28  C   UNL     1       9.972  -3.954  -2.001  0.00  0.00    +0.048 C 
ATOM     29  C   UNL     1       9.175  -2.654  -1.869  0.00  0.00    +0.230 C 
ENDBRANCH  27  29
ENDBRANCH  23  27
ENDBRANCH  20  25
ENDBRANCH   1  21
BRANCH   1  30
ATOM     30  O   UNL     1       3.500  -1.447  -2.625  0.00  0.00    -0.378 OA
ATOM     31  H   UNL     1       3.758  -1.722  -3.515  0.00  0.00    +0.211 HD
ENDBRANCH   1  30
BRANCH  16  32
ATOM     32  O   UNL     1       2.292   4.744  -2.815  0.00  0.00    -0.461 OA
BRANCH  32  33
ATOM     33  C   UNL     1       2.220   6.083  -2.766  0.00  0.00    +0.304 C 
ATOM     34  O   UNL     1       1.423   6.671  -3.458  0.00  0.00    -0.251 OA
ATOM     35  C   UNL     1       3.133   6.854  -1.847  0.00  0.00    +0.136 C 
ENDBRANCH  32  33
ENDBRANCH  16  32
BRANCH   2  36
ATOM     36  O   UNL     1       1.372  -2.201  -3.775  0.00  0.00    -0.458 OA
BRANCH  36  37
ATOM     37  C   UNL     1       0.688  -2.819  -4.751  0.00  0.00    +0.304 C 
ATOM     38  O   UNL     1       0.273  -3.941  -4.580  0.00  0.00    -0.251 OA
ATOM     39  C   UNL     1       0.438  -2.114  -6.059  0.00  0.00    +0.136 C 
ENDBRANCH  36  37
ENDBRANCH   2  36
TORSDOF 9
