REMARK  Name = ZINC65924648
REMARK  2 active torsions:
REMARK  status: ('A' for Active; 'I' for Inactive)
REMARK    1  A    between atoms: C_6  and  N_7
REMARK    2  A    between atoms: C_11  and  C_14
REMARK                            x       y       z     vdW  Elec       q    Type
REMARK                         _______ _______ _______ _____ _____    ______ ____
ROOT
ATOM      1  C   UNL     1       0.019   1.357   0.626  0.00  0.00    +0.035 A 
ATOM      2  C   UNL     1       1.212   2.024   0.795  0.00  0.00    +0.028 A 
ATOM      3  C   UNL     1       2.408   1.397   0.459  0.00  0.00    +0.047 A 
ATOM      4  C   UNL     1       2.382   0.084  -0.051  0.00  0.00    +0.003 A 
ATOM      5  C   UNL     1       1.156  -0.572  -0.215  0.00  0.00    +0.042 A 
ATOM      6  C   UNL     1      -0.004   0.063   0.122  0.00  0.00    +0.127 A 
ATOM      7  C   UNL     1       3.725  -0.288  -0.300  0.00  0.00    +0.041 A 
ATOM      8  C   UNL     1       4.517   0.759   0.049  0.00  0.00    +0.103 A 
ATOM      9  N   UNL     1       3.724   1.791   0.512  0.00  0.00    -0.351 N 
ATOM     10  H   UNL     1       4.044   2.652   0.824  0.00  0.00    +0.166 HD
ENDROOT
BRANCH   8  11
ATOM     11  C   UNL     1       5.984   0.790  -0.052  0.00  0.00    +0.263 C 
ATOM     12  O   UNL     1       6.616  -0.249  -0.043  0.00  0.00    -0.268 OA
ATOM     13  N   UNL     1       6.628   1.969  -0.154  0.00  0.00    -0.293 N 
ATOM     14  C   UNL     1       5.851   3.176  -0.131  0.00  0.00    +0.112 C 
ATOM     15  C   UNL     1       6.423   4.258  -0.995  0.00  0.00    +0.007 C 
ATOM     16  C   UNL     1       6.838   3.759  -2.369  0.00  0.00    +0.008 C 
ATOM     17  C   UNL     1       8.254   3.222  -2.436  0.00  0.00    -0.009 C 
ATOM     18  C   UNL     1       9.245   4.208  -1.812  0.00  0.00    +0.007 C 
ATOM     19  C   UNL     1       8.824   4.413  -0.355  0.00  0.00    -0.009 C 
ATOM     20  C   UNL     1       7.467   5.119  -0.343  0.00  0.00    +0.008 C 
ATOM     21  C   UNL     1       8.770   3.105   0.399  0.00  0.00    +0.026 C 
ATOM     22  C   UNL     1       8.075   1.958  -0.276  0.00  0.00    +0.077 C 
ATOM     23  C   UNL     1       8.425   1.865  -1.767  0.00  0.00    +0.026 C 
ENDBRANCH   8  11
BRANCH   6  24
ATOM     24  N   UNL     1      -1.299  -0.633  -0.051  0.00  0.00    +0.056 N 
ATOM     25  O   UNL     1      -2.330  -0.076   0.246  0.00  0.00    -0.126 OA
ATOM     26  O   UNL     1      -1.325  -1.760  -0.489  0.00  0.00    -0.126 OA
ENDBRANCH   6  24
TORSDOF 2
