REMARK  Name = ZINC06963540
REMARK  4 active torsions:
REMARK  status: ('A' for Active; 'I' for Inactive)
REMARK    1  A    between atoms: C_1  and  C_2
REMARK    2  A    between atoms: C_4  and  N_28
REMARK    3  A    between atoms: C_9  and  C_18
REMARK    4  A    between atoms: C_20  and  N_25
REMARK                            x       y       z     vdW  Elec       q    Type
REMARK                         _______ _______ _______ _____ _____    ______ ____
ROOT
ATOM      1  C   UNL     1      -2.805   3.769  -5.188  0.00  0.00    +0.046 C 
ATOM      2  C   UNL     1      -2.894   4.043  -3.708  0.00  0.00    -0.027 A 
ATOM      3  C   UNL     1      -3.845   4.920  -3.235  0.00  0.00    +0.038 A 
ATOM      4  C   UNL     1      -3.940   5.179  -1.880  0.00  0.00    +0.127 A 
ATOM      5  C   UNL     1      -3.071   4.558  -1.003  0.00  0.00    +0.038 A 
ATOM      6  C   UNL     1      -2.112   3.684  -1.469  0.00  0.00    -0.017 A 
ATOM      7  C   UNL     1      -2.014   3.403  -2.835  0.00  0.00    +0.034 A 
ATOM      8  N   UNL     1      -1.091   2.516  -3.385  0.00  0.00    -0.336 N 
ATOM      9  C   UNL     1      -0.104   1.930  -2.463  0.00  0.00    +0.106 C 
ATOM     10  C   UNL     1      -0.830   1.631  -1.168  0.00  0.00    +0.029 C 
ATOM     11  C   UNL     1      -1.144   3.033  -0.558  0.00  0.00    +0.049 C 
ATOM     12  C   UNL     1      -1.465   2.719   0.856  0.00  0.00    -0.023 C 
ATOM     13  C   UNL     1      -0.807   1.618   1.204  0.00  0.00    -0.030 C 
ATOM     14  C   UNL     1      -0.013   1.086   0.008  0.00  0.00    +0.033 C 
ATOM     15  H   UNL     1      -1.555   1.798  -3.922  0.00  0.00    +0.147 HD
ENDROOT
BRANCH   9  16
ATOM     16  C   UNL     1       1.012   2.911  -2.212  0.00  0.00    -0.007 A 
ATOM     17  C   UNL     1       0.802   4.263  -2.407  0.00  0.00    +0.039 A 
ATOM     18  C   UNL     1       1.826   5.162  -2.176  0.00  0.00    +0.127 A 
ATOM     19  C   UNL     1       3.061   4.710  -1.749  0.00  0.00    +0.034 A 
ATOM     20  C   UNL     1       3.272   3.359  -1.553  0.00  0.00    +0.022 A 
ATOM     21  C   UNL     1       2.246   2.458  -1.779  0.00  0.00    +0.046 A 
ATOM     22 CL   UNL     1       2.508   0.761  -1.526  0.00  0.00    -0.083 Cl
BRANCH  18  23
ATOM     23  N   UNL     1       1.600   6.610  -2.387  0.00  0.00    +0.056 N 
ATOM     24  O   UNL     1       0.512   7.008  -2.763  0.00  0.00    -0.126 OA
ATOM     25  O   UNL     1       2.502   7.403  -2.183  0.00  0.00    -0.126 OA
ENDBRANCH  18  23
ENDBRANCH   9  16
BRANCH   4  26
ATOM     26  N   UNL     1      -4.966   6.117  -1.372  0.00  0.00    +0.056 N 
ATOM     27  O   UNL     1      -5.730   6.662  -2.148  0.00  0.00    -0.126 OA
ATOM     28  O   UNL     1      -5.047   6.342  -0.178  0.00  0.00    -0.126 OA
ENDBRANCH   4  26
TORSDOF 3
