REMARK  Name = ZINC10475107
REMARK  10 active torsions:
REMARK  status: ('A' for Active; 'I' for Inactive)
REMARK    1  A    between atoms: C_4  and  C_7
REMARK    2  A    between atoms: C_7  and  O_8
REMARK    3  A    between atoms: O_8  and  C_9
REMARK    4  A    between atoms: C_12  and  C_16
REMARK    5  A    between atoms: C_16  and  N_50
REMARK    6  A    between atoms: C_17  and  C_18
REMARK    7  A    between atoms: C_17  and  N_50
REMARK    8  A    between atoms: C_18  and  N_19
REMARK    9  A    between atoms: N_19  and  C_20
REMARK   10  A    between atoms: C_23  and  N_27
REMARK                            x       y       z     vdW  Elec       q    Type
REMARK                         _______ _______ _______ _____ _____    ______ ____
ROOT
ATOM      1  N   UNL     1      -0.732   1.579  -1.182  0.00  0.00    +0.383 N 
ATOM      2  H   UNL     1      -0.746   2.605  -1.168  0.00  0.00    -0.085 HD
ATOM      3  H   UNL     1      -1.695   1.223  -1.167  0.00  0.00    -0.085 HD
ENDROOT
BRANCH   1   4
ATOM      4  C   UNL     1      -0.013   1.086   0.008  0.00  0.00    -0.047 C 
BRANCH   4   8
ATOM      5  C   UNL     1      -2.013   2.465   3.524  0.00  0.00    +0.135 A 
ATOM      6  C   UNL     1      -1.008   3.230   2.951  0.00  0.00    +0.047 A 
ATOM      7  C   UNL     1      -0.359   2.779   1.818  0.00  0.00    +0.005 A 
ATOM      8  C   UNL     1      -0.718   1.572   1.248  0.00  0.00    -0.063 A 
ATOM      9  C   UNL     1      -1.719   0.807   1.817  0.00  0.00    +0.020 A 
ATOM     10  C   UNL     1      -2.368   1.251   2.954  0.00  0.00    +0.060 A 
ATOM     11 BR   UNL     1      -3.737   0.204   3.732  0.00  0.00    -0.047 Br
BRANCH   5  12
ATOM     12  O   UNL     1      -2.649   2.904   4.642  0.00  0.00    -0.486 OA
BRANCH  12  13
ATOM     13  C   UNL     1      -2.231   4.163   5.175  0.00  0.00    +0.264 C 
BRANCH  13  17
ATOM     14  C   UNL     1      -4.530   5.070   8.659  0.00  0.00    +0.000 A 
ATOM     15  C   UNL     1      -3.346   4.366   8.776  0.00  0.00    +0.000 A 
ATOM     16  C   UNL     1      -2.602   4.072   7.648  0.00  0.00    +0.007 A 
ATOM     17  C   UNL     1      -3.042   4.483   6.404  0.00  0.00    -0.010 A 
ATOM     18  C   UNL     1      -4.223   5.192   6.287  0.00  0.00    +0.007 A 
ATOM     19  C   UNL     1      -4.970   5.480   7.414  0.00  0.00    +0.000 A 
ENDBRANCH  13  17
ENDBRANCH  12  13
ENDBRANCH   5  12
ENDBRANCH   4   8
ENDBRANCH   1   4
BRANCH   1  20
ATOM     20  C   UNL     1      -0.062   1.117  -2.413  0.00  0.00    -0.063 C 
BRANCH  20  21
ATOM     21  C   UNL     1      -0.829   1.643  -3.628  0.00  0.00    +0.082 C 
BRANCH  21  22
ATOM     22  N   UNL     1      -0.171   1.188  -4.855  0.00  0.00    -0.345 N 
ATOM     23  H   UNL     1       0.628   0.640  -4.802  0.00  0.00    +0.146 HD
BRANCH  22  24
ATOM     24  C   UNL     1      -0.692   1.545  -6.101  0.00  0.00    +0.046 A 
ATOM     25  C   UNL     1      -1.835   2.330  -6.178  0.00  0.00    +0.026 A 
ATOM     26  C   UNL     1      -2.348   2.681  -7.412  0.00  0.00    +0.034 A 
ATOM     27  C   UNL     1      -1.726   2.252  -8.570  0.00  0.00    +0.128 A 
ATOM     28  C   UNL     1      -0.587   1.470  -8.497  0.00  0.00    +0.054 A 
ATOM     29  C   UNL     1      -0.065   1.120  -7.266  0.00  0.00    +0.064 A 
ATOM     30 CL   UNL     1       1.368   0.145  -7.176  0.00  0.00    -0.082 Cl
BRANCH  27  31
ATOM     31  N   UNL     1      -2.278   2.631  -9.889  0.00  0.00    +0.056 N 
ATOM     32  O   UNL     1      -3.281   3.320  -9.955  0.00  0.00    -0.126 OA
ATOM     33  O   UNL     1      -1.731   2.254 -10.910  0.00  0.00    -0.126 OA
ENDBRANCH  27  31
ENDBRANCH  22  24
ENDBRANCH  21  22
ENDBRANCH  20  21
ENDBRANCH   1  20
TORSDOF 10
