REMARK  Name = ZINC13140320
REMARK  12 active torsions:
REMARK  status: ('A' for Active; 'I' for Inactive)
REMARK    1  A    between atoms: C_1  and  C_2
REMARK    2  A    between atoms: C_2  and  C_4
REMARK    3  A    between atoms: C_2  and  O_15
REMARK    4  A    between atoms: N_6  and  C_7
REMARK    5  A    between atoms: C_7  and  C_8
REMARK    6  A    between atoms: C_8  and  C_9
REMARK    7  A    between atoms: O_15  and  C_16
REMARK    8  A    between atoms: C_16  and  C_18
REMARK    9  A    between atoms: C_23  and  S_24
REMARK   10  A    between atoms: S_24  and  C_25
REMARK   11  A    between atoms: C_25  and  C_26
REMARK   12  A    between atoms: N_28  and  C_29
REMARK                            x       y       z     vdW  Elec       q    Type
REMARK                         _______ _______ _______ _____ _____    ______ ____
ROOT
ATOM      1  C   UNL     1       9.136  -4.363   5.692  0.00  0.00    +0.072 A 
ATOM      2  C   UNL     1      10.403  -4.195   6.257  0.00  0.00    +0.016 A 
ATOM      3  C   UNL     1      11.060  -2.991   6.125  0.00  0.00    +0.001 A 
ATOM      4  C   UNL     1      10.472  -1.944   5.433  0.00  0.00    +0.001 A 
ATOM      5  C   UNL     1       9.224  -2.095   4.865  0.00  0.00    +0.015 A 
ATOM      6  C   UNL     1       8.542  -3.300   4.992  0.00  0.00    +0.022 A 
ENDROOT
BRANCH   1   7
ATOM      7  C   UNL     1       8.428  -5.647   5.829  0.00  0.00    +0.341 C 
ATOM      8  O   UNL     1       7.326  -5.789   5.336  0.00  0.00    -0.245 OA
BRANCH   7   9
ATOM      9  O   UNL     1       9.002  -6.664   6.502  0.00  0.00    -0.449 OA
BRANCH   9  11
ATOM     10  C   UNL     1       7.373  -7.870   7.853  0.00  0.00    +0.062 C 
ATOM     11  C   UNL     1       8.246  -7.901   6.597  0.00  0.00    +0.259 C 
BRANCH  11  12
ATOM     12  C   UNL     1       9.198  -9.066   6.676  0.00  0.00    +0.254 C 
ATOM     13  O   UNL     1      10.393  -8.870   6.745  0.00  0.00    -0.272 OA
ATOM     14  N   UNL     1       8.722 -10.327   6.669  0.00  0.00    -0.312 N 
ATOM     15  H   UNL     1       7.766 -10.484   6.613  0.00  0.00    +0.149 HD
BRANCH  14  16
ATOM     16  C   UNL     1       9.647 -11.460   6.745  0.00  0.00    +0.108 C 
BRANCH  16  17
ATOM     17  C   UNL     1       8.855 -12.769   6.720  0.00  0.00    +0.049 C 
BRANCH  17  18
ATOM     18  C   UNL     1       9.807 -13.934   6.799  0.00  0.00    -0.072 C 
ATOM     19  C   UNL     1      10.044 -14.447   7.963  0.00  0.00    -0.028 C 
ATOM     20  C   UNL     1      10.973 -15.601   8.201  0.00  0.00    +0.027 C 
ATOM     21  C   UNL     1      11.250 -16.334   6.887  0.00  0.00    +0.004 C 
ATOM     22  C   UNL     1      11.643 -15.297   5.826  0.00  0.00    +0.005 C 
ATOM     23  C   UNL     1      10.416 -14.432   5.521  0.00  0.00    +0.030 C 
ENDBRANCH  17  18
ENDBRANCH  16  17
ENDBRANCH  14  16
ENDBRANCH  11  12
ENDBRANCH   9  11
ENDBRANCH   7   9
ENDBRANCH   1   7
BRANCH   6  24
ATOM     24  S   UNL     1       6.945  -3.494   4.273  0.00  0.00    -0.115 S 
BRANCH  24  25
ATOM     25  C   UNL     1       6.729  -1.853   3.541  0.00  0.00    +0.170 C 
BRANCH  25  26
ATOM     26  C   UNL     1       5.391  -1.784   2.850  0.00  0.00    +0.227 C 
ATOM     27  O   UNL     1       4.656  -2.749   2.853  0.00  0.00    -0.275 OA
ATOM     28  N   UNL     1       5.011  -0.649   2.229  0.00  0.00    -0.285 N 
ATOM     29  H   UNL     1       5.628   0.096   2.160  0.00  0.00    +0.155 HD
BRANCH  28  30
ATOM     30  C   UNL     1       3.725  -0.547   1.683  0.00  0.00    +0.037 A 
ATOM     31  C   UNL     1       2.658  -1.191   2.294  0.00  0.00    +0.027 A 
ATOM     32  C   UNL     1       1.388  -1.090   1.757  0.00  0.00    +0.051 A 
ATOM     33  C   UNL     1       1.177  -0.347   0.608  0.00  0.00    +0.166 A 
ATOM     34  C   UNL     1       2.246   0.301  -0.008  0.00  0.00    +0.168 A 
ATOM     35  C   UNL     1       3.517   0.199   0.531  0.00  0.00    +0.072 A 
ATOM     36  O   UNL     1       1.781   0.959  -1.110  0.00  0.00    -0.453 OA
ATOM     37  C   UNL     1       0.355   1.044  -0.934  0.00  0.00    +0.466 C 
ATOM     38  O   UNL     1       0.043  -0.094  -0.110  0.00  0.00    -0.453 OA
ENDBRANCH  28  30
ENDBRANCH  25  26
ENDBRANCH  24  25
ENDBRANCH   6  24
TORSDOF 11
