REMARK  Name = ZINC00891872
REMARK  6 active torsions:
REMARK  status: ('A' for Active; 'I' for Inactive)
REMARK    1  A    between atoms: C_4  and  S_7
REMARK    2  A    between atoms: S_7  and  N_10
REMARK    3  A    between atoms: N_10  and  C_11
REMARK    4  A    between atoms: C_23  and  N_48
REMARK    5  A    between atoms: C_25  and  C_26
REMARK    6  A    between atoms: C_25  and  N_48
REMARK                            x       y       z     vdW  Elec       q    Type
REMARK                         _______ _______ _______ _____ _____    ______ ____
ROOT
ATOM      1  C   UNL     1      -0.335   5.359   0.032  0.00  0.00    +0.097 C 
ATOM      2  C   UNL     1       0.013   3.890   0.022  0.00  0.00    -0.022 A 
ATOM      3  C   UNL     1       1.176   3.183   0.008  0.00  0.00    +0.006 A 
ATOM      4  C   UNL     1       1.153   1.786   0.001  0.00  0.00    +0.001 A 
ATOM      5  C   UNL     1      -0.013   1.076   0.008  0.00  0.00    +0.008 A 
ATOM      6  C   UNL     1      -1.231   1.774   0.017  0.00  0.00    -0.017 A 
ATOM      7  C   UNL     1      -1.182   3.179   0.029  0.00  0.00    -0.012 A 
ATOM      8  C   UNL     1      -2.327   3.971   0.043  0.00  0.00    -0.052 A 
ATOM      9  C   UNL     1      -3.536   3.345   0.036  0.00  0.00    +0.003 A 
ATOM     10  C   UNL     1      -3.609   1.950   0.030  0.00  0.00    +0.001 A 
ATOM     11  C   UNL     1      -2.495   1.161   0.020  0.00  0.00    +0.008 A 
ATOM     12  C   UNL     1      -1.878   5.412   0.046  0.00  0.00    -0.016 C 
ENDROOT
BRANCH  12  13
ATOM     13  N   UNL     1      -2.348   6.092   1.268  0.00  0.00    +0.390 N 
ATOM     14  H   UNL     1      -1.712   6.867   1.489  0.00  0.00    -0.084 HD
ATOM     15  H   UNL     1      -2.355   5.422   2.046  0.00  0.00    -0.084 HD
BRANCH  13  16
ATOM     16  C   UNL     1      -3.710   6.621   1.068  0.00  0.00    -0.006 C 
BRANCH  16  17
ATOM     17  C   UNL     1      -4.163   7.309   2.330  0.00  0.00    +0.088 A 
ATOM     18  C   UNL     1      -3.980   8.608   2.627  0.00  0.00    +0.042 A 
ATOM     19  C   UNL     1      -4.558   8.823   3.900  0.00  0.00    +0.041 A 
ATOM     20  C   UNL     1      -5.059   7.641   4.304  0.00  0.00    +0.195 A 
ATOM     21  O   UNL     1      -4.821   6.730   3.347  0.00  0.00    -0.470 OA
ENDBRANCH  16  17
ENDBRANCH  13  16
ENDBRANCH  12  13
BRANCH   1  22
ATOM     22  N   UNL     1       0.206   6.001   1.233  0.00  0.00    -0.184 NA
ATOM     23  H   UNL     1      -0.286   5.960   2.068  0.00  0.00    +0.149 HD
BRANCH  22  24
ATOM     24  S   UNL     1       1.657   6.795   1.164  0.00  0.00    +0.059 S 
ATOM     25  O   UNL     1       1.892   7.325   2.462  0.00  0.00    -0.153 OA
ATOM     26  O   UNL     1       2.572   5.917   0.523  0.00  0.00    -0.153 OA
BRANCH  24  30
ATOM     27  C   UNL     1       1.115  10.339  -1.600  0.00  0.00    +0.000 A 
ATOM     28  C   UNL     1       0.871  10.474  -0.246  0.00  0.00    +0.002 A 
ATOM     29  C   UNL     1       1.036   9.392   0.598  0.00  0.00    +0.028 A 
ATOM     30  C   UNL     1       1.446   8.175   0.088  0.00  0.00    +0.105 A 
ATOM     31  C   UNL     1       1.695   8.040  -1.265  0.00  0.00    +0.028 A 
ATOM     32  C   UNL     1       1.525   9.121  -2.110  0.00  0.00    +0.002 A 
ENDBRANCH  24  30
ENDBRANCH  22  24
ENDBRANCH   1  22
TORSDOF 6
