REMARK  Name = ZINC00793205
REMARK  7 active torsions:
REMARK  status: ('A' for Active; 'I' for Inactive)
REMARK    1  A    between atoms: C_1  and  C_2
REMARK    2  A    between atoms: N_4  and  C_5
REMARK    3  A    between atoms: C_8  and  C_11
REMARK    4  A    between atoms: C_13  and  C_26
REMARK    5  A    between atoms: C_14  and  N_25
REMARK    6  A    between atoms: C_21  and  C_23
REMARK    7  A    between atoms: C_21  and  C_24
REMARK                            x       y       z     vdW  Elec       q    Type
REMARK                         _______ _______ _______ _____ _____    ______ ____
ROOT
ATOM      1  C   UNL     1      -5.935  -1.221   0.390  0.00  0.00    +0.101 C 
ATOM      2  C   UNL     1      -6.016  -2.155  -0.784  0.00  0.00    +0.098 C 
ATOM      3  C   UNL     1      -5.695  -3.464  -0.642  0.00  0.00    +0.198 C 
ATOM      4  O   UNL     1      -5.295  -3.962   0.538  0.00  0.00    -0.445 OA
ATOM      5  C   UNL     1      -5.605  -3.316   1.678  0.00  0.00    +0.115 C 
ATOM      6  C   UNL     1      -5.921  -2.008   1.678  0.00  0.00    +0.046 C 
ATOM      7  C   UNL     1      -6.248  -1.334   2.871  0.00  0.00    +0.164 C 
ATOM      8  O   UNL     1      -6.508  -0.148   2.834  0.00  0.00    -0.292 OA
ATOM      9  C   UNL     1      -6.280  -2.057   4.190  0.00  0.00    +0.086 C 
ATOM     10  C   UNL     1      -6.617  -3.530   3.939  0.00  0.00    -0.021 C 
ATOM     11  C   UNL     1      -5.584  -4.105   2.967  0.00  0.00    +0.081 C 
ATOM     12  C   UNL     1      -8.015  -3.641   3.328  0.00  0.00    +0.012 C 
ATOM     13  C   UNL     1      -6.569  -4.306   5.257  0.00  0.00    +0.012 C 
ENDROOT
BRANCH   1  17
ATOM     14  C   UNL     1      -2.361   1.105   0.110  0.00  0.00    +0.033 A 
ATOM     15  C   UNL     1      -2.286  -0.279   0.192  0.00  0.00    +0.023 A 
ATOM     16  C   UNL     1      -3.442  -1.028   0.288  0.00  0.00    +0.006 A 
ATOM     17  C   UNL     1      -4.675  -0.401   0.291  0.00  0.00    -0.034 A 
ATOM     18  C   UNL     1      -4.753   0.977   0.204  0.00  0.00    +0.006 A 
ATOM     19  C   UNL     1      -3.600   1.732   0.113  0.00  0.00    +0.023 A 
BRANCH  14  23
ATOM     20  C   UNL     1       0.169   3.848   0.605  0.00  0.00    +0.109 C 
ATOM     21  C   UNL     1      -1.125   3.076   0.609  0.00  0.00    +0.214 C 
ATOM     22  O   UNL     1      -2.107   3.541   1.149  0.00  0.00    -0.276 OA
ATOM     23  N   UNL     1      -1.191   1.867   0.018  0.00  0.00    -0.286 N 
ATOM     24  H   UNL     1      -0.426   1.524  -0.471  0.00  0.00    +0.155 HD
ENDBRANCH  14  23
ENDBRANCH   1  17
BRANCH   3  25
ATOM     25  N   UNL     1      -5.781  -4.299  -1.728  0.00  0.00    -0.328 N 
ATOM     26  H   UNL     1      -5.554  -5.238  -1.638  0.00  0.00    +0.145 HD
ATOM     27  H   UNL     1      -6.069  -3.950  -2.587  0.00  0.00    +0.145 HD
ENDBRANCH   3  25
BRANCH   2  28
ATOM     28  C   UNL     1      -6.433  -1.659  -2.061  0.00  0.00    +0.101 C 
ATOM     29  N   UNL     1      -6.764  -1.266  -3.074  0.00  0.00    -0.191 NA
ENDBRANCH   2  28
TORSDOF 4
