REMARK  Name = ZINC46757810
REMARK  10 active torsions:
REMARK  status: ('A' for Active; 'I' for Inactive)
REMARK    1  A    between atoms: C_1  and  C_2
REMARK    2  A    between atoms: C_5  and  N_8
REMARK    3  A    between atoms: C_9  and  C_33
REMARK    4  A    between atoms: C_11  and  C_16
REMARK    5  A    between atoms: N_18  and  C_19
REMARK    6  A    between atoms: C_19  and  C_20
REMARK    7  A    between atoms: C_23  and  N_26
REMARK    8  A    between atoms: N_29  and  C_30
REMARK    9  A    between atoms: C_30  and  C_31
REMARK   10  A    between atoms: C_30  and  C_32
REMARK                            x       y       z     vdW  Elec       q    Type
REMARK                         _______ _______ _______ _____ _____    ______ ____
ROOT
ATOM      1  C   UNL     1      -1.639  -6.920  -0.000  0.00  0.00    +0.219 C 
ATOM      2  O   UNL     1      -2.334  -5.957   0.245  0.00  0.00    -0.275 OA
ATOM      3  N   UNL     1      -2.188  -8.149  -0.059  0.00  0.00    -0.311 N 
ATOM      4  H   UNL     1      -1.632  -8.920  -0.255  0.00  0.00    +0.149 HD
ENDROOT
BRANCH   1   7
ATOM      5  N   UNL     1       0.752  -5.476   1.580  0.00  0.00    -0.263 N 
ATOM      6  C   UNL     1       0.630  -6.851   1.083  0.00  0.00    +0.130 C 
ATOM      7  C   UNL     1      -0.162  -6.742  -0.240  0.00  0.00    +0.109 C 
ATOM      8  C   UNL     1       0.158  -5.294  -0.680  0.00  0.00    +0.111 C 
ATOM      9  C   UNL     1       0.492  -4.581   0.611  0.00  0.00    +0.221 C 
ATOM     10  O   UNL     1       0.524  -3.376   0.751  0.00  0.00    -0.275 OA
BRANCH   5  15
ATOM     11  C   UNL     1       2.120  -4.111   6.914  0.00  0.00    +0.044 C 
ATOM     12  C   UNL     1       1.756  -4.474   5.497  0.00  0.00    -0.050 A 
ATOM     13  C   UNL     1       1.389  -3.484   4.605  0.00  0.00    +0.005 A 
ATOM     14  C   UNL     1       1.055  -3.813   3.305  0.00  0.00    +0.024 A 
ATOM     15  C   UNL     1       1.090  -5.139   2.896  0.00  0.00    +0.037 A 
ATOM     16  C   UNL     1       1.460  -6.131   3.794  0.00  0.00    +0.024 A 
ATOM     17  C   UNL     1       1.797  -5.795   5.091  0.00  0.00    +0.005 A 
ENDBRANCH   5  15
BRANCH   6  18
ATOM     18  C   UNL     1      -0.123  -7.699   2.075  0.00  0.00    +0.011 A 
ATOM     19  C   UNL     1       0.091  -8.990   2.430  0.00  0.00    +0.013 A 
ATOM     20  C   UNL     1      -0.735  -9.571   3.374  0.00  0.00    +0.008 A 
ATOM     21  C   UNL     1      -1.735  -8.833   3.916  0.00  0.00    +0.045 A 
ATOM     22  S   UNL     1      -1.524  -7.263   3.092  0.00  0.00    -0.100 S 
ENDBRANCH   6  18
ENDBRANCH   1   7
BRANCH   3  23
ATOM     23  C   UNL     1      -3.624  -8.322   0.174  0.00  0.00    +0.139 C 
BRANCH  23  24
ATOM     24  C   UNL     1      -3.980  -9.781   0.053  0.00  0.00    -0.030 A 
ATOM     25  C   UNL     1      -4.346 -10.303  -1.175  0.00  0.00    +0.007 A 
ATOM     26  C   UNL     1      -4.673 -11.639  -1.290  0.00  0.00    +0.023 A 
ATOM     27  C   UNL     1      -4.635 -12.461  -0.170  0.00  0.00    +0.035 A 
ATOM     28  C   UNL     1      -4.267 -11.934   1.061  0.00  0.00    +0.023 A 
ATOM     29  C   UNL     1      -3.936 -10.598   1.168  0.00  0.00    +0.007 A 
BRANCH  27  30
ATOM     30  N   UNL     1      -4.966 -13.816  -0.283  0.00  0.00    -0.269 N 
ATOM     31  C   UNL     1      -4.664 -14.492  -1.409  0.00  0.00    +0.304 C 
ATOM     32  O   UNL     1      -4.008 -13.957  -2.282  0.00  0.00    -0.253 OA
ATOM     33  N   UNL     1      -5.090 -15.760  -1.568  0.00  0.00    -0.297 N 
ATOM     34  H   UNL     1      -5.413 -14.268   0.449  0.00  0.00    +0.156 HD
ATOM     35  H   UNL     1      -5.614 -16.187  -0.872  0.00  0.00    +0.151 HD
BRANCH  33  36
ATOM     36  C   UNL     1      -4.763 -16.495  -2.792  0.00  0.00    +0.068 C 
ATOM     37  C   UNL     1      -3.379 -17.133  -2.650  0.00  0.00    +0.027 C 
ATOM     38  C   UNL     1      -5.807 -17.589  -3.026  0.00  0.00    +0.027 C 
ENDBRANCH  33  36
ENDBRANCH  27  30
ENDBRANCH  23  24
ENDBRANCH   3  23
TORSDOF 7
