REMARK  Name = ZINC29617867
REMARK  11 active torsions:
REMARK  status: ('A' for Active; 'I' for Inactive)
REMARK    1  A    between atoms: C_1  and  C_2
REMARK    2  A    between atoms: C_2  and  C_3
REMARK    3  A    between atoms: C_3  and  C_4
REMARK    4  A    between atoms: C_4  and  C_5
REMARK    5  A    between atoms: C_5  and  N_6
REMARK    6  A    between atoms: C_15  and  S_16
REMARK    7  A    between atoms: S_16  and  C_17
REMARK    8  A    between atoms: C_17  and  C_18
REMARK    9  A    between atoms: N_20  and  C_21
REMARK   10  A    between atoms: N_24  and  C_27
REMARK   11  A    between atoms: C_27  and  C_28
REMARK                            x       y       z     vdW  Elec       q    Type
REMARK                         _______ _______ _______ _____ _____    ______ ____
ROOT
ATOM      1  N   UNL     1      -0.698   1.558   1.213  0.00  0.00    -0.287 N 
ATOM      2  C   UNL     1      -1.671   0.804   1.758  0.00  0.00    +0.263 A 
ATOM      3  O   UNL     1      -1.982  -0.262   1.254  0.00  0.00    -0.267 OA
ATOM      4  C   UNL     1      -2.337   1.272   2.935  0.00  0.00    +0.076 A 
ATOM      5  C   UNL     1      -3.413   0.623   3.687  0.00  0.00    -0.023 A 
ATOM      6  C   UNL     1      -3.878   1.272   4.773  0.00  0.00    -0.004 A 
ATOM      7  S   UNL     1      -2.926   2.765   4.860  0.00  0.00    -0.073 S 
ATOM      8  C   UNL     1      -1.903   2.512   3.432  0.00  0.00    +0.117 A 
ATOM      9  N   UNL     1      -0.935   3.208   2.846  0.00  0.00    -0.216 NA
ATOM     10  C   UNL     1      -0.335   2.752   1.766  0.00  0.00    +0.173 A 
ATOM     11  C   UNL     1      -4.965   0.824   5.702  0.00  0.00    +0.043 C 
ATOM     12  C   UNL     1      -5.737  -0.319   5.028  0.00  0.00    +0.005 C 
ATOM     13  C   UNL     1      -4.731  -1.331   4.472  0.00  0.00    +0.005 C 
ATOM     14  C   UNL     1      -3.994  -0.727   3.276  0.00  0.00    +0.037 C 
ENDROOT
BRANCH   1  15
ATOM     15  C   UNL     1      -0.013   1.086   0.008  0.00  0.00    +0.127 C 
BRANCH  15  16
ATOM     16  C   UNL     1      -0.753   1.593  -1.232  0.00  0.00    +0.022 C 
BRANCH  16  17
ATOM     17  C   UNL     1      -0.037   1.099  -2.490  0.00  0.00    +0.001 C 
BRANCH  17  19
ATOM     18  C   UNL     1      -0.060   1.113  -4.989  0.00  0.00    +0.004 C 
ATOM     19  C   UNL     1      -0.777   1.606  -3.730  0.00  0.00    -0.003 C 
ENDBRANCH  17  19
ENDBRANCH  16  17
ENDBRANCH  15  16
ENDBRANCH   1  15
BRANCH  10  20
ATOM     20  S   UNL     1       0.950   3.699   1.020  0.00  0.00    -0.078 S 
BRANCH  20  21
ATOM     21  C   UNL     1       0.989   5.117   2.145  0.00  0.00    +0.173 C 
BRANCH  21  22
ATOM     22  C   UNL     1       2.046   6.090   1.691  0.00  0.00    +0.224 C 
ATOM     23  O   UNL     1       2.709   5.849   0.704  0.00  0.00    -0.275 OA
ATOM     24  N   UNL     1       2.256   7.228   2.381  0.00  0.00    -0.312 N 
ATOM     25  H   UNL     1       1.655   7.447   3.276  0.00  0.00    +0.149 HD
BRANCH  24  26
ATOM     26  C   UNL     1       3.284   8.174   1.940  0.00  0.00    +0.069 C 
ATOM     27  C   UNL     1       4.641   7.759   2.513  0.00  0.00    +0.003 C 
ATOM     28  C   UNL     1       5.700   8.784   2.099  0.00  0.00    -0.077 C 
ATOM     29  N   UNL     1       5.321  10.110   2.602  0.00  0.00    +0.380 N 
ATOM     30  C   UNL     1       4.043  10.551   2.029  0.00  0.00    -0.077 C 
ATOM     31  C   UNL     1       2.936   9.579   2.441  0.00  0.00    +0.003 C 
ATOM     32  H   UNL     1       5.190  10.031   3.691  0.00  0.00    -0.082 HD
BRANCH  29  33
ATOM     33  C   UNL     1       6.382  11.094   2.343  0.00  0.00    -0.082 C 
ATOM     34  C   UNL     1       7.736  10.496   2.729  0.00  0.00    -0.017 C 
ENDBRANCH  29  33
ENDBRANCH  24  26
ENDBRANCH  21  22
ENDBRANCH  20  21
ENDBRANCH  10  20
TORSDOF 9
