REMARK  Name = ZINC38655789
REMARK  6 active torsions:
REMARK  status: ('A' for Active; 'I' for Inactive)
REMARK    1  A    between atoms: C_6  and  C_7
REMARK    2  A    between atoms: C_12  and  O_21
REMARK    3  A    between atoms: C_16  and  N_20
REMARK    4  A    between atoms: C_17  and  C_18
REMARK    5  A    between atoms: O_21  and  C_22
REMARK    6  A    between atoms: C_22  and  C_24
REMARK                            x       y       z     vdW  Elec       q    Type
REMARK                         _______ _______ _______ _____ _____    ______ ____
ROOT
ATOM      1  C   UNL     1      -1.277  -0.723   0.048  0.00  0.00    +0.098 C 
ATOM      2  C   UNL     1      -1.339  -1.603   1.268  0.00  0.00    +0.008 A 
ATOM      3  C   UNL     1      -1.534  -1.030   2.512  0.00  0.00    +0.012 A 
ATOM      4  C   UNL     1      -1.593  -1.821   3.642  0.00  0.00    +0.047 A 
ATOM      5  C   UNL     1      -1.457  -3.198   3.532  0.00  0.00    +0.135 A 
ATOM      6  C   UNL     1      -1.262  -3.776   2.288  0.00  0.00    +0.093 A 
ATOM      7  C   UNL     1      -1.202  -2.978   1.152  0.00  0.00    +0.138 A 
ATOM      8  O   UNL     1      -1.010  -3.558  -0.058  0.00  0.00    -0.441 OA
ATOM      9  C   UNL     1      -1.328  -2.891  -1.179  0.00  0.00    +0.199 C 
ATOM     10  C   UNL     1      -1.469  -1.547  -1.194  0.00  0.00    +0.098 C 
ENDROOT
BRANCH   1  16
ATOM     11  C   UNL     1       0.141   1.339   0.018  0.00  0.00    +0.006 A 
ATOM     12  C   UNL     1       1.372   1.966  -0.032  0.00  0.00    +0.022 A 
ATOM     13  C   UNL     1       2.529   1.212  -0.110  0.00  0.00    +0.059 A 
ATOM     14  C   UNL     1       2.454  -0.170  -0.136  0.00  0.00    +0.060 A 
ATOM     15  C   UNL     1       1.221  -0.796  -0.085  0.00  0.00    +0.026 A 
ATOM     16  C   UNL     1       0.066  -0.041  -0.008  0.00  0.00    -0.033 A 
ATOM     17 CL   UNL     1       3.905  -1.117  -0.234  0.00  0.00    -0.082 Cl
ATOM     18 CL   UNL     1       4.075   1.999  -0.174  0.00  0.00    -0.082 Cl
ENDBRANCH   1  16
BRANCH   9  19
ATOM     19  N   UNL     1      -1.515  -3.595  -2.343  0.00  0.00    -0.328 N 
ATOM     20  H   UNL     1      -1.417  -4.559  -2.347  0.00  0.00    +0.145 HD
ATOM     21  H   UNL     1      -1.746  -3.127  -3.161  0.00  0.00    +0.145 HD
ENDBRANCH   9  19
BRANCH  10  22
ATOM     22  C   UNL     1      -1.809  -0.896  -2.423  0.00  0.00    +0.101 C 
ATOM     23  N   UNL     1      -2.079  -0.379  -3.398  0.00  0.00    -0.191 NA
ENDBRANCH  10  22
BRANCH   5  24
ATOM     24  O   UNL     1      -1.516  -3.979   4.643  0.00  0.00    -0.422 OA
BRANCH  24  25
ATOM     25  C   UNL     1      -2.702  -4.098   5.270  0.00  0.00    +0.346 C 
ATOM     26  O   UNL     1      -3.699  -3.604   4.783  0.00  0.00    -0.244 OA
BRANCH  25  27
ATOM     27  C   UNL     1      -2.790  -4.829   6.549  0.00  0.00    +0.078 A 
ATOM     28  C   UNL     1      -1.644  -5.394   7.115  0.00  0.00    +0.018 A 
ATOM     29  C   UNL     1      -1.732  -6.076   8.309  0.00  0.00    +0.021 A 
ATOM     30  C   UNL     1      -2.954  -6.203   8.950  0.00  0.00    +0.042 A 
ATOM     31  C   UNL     1      -4.095  -5.646   8.396  0.00  0.00    +0.040 A 
ATOM     32  C   UNL     1      -4.019  -4.955   7.203  0.00  0.00    +0.056 A 
ATOM     33 CL   UNL     1      -5.448  -4.251   6.513  0.00  0.00    -0.083 Cl
ATOM     34 CL   UNL     1      -3.057  -7.064  10.454  0.00  0.00    -0.083 Cl
ENDBRANCH  25  27
ENDBRANCH  24  25
ENDBRANCH   5  24
TORSDOF 6
