REMARK  Name = ZINC35889247
REMARK  7 active torsions:
REMARK  status: ('A' for Active; 'I' for Inactive)
REMARK    1  A    between atoms: C_1  and  C_2
REMARK    2  A    between atoms: C_2  and  C_3
REMARK    3  A    between atoms: C_12  and  C_13
REMARK    4  A    between atoms: C_13  and  C_15
REMARK    5  A    between atoms: C_13  and  C_35
REMARK    6  A    between atoms: C_15  and  C_16
REMARK    7  A    between atoms: C_21  and  N_24
REMARK                            x       y       z     vdW  Elec       q    Type
REMARK                         _______ _______ _______ _____ _____    ______ ____
ROOT
ATOM      1  C   UNL     1       5.278  -1.492  -3.042  0.00  0.00    +0.060 C 
ENDROOT
BRANCH   1  11
ATOM      2  C   UNL     1       0.707  -0.490  -1.238  0.00  0.00    -0.024 A 
ATOM      3  C   UNL     1      -0.018  -0.817  -2.363  0.00  0.00    +0.005 A 
ATOM      4  C   UNL     1       0.620  -1.265  -3.511  0.00  0.00    +0.001 A 
ATOM      5  C   UNL     1       1.980  -1.391  -3.545  0.00  0.00    +0.010 A 
ATOM      6  C   UNL     1       2.735  -1.065  -2.417  0.00  0.00    +0.004 A 
ATOM      7  C   UNL     1       2.094  -0.605  -1.252  0.00  0.00    +0.050 A 
ATOM      8  N   UNL     1       3.075  -0.360  -0.318  0.00  0.00    -0.360 N 
ATOM      9  H   UNL     1       2.919  -0.035   0.582  0.00  0.00    +0.165 HD
ATOM     10  C   UNL     1       4.304  -0.641  -0.850  0.00  0.00    +0.088 A 
ATOM     11  C   UNL     1       4.167  -1.079  -2.112  0.00  0.00    -0.015 A 
BRANCH   2  13
ATOM     12  C   UNL     1      -0.019   1.526   0.010  0.00  0.00    +0.009 C 
ATOM     13  C   UNL     1       0.002  -0.004   0.002  0.00  0.00    +0.034 C 
ENDBRANCH   2  13
ENDBRANCH   1  11
BRANCH   1  14
ATOM     14  C   UNL     1       6.222  -0.335  -3.243  0.00  0.00    -0.037 A 
ATOM     15  C   UNL     1       6.886   0.212  -2.160  0.00  0.00    +0.004 A 
ATOM     16  C   UNL     1       7.751   1.274  -2.343  0.00  0.00    +0.003 A 
ATOM     17  C   UNL     1       7.955   1.791  -3.609  0.00  0.00    +0.038 A 
ATOM     18  C   UNL     1       7.291   1.244  -4.694  0.00  0.00    +0.124 A 
ATOM     19  C   UNL     1       6.428   0.176  -4.510  0.00  0.00    +0.042 A 
ATOM     20  F   UNL     1       7.488   1.749  -5.931  0.00  0.00    -0.205 F 
ENDBRANCH   1  14
BRANCH   1  21
ATOM     21  C   UNL     1       6.040  -2.672  -2.435  0.00  0.00    +0.109 C 
BRANCH  21  22
ATOM     22  C   UNL     1       7.071  -3.164  -3.418  0.00  0.00    +0.216 C 
ATOM     23  O   UNL     1       7.185  -2.624  -4.498  0.00  0.00    -0.276 OA
ATOM     24  N   UNL     1       7.866  -4.203  -3.097  0.00  0.00    -0.301 N 
ATOM     25  C   UNL     1       7.736  -4.871  -1.795  0.00  0.00    +0.110 C 
ATOM     26  C   UNL     1       7.547  -6.374  -2.028  0.00  0.00    +0.044 C 
ATOM     27  C   UNL     1       8.695  -6.900  -2.892  0.00  0.00    +0.095 C 
ATOM     28  C   UNL     1       8.678  -6.195  -4.250  0.00  0.00    +0.044 C 
ATOM     29  C   UNL     1       8.876  -4.694  -4.045  0.00  0.00    +0.110 C 
BRANCH  27  30
ATOM     30  N   UNL     1       8.535  -8.343  -3.090  0.00  0.00    -0.289 N 
ATOM     31  C   UNL     1       9.443  -9.325  -2.701  0.00  0.00    +0.070 A 
ATOM     32  C   UNL     1      10.674  -9.283  -2.064  0.00  0.00    +0.028 A 
ATOM     33  C   UNL     1      11.355 -10.457  -1.807  0.00  0.00    +0.002 A 
ATOM     34  C   UNL     1      10.814 -11.674  -2.183  0.00  0.00    +0.002 A 
ATOM     35  C   UNL     1       9.589 -11.726  -2.818  0.00  0.00    +0.028 A 
ATOM     36  C   UNL     1       8.897 -10.553  -3.080  0.00  0.00    +0.067 A 
ATOM     37  N   UNL     1       7.674 -10.279  -3.687  0.00  0.00    -0.306 N 
ATOM     38  H   UNL     1       7.063 -10.937  -4.054  0.00  0.00    +0.170 HD
ATOM     39  C   UNL     1       7.482  -8.947  -3.673  0.00  0.00    +0.328 A 
ATOM     40  O   UNL     1       6.507  -8.374  -4.122  0.00  0.00    -0.247 OA
ENDBRANCH  27  30
ENDBRANCH  21  22
ENDBRANCH   1  21
TORSDOF 6
