REMARK  Name = ZINC01768135
REMARK  14 active torsions:
REMARK  status: ('A' for Active; 'I' for Inactive)
REMARK    1  A    between atoms: C_1  and  C_2
REMARK    2  A    between atoms: C_13  and  C_14
REMARK    3  A    between atoms: C_13  and  O_16
REMARK    4  A    between atoms: C_21  and  N_26
REMARK    5  A    between atoms: C_24  and  C_25
REMARK    6  A    between atoms: N_26  and  O_27
REMARK    7  A    between atoms: O_27  and  C_28
REMARK    8  A    between atoms: C_28  and  C_29
REMARK    9  A    between atoms: N_31  and  C_32
REMARK   10  A    between atoms: C_32  and  C_34
REMARK   11  A    between atoms: C_32  and  C_45
REMARK   12  A    between atoms: C_34  and  C_35
REMARK   13  A    between atoms: C_45  and  O_47
REMARK   14  A    between atoms: O_47  and  C_48
REMARK                            x       y       z     vdW  Elec       q    Type
REMARK                         _______ _______ _______ _____ _____    ______ ____
ROOT
ATOM      1  N   UNL     1      -3.992  -1.010   7.370  0.00  0.00    -0.266 N 
ATOM      2  H   UNL     1      -3.496  -1.018   8.204  0.00  0.00    +0.194 HD
ENDROOT
BRANCH   1  17
ATOM      3  C   UNL     1      -0.019   1.534   0.011  0.00  0.00    +0.015 C 
ATOM      4  C   UNL     1       0.002  -0.004   0.002  0.00  0.00    +0.011 C 
ATOM      5  C   UNL     1      -1.403  -0.517   0.118  0.00  0.00    +0.011 C 
ATOM      6  C   UNL     1      -1.794  -0.975   1.542  0.00  0.00    +0.005 C 
ATOM      7  C   UNL     1      -1.295   0.067   2.545  0.00  0.00    +0.003 C 
ATOM      8  C   UNL     1       0.223   0.050   2.556  0.00  0.00    -0.003 C 
ATOM      9  C   UNL     1       0.755  -0.504   1.263  0.00  0.00    +0.002 C 
ATOM     10  C   UNL     1       2.248  -0.024   0.950  0.00  0.00    +0.008 C 
ATOM     11  C   UNL     1       2.319  -0.094  -0.558  0.00  0.00    +0.049 C 
ATOM     12  C   UNL     1       0.829  -0.435  -1.113  0.00  0.00    +0.132 C 
ATOM     13  C   UNL     1       0.808  -0.822   3.731  0.00  0.00    +0.008 C 
ATOM     14  C   UNL     1       0.248  -0.255   4.990  0.00  0.00    +0.031 C 
ATOM     15  C   UNL     1      -1.244  -0.354   5.013  0.00  0.00    -0.061 C 
ATOM     16  C   UNL     1      -1.860  -0.741   6.149  0.00  0.00    +0.027 C 
ATOM     17  C   UNL     1      -3.324  -0.874   6.170  0.00  0.00    +0.057 C 
ATOM     18  C   UNL     1      -4.039  -0.824   5.082  0.00  0.00    +0.001 C 
ATOM     19  C   UNL     1      -3.309  -0.777   3.652  0.00  0.00    +0.040 C 
ATOM     20  C   UNL     1      -2.034   0.118   3.791  0.00  0.00    -0.004 C 
ATOM     21  C   UNL     1      -2.463   1.582   4.055  0.00  0.00    +0.016 C 
BRANCH  12  22
ATOM     22  C   UNL     1       0.713  -1.843  -1.432  0.00  0.00    -0.070 C 
ATOM     23  C   UNL     1       0.619  -2.984  -1.691  0.00  0.00    +0.007 C 
ENDBRANCH  12  22
BRANCH  12  24
ATOM     24  O   UNL     1       0.630   0.421  -2.238  0.00  0.00    -0.376 OA
ATOM     25  H   UNL     1       1.156   0.181  -3.013  0.00  0.00    +0.211 HD
ENDBRANCH  12  24
ENDBRANCH   1  17
BRANCH   1  26
ATOM     26  O   UNL     1      -5.402  -1.137   7.385  0.00  0.00    -0.265 OA
BRANCH  26  27
ATOM     27  C   UNL     1      -5.960  -1.270   8.694  0.00  0.00    +0.288 C 
BRANCH  27  28
ATOM     28  C   UNL     1      -7.458  -1.398   8.591  0.00  0.00    +0.242 C 
ATOM     29  O   UNL     1      -7.995  -1.377   7.503  0.00  0.00    -0.273 OA
ATOM     30  N   UNL     1      -8.201  -1.535   9.706  0.00  0.00    -0.300 N 
ATOM     31  H   UNL     1      -7.772  -1.552  10.576  0.00  0.00    +0.150 HD
BRANCH  30  32
ATOM     32  C   UNL     1      -9.658  -1.659   9.606  0.00  0.00    +0.186 C 
BRANCH  32  33
ATOM     33  C   UNL     1     -10.275  -0.286   9.538  0.00  0.00    +0.328 C 
ATOM     34  O   UNL     1      -9.571   0.695   9.570  0.00  0.00    -0.249 OA
BRANCH  33  35
ATOM     35  O   UNL     1     -11.608  -0.154   9.441  0.00  0.00    -0.467 OA
ATOM     36  C   UNL     1     -12.124   1.177   9.381  0.00  0.00    +0.280 C 
ENDBRANCH  33  35
ENDBRANCH  32  33
BRANCH  32  37
ATOM     37  C   UNL     1     -10.193  -2.398  10.834  0.00  0.00    +0.071 C 
BRANCH  37  38
ATOM     38  C   UNL     1      -9.671  -3.812  10.836  0.00  0.00    -0.020 A 
ATOM     39  C   UNL     1     -10.297  -4.895  10.347  0.00  0.00    +0.087 A 
ATOM     40  N   UNL     1      -9.517  -6.005  10.525  0.00  0.00    -0.360 N 
ATOM     41  H   UNL     1      -9.758  -6.904  10.253  0.00  0.00    +0.165 HD
ATOM     42  C   UNL     1      -8.341  -5.655  11.149  0.00  0.00    +0.047 A 
ATOM     43  C   UNL     1      -8.383  -4.266  11.366  0.00  0.00    +0.003 A 
ATOM     44  C   UNL     1      -7.308  -3.624  11.984  0.00  0.00    +0.010 A 
ATOM     45  C   UNL     1      -6.218  -4.350  12.373  0.00  0.00    +0.001 A 
ATOM     46  C   UNL     1      -6.170  -5.720  12.159  0.00  0.00    +0.002 A 
ATOM     47  C   UNL     1      -7.223  -6.375  11.559  0.00  0.00    +0.026 A 
ENDBRANCH  37  38
ENDBRANCH  32  37
ENDBRANCH  30  32
ENDBRANCH  27  28
ENDBRANCH  26  27
ENDBRANCH   1  26
TORSDOF 11
