REMARK  Name = ZINC21658655
REMARK  5 active torsions:
REMARK  status: ('A' for Active; 'I' for Inactive)
REMARK    1  A    between atoms: C_1  and  C_2
REMARK    2  A    between atoms: C_2  and  C_33
REMARK    3  A    between atoms: C_6  and  C_23
REMARK    4  A    between atoms: C_11  and  C_13
REMARK    5  A    between atoms: C_16  and  N_19
REMARK                            x       y       z     vdW  Elec       q    Type
REMARK                         _______ _______ _______ _____ _____    ______ ____
ROOT
ATOM      1  C   UNL     1      -0.018   1.031   2.509  0.00  0.00    +0.011 C 
ATOM      2  C   UNL     1      -0.727   1.578   1.268  0.00  0.00    -0.023 C 
ATOM      3  C   UNL     1      -0.013   1.086   0.008  0.00  0.00    +0.058 C 
ATOM      4  C   UNL     1      -0.741   1.585  -1.217  0.00  0.00    +0.019 C 
ATOM      5  C   UNL     1      -2.076   1.788  -1.198  0.00  0.00    +0.041 C 
ATOM      6  C   UNL     1      -2.837   2.286  -2.407  0.00  0.00    +0.174 C 
ATOM      7  N   UNL     1      -2.008   2.179  -3.604  0.00  0.00    -0.238 N 
ATOM      8  C   UNL     1      -0.660   1.960  -3.554  0.00  0.00    +0.123 A 
ATOM      9  C   UNL     1      -0.196   1.925  -4.819  0.00  0.00    +0.073 A 
ATOM     10  C   UNL     1      -1.294   2.122  -5.682  0.00  0.00    +0.095 A 
ATOM     11  N   UNL     1      -2.377   2.272  -4.944  0.00  0.00    -0.169 NA
ATOM     12  N   UNL     1       0.010   1.814  -2.344  0.00  0.00    -0.303 N 
ATOM     13  C   UNL     1      -2.825   1.547  -0.032  0.00  0.00    +0.164 C 
ATOM     14  O   UNL     1      -4.026   1.729  -0.049  0.00  0.00    -0.292 OA
ATOM     15  C   UNL     1      -2.171   1.070   1.235  0.00  0.00    +0.086 C 
ATOM     16  C   UNL     1      -0.719   3.108   1.301  0.00  0.00    +0.011 C 
ATOM     17  H   UNL     1       1.106   1.875  -2.270  0.00  0.00    +0.153 HD
ENDROOT
BRANCH   6  18
ATOM     18  C   UNL     1      -3.221   3.728  -2.193  0.00  0.00    -0.018 A 
ATOM     19  C   UNL     1      -2.240   4.683  -2.003  0.00  0.00    +0.007 A 
ATOM     20  C   UNL     1      -2.591   6.006  -1.812  0.00  0.00    +0.020 A 
ATOM     21  C   UNL     1      -3.925   6.373  -1.800  0.00  0.00    +0.041 A 
ATOM     22  C   UNL     1      -4.906   5.415  -1.985  0.00  0.00    +0.020 A 
ATOM     23  C   UNL     1      -4.554   4.093  -2.181  0.00  0.00    +0.007 A 
ATOM     24 CL   UNL     1      -4.366   8.033  -1.553  0.00  0.00    -0.084 Cl
ENDBRANCH   6  18
BRANCH  10  25
ATOM     25  C   UNL     1      -1.240   2.156  -7.165  0.00  0.00    +0.002 A 
ATOM     26  C   UNL     1      -0.024   1.990  -7.824  0.00  0.00    +0.012 A 
ATOM     27  C   UNL     1       0.019   2.018  -9.204  0.00  0.00    +0.033 A 
ATOM     28  C   UNL     1      -1.140   2.220  -9.931  0.00  0.00    +0.126 A 
ATOM     29  C   UNL     1      -2.349   2.391  -9.281  0.00  0.00    +0.033 A 
ATOM     30  C   UNL     1      -2.405   2.360  -7.902  0.00  0.00    +0.012 A 
BRANCH  28  31
ATOM     31  N   UNL     1      -1.086   2.254 -11.410  0.00  0.00    +0.056 N 
ATOM     32  O   UNL     1      -2.105   2.432 -12.052  0.00  0.00    -0.126 OA
ATOM     33  O   UNL     1      -0.022   2.103 -11.984  0.00  0.00    -0.126 OA
ENDBRANCH  28  31
ENDBRANCH  10  25
TORSDOF 3
