REMARK  Name = ZINC63699070
REMARK  4 active torsions:
REMARK  status: ('A' for Active; 'I' for Inactive)
REMARK    1  A    between atoms: C_1  and  C_2
REMARK    2  A    between atoms: C_4  and  C_23
REMARK    3  A    between atoms: N_12  and  C_14
REMARK    4  A    between atoms: C_26  and  C_28
REMARK                            x       y       z     vdW  Elec       q    Type
REMARK                         _______ _______ _______ _____ _____    ______ ____
ROOT
ATOM      1  C   UNL     1      -0.018   1.503   0.010  0.00  0.00    +0.062 C 
ATOM      2  C   UNL     1       0.002  -0.004   0.002  0.00  0.00    +0.019 C 
ATOM      3  C   UNL     1      -1.063  -0.754   0.003  0.00  0.00    -0.005 C 
ATOM      4  C   UNL     1      -2.522  -0.405  -0.155  0.00  0.00    +0.094 C 
ATOM      5  C   UNL     1      -2.995  -1.111  -1.435  0.00  0.00    +0.111 C 
ATOM      6  C   UNL     1      -2.370  -2.460  -1.590  0.00  0.00    +0.215 C 
ATOM      7  O   UNL     1      -2.936  -3.229  -2.337  0.00  0.00    -0.276 OA
ATOM      8  N   UNL     1      -1.263  -2.915  -1.003  0.00  0.00    -0.295 N 
ATOM      9  C   UNL     1      -0.598  -2.199   0.078  0.00  0.00    +0.194 C 
ATOM     10  N   UNL     1       0.857  -2.106  -0.088  0.00  0.00    -0.164 NA
ATOM     11  N   UNL     1       1.157  -0.771  -0.014  0.00  0.00    -0.277 N 
ATOM     12  H   UNL     1      -0.886  -3.756  -1.307  0.00  0.00    +0.151 HD
ATOM     13  H   UNL     1       2.057  -0.411   0.025  0.00  0.00    +0.166 HD
ENDROOT
BRANCH  10  14
ATOM     14  C   UNL     1       1.556  -2.865   0.957  0.00  0.00    +0.270 C 
ATOM     15  N   UNL     1       1.208  -4.289   0.863  0.00  0.00    -0.350 N 
ATOM     16  C   UNL     1       0.641  -4.627   1.985  0.00  0.00    +0.061 A 
ATOM     17  C   UNL     1       0.086  -5.894   2.482  0.00  0.00    +0.027 A 
ATOM     18  C   UNL     1      -0.451  -5.946   3.717  0.00  0.00    +0.002 A 
ATOM     19  C   UNL     1      -0.506  -4.827   4.567  0.00  0.00    +0.002 A 
ATOM     20  C   UNL     1      -0.027  -3.618   4.210  0.00  0.00    +0.027 A 
ATOM     21  C   UNL     1       0.583  -3.443   2.885  0.00  0.00    +0.061 A 
ATOM     22  N   UNL     1       1.116  -2.418   2.285  0.00  0.00    -0.350 N 
ATOM     23  H   UNL     1       1.371  -4.870   0.104  0.00  0.00    +0.163 HD
ATOM     24  H   UNL     1       1.206  -1.523   2.648  0.00  0.00    +0.163 HD
ENDBRANCH  10  14
BRANCH   4  25
ATOM     25  C   UNL     1      -3.305  -0.902   1.033  0.00  0.00    +0.113 A 
ATOM     26  C   UNL     1      -4.029  -0.136   1.873  0.00  0.00    +0.046 A 
ATOM     27  C   UNL     1      -4.593  -0.998   2.834  0.00  0.00    +0.050 A 
ATOM     28  C   UNL     1      -4.179  -2.255   2.524  0.00  0.00    +0.135 A 
ATOM     29  O   UNL     1      -3.403  -2.182   1.426  0.00  0.00    -0.459 OA
BRANCH  28  30
ATOM     30  C   UNL     1      -4.525  -3.489   3.261  0.00  0.00    +0.019 A 
ATOM     31  C   UNL     1      -5.353  -3.426   4.384  0.00  0.00    +0.011 A 
ATOM     32  C   UNL     1      -5.672  -4.580   5.068  0.00  0.00    +0.002 A 
ATOM     33  C   UNL     1      -5.174  -5.800   4.644  0.00  0.00    +0.020 A 
ATOM     34  C   UNL     1      -4.352  -5.870   3.532  0.00  0.00    +0.042 A 
ATOM     35  C   UNL     1      -4.030  -4.722   2.835  0.00  0.00    +0.031 A 
ATOM     36 CL   UNL     1      -3.731  -7.404   3.009  0.00  0.00    -0.084 Cl
ENDBRANCH  28  30
ENDBRANCH   4  25
TORSDOF 3
