REMARK  Name = ZINC14193439
REMARK  13 active torsions:
REMARK  status: ('A' for Active; 'I' for Inactive)
REMARK    1  A    between atoms: C_1  and  C_2
REMARK    2  A    between atoms: C_2  and  C_3
REMARK    3  A    between atoms: C_3  and  C_4
REMARK    4  A    between atoms: C_3  and  C_5
REMARK    5  A    between atoms: C_3  and  C_6
REMARK    6  A    between atoms: C_13  and  N_17
REMARK    7  A    between atoms: C_14  and  C_15
REMARK    8  A    between atoms: C_18  and  C_20
REMARK    9  A    between atoms: C_20  and  N_70
REMARK   10  A    between atoms: C_21  and  C_22
REMARK   11  A    between atoms: C_21  and  N_70
REMARK   12  A    between atoms: C_28  and  C_29
REMARK   13  A    between atoms: C_28  and  N_70
REMARK                            x       y       z     vdW  Elec       q    Type
REMARK                         _______ _______ _______ _____ _____    ______ ____
ROOT
ATOM      1  N   UNL     1       0.615   0.580  -0.154  0.00  0.00    -0.281 N 
ATOM      2  C   UNL     1       1.629   1.467  -0.132  0.00  0.00    +0.201 C 
ATOM      3  O   UNL     1       2.768   1.091  -0.315  0.00  0.00    -0.278 OA
ATOM      4  H   UNL     1      -0.296   0.881  -0.013  0.00  0.00    +0.155 HD
ENDROOT
BRANCH   1  11
ATOM      5  C   UNL     1       1.808  -5.663  -0.840  0.00  0.00    -0.000 C 
ATOM      6  C   UNL     1       0.445  -5.488  -1.516  0.00  0.00    +0.009 C 
ATOM      7  C   UNL     1      -0.354  -4.398  -0.800  0.00  0.00    +0.037 C 
ATOM      8  C   UNL     1       0.505  -3.143  -0.705  0.00  0.00    -0.018 A 
ATOM      9  C   UNL     1       1.846  -3.204  -0.861  0.00  0.00    -0.004 A 
ATOM     10  S   UNL     1       2.400  -1.534  -0.670  0.00  0.00    -0.077 S 
ATOM     11  C   UNL     1       0.873  -0.764  -0.386  0.00  0.00    +0.090 A 
ATOM     12  C   UNL     1      -0.027  -1.817  -0.440  0.00  0.00    +0.084 A 
ATOM     13  C   UNL     1       2.668  -4.425  -1.134  0.00  0.00    +0.047 C 
BRANCH   5  14
ATOM     14  C   UNL     1       2.499  -6.911  -1.394  0.00  0.00    -0.032 C 
ATOM     15  C   UNL     1       1.632  -8.140  -1.116  0.00  0.00    +0.011 C 
ATOM     16  C   UNL     1       2.695  -6.757  -2.904  0.00  0.00    +0.011 C 
BRANCH  14  18
ATOM     17  C   UNL     1       4.551  -8.331  -1.272  0.00  0.00    +0.004 C 
ATOM     18  C   UNL     1       3.860  -7.083  -0.718  0.00  0.00    +0.003 C 
ENDBRANCH  14  18
ENDBRANCH   5  14
BRANCH  12  19
ATOM     19  C   UNL     1      -1.430  -1.606  -0.246  0.00  0.00    +0.102 C 
ATOM     20  N   UNL     1      -2.543  -1.438  -0.092  0.00  0.00    -0.191 NA
ENDBRANCH  12  19
ENDBRANCH   1  11
BRANCH   2  21
ATOM     21  C   UNL     1       1.349   2.926   0.119  0.00  0.00    +0.020 C 
BRANCH  21  22
ATOM     22  N   UNL     1       2.629   3.666   0.112  0.00  0.00    +0.391 N 
ATOM     23  H   UNL     1       3.284   3.204   0.753  0.00  0.00    -0.080 HD
BRANCH  22  24
ATOM     24  C   UNL     1       3.206   3.663  -1.249  0.00  0.00    -0.042 C 
BRANCH  24  25
ATOM     25  C   UNL     1       4.652   4.078  -1.163  0.00  0.00    -0.064 A 
ATOM     26  C   UNL     1       5.010   5.391  -1.409  0.00  0.00    +0.002 A 
ATOM     27  C   UNL     1       6.336   5.772  -1.324  0.00  0.00    +0.000 A 
ATOM     28  C   UNL     1       7.305   4.840  -1.004  0.00  0.00    +0.000 A 
ATOM     29  C   UNL     1       6.947   3.526  -0.763  0.00  0.00    +0.000 A 
ATOM     30  C   UNL     1       5.620   3.146  -0.842  0.00  0.00    +0.002 A 
ENDBRANCH  24  25
ENDBRANCH  22  24
BRANCH  22  31
ATOM     31  C   UNL     1       2.412   5.056   0.566  0.00  0.00    -0.042 C 
BRANCH  31  32
ATOM     32  C   UNL     1       2.222   5.051   2.061  0.00  0.00    -0.064 A 
ATOM     33  C   UNL     1       0.947   5.033   2.595  0.00  0.00    +0.002 A 
ATOM     34  C   UNL     1       0.773   5.024   3.966  0.00  0.00    +0.000 A 
ATOM     35  C   UNL     1       1.873   5.045   4.803  0.00  0.00    +0.000 A 
ATOM     36  C   UNL     1       3.147   5.069   4.269  0.00  0.00    +0.000 A 
ATOM     37  C   UNL     1       3.322   5.072   2.897  0.00  0.00    +0.002 A 
ENDBRANCH  31  32
ENDBRANCH  22  31
ENDBRANCH  21  22
ENDBRANCH   2  21
TORSDOF 10
