REMARK  Name = ZINC35703822
REMARK  13 active torsions:
REMARK  status: ('A' for Active; 'I' for Inactive)
REMARK    1  A    between atoms: C_1  and  C_2
REMARK    2  A    between atoms: C_6  and  C_8
REMARK    3  A    between atoms: C_10  and  C_30
REMARK    4  A    between atoms: C_11  and  C_29
REMARK    5  A    between atoms: C_15  and  C_18
REMARK    6  A    between atoms: C_19  and  N_21
REMARK    7  A    between atoms: N_21  and  C_22
REMARK    8  A    between atoms: C_22  and  C_23
REMARK    9  A    between atoms: C_30  and  O_32
REMARK   10  A    between atoms: O_32  and  C_33
REMARK   11  A    between atoms: C_33  and  C_34
REMARK   12  A    between atoms: C_33  and  C_35
REMARK   13  A    between atoms: C_33  and  C_36
REMARK                            x       y       z     vdW  Elec       q    Type
REMARK                         _______ _______ _______ _____ _____    ______ ____
ROOT
ATOM      1  C   UNL     1      -0.275  -3.146   2.225  0.00  0.00    +0.150 C 
ATOM      2  C   UNL     1      -1.376  -4.022   2.779  0.00  0.00    +0.083 C 
ATOM      3  C   UNL     1      -1.048  -5.312   3.148  0.00  0.00    +0.053 C 
ATOM      4  N   UNL     1       0.192  -5.753   3.016  0.00  0.00    -0.230 NA
ATOM      5  C   UNL     1       1.195  -5.043   2.541  0.00  0.00    +0.166 C 
ATOM      6  N   UNL     1       1.081  -3.748   2.121  0.00  0.00    -0.267 N 
ATOM      7  C   UNL     1       2.226  -3.139   1.648  0.00  0.00    +0.048 C 
ATOM      8  C   UNL     1       3.364  -3.868   1.638  0.00  0.00    +0.072 C 
ATOM      9  S   UNL     1       2.812  -5.424   2.301  0.00  0.00    -0.060 S 
ATOM     10  C   UNL     1      -2.110  -6.224   3.706  0.00  0.00    +0.066 C 
ENDROOT
BRANCH   1  16
ATOM     11  C   UNL     1      -2.152   0.369  -0.803  0.00  0.00    +0.044 C 
ATOM     12  C   UNL     1      -1.589  -1.014  -0.601  0.00  0.00    -0.050 A 
ATOM     13  C   UNL     1      -1.452  -1.869  -1.678  0.00  0.00    +0.003 A 
ATOM     14  C   UNL     1      -0.935  -3.138  -1.492  0.00  0.00    +0.001 A 
ATOM     15  C   UNL     1      -0.554  -3.551  -0.229  0.00  0.00    +0.006 A 
ATOM     16  C   UNL     1      -0.690  -2.695   0.848  0.00  0.00    -0.022 A 
ATOM     17  C   UNL     1      -1.203  -1.425   0.661  0.00  0.00    +0.009 A 
ENDBRANCH   1  16
BRANCH   7  18
ATOM     18  C   UNL     1       2.208  -1.748   1.173  0.00  0.00    +0.091 C 
ATOM     19  C   UNL     1       3.293  -1.231   0.565  0.00  0.00    +0.239 C 
ATOM     20  O   UNL     1       4.343  -2.030   0.257  0.00  0.00    -0.271 OA
BRANCH  19  21
ATOM     21  N   UNL     1       3.335   0.118   0.254  0.00  0.00    -0.308 N 
ATOM     22  H   UNL     1       2.616   0.704   0.540  0.00  0.00    +0.149 HD
BRANCH  21  23
ATOM     23  C   UNL     1       4.464   0.660  -0.506  0.00  0.00    +0.141 C 
BRANCH  23  24
ATOM     24  C   UNL     1       4.329   2.158  -0.607  0.00  0.00    -0.012 A 
ATOM     25  C   UNL     1       3.555   2.728  -1.607  0.00  0.00    +0.008 A 
ATOM     26  C   UNL     1       3.461   4.109  -1.660  0.00  0.00    +0.020 A 
ATOM     27  C   UNL     1       4.135   4.868  -0.722  0.00  0.00    +0.111 A 
ATOM     28  N   UNL     1       4.862   4.292   0.215  0.00  0.00    -0.263 NA
ATOM     29  C   UNL     1       4.970   2.980   0.300  0.00  0.00    +0.115 A 
ENDBRANCH  23  24
ENDBRANCH  21  23
ENDBRANCH  19  21
ENDBRANCH   7  18
BRANCH   2  30
ATOM     30  C   UNL     1      -2.684  -3.542   2.914  0.00  0.00    +0.340 C 
ATOM     31  O   UNL     1      -3.579  -4.297   3.250  0.00  0.00    -0.245 OA
BRANCH  30  32
ATOM     32  O   UNL     1      -2.954  -2.240   2.673  0.00  0.00    -0.456 OA
BRANCH  32  33
ATOM     33  C   UNL     1      -4.311  -1.818   2.830  0.00  0.00    +0.106 C 
ATOM     34  C   UNL     1      -4.759  -2.070   4.271  0.00  0.00    +0.055 C 
ATOM     35  C   UNL     1      -4.421  -0.325   2.515  0.00  0.00    +0.055 C 
ATOM     36  C   UNL     1      -5.205  -2.608   1.872  0.00  0.00    +0.055 C 
ENDBRANCH  32  33
ENDBRANCH  30  32
ENDBRANCH   2  30
TORSDOF 8
