REMARK  Name = ZINC21145620
REMARK  9 active torsions:
REMARK  status: ('A' for Active; 'I' for Inactive)
REMARK    1  A    between atoms: C_1  and  O_2
REMARK    2  A    between atoms: O_2  and  C_3
REMARK    3  A    between atoms: C_3  and  C_5
REMARK    4  A    between atoms: C_9  and  N_10
REMARK    5  A    between atoms: C_11  and  C_13
REMARK    6  A    between atoms: C_13  and  S_14
REMARK    7  A    between atoms: S_14  and  C_15
REMARK    8  A    between atoms: C_18  and  C_21
REMARK    9  A    between atoms: N_19  and  N_20
REMARK                            x       y       z     vdW  Elec       q    Type
REMARK                         _______ _______ _______ _____ _____    ______ ____
ROOT
ATOM      1  N   UNL     1       2.829  -2.275   0.084  0.00  0.00    -0.279 N 
ATOM      2  C   UNL     1       3.770  -3.118   0.552  0.00  0.00    +0.228 C 
ATOM      3  O   UNL     1       3.645  -4.314   0.395  0.00  0.00    -0.275 OA
ATOM      4  H   UNL     1       2.929  -1.318   0.210  0.00  0.00    +0.155 HD
ENDROOT
BRANCH   1   9
ATOM      5  C   UNL     1       0.659  -2.064  -1.123  0.00  0.00    +0.091 A 
ATOM      6  C   UNL     1      -0.388  -2.831  -1.776  0.00  0.00    -0.021 A 
ATOM      7  C   UNL     1      -0.188  -4.166  -1.759  0.00  0.00    -0.004 A 
ATOM      8  S   UNL     1       1.345  -4.379  -0.902  0.00  0.00    -0.077 S 
ATOM      9  C   UNL     1       1.718  -2.775  -0.578  0.00  0.00    +0.086 A 
ATOM     10  C   UNL     1      -1.080  -5.217  -2.343  0.00  0.00    +0.043 C 
ATOM     11  C   UNL     1      -2.447  -4.580  -2.636  0.00  0.00    +0.005 C 
ATOM     12  C   UNL     1      -2.230  -3.260  -3.380  0.00  0.00    +0.005 C 
ATOM     13  C   UNL     1      -1.619  -2.224  -2.434  0.00  0.00    +0.037 C 
BRANCH   5  14
ATOM     14  C   UNL     1       0.601  -0.603  -1.048  0.00  0.00    +0.342 C 
ATOM     15  O   UNL     1       1.094   0.071  -1.932  0.00  0.00    -0.245 OA
BRANCH  14  17
ATOM     16  C   UNL     1      -0.017   1.425   0.010  0.00  0.00    +0.280 C 
ATOM     17  O   UNL     1       0.002  -0.004   0.002  0.00  0.00    -0.464 OA
ENDBRANCH  14  17
ENDBRANCH   5  14
ENDBRANCH   1   9
BRANCH   2  18
ATOM     18  C   UNL     1       4.978  -2.575   1.272  0.00  0.00    +0.173 C 
BRANCH  18  19
ATOM     19  S   UNL     1       6.050  -3.949   1.776  0.00  0.00    -0.075 S 
BRANCH  19  20
ATOM     20  C   UNL     1       7.398  -3.160   2.592  0.00  0.00    +0.209 A 
ATOM     21  N   UNL     1       7.548  -1.868   2.777  0.00  0.00    -0.121 NA
ATOM     22  N   UNL     1       8.643  -1.638   3.409  0.00  0.00    -0.127 NA
ATOM     23  C   UNL     1       9.259  -2.768   3.666  0.00  0.00    +0.182 A 
ATOM     24  N   UNL     1       8.478  -3.779   3.155  0.00  0.00    -0.224 N 
BRANCH  23  25
ATOM     25  C   UNL     1      10.546  -2.926   4.376  0.00  0.00    +0.021 A 
ATOM     26  C   UNL     1      11.241  -4.135   4.305  0.00  0.00    +0.014 A 
ATOM     27  C   UNL     1      12.442  -4.277   4.968  0.00  0.00    +0.039 A 
ATOM     28  C   UNL     1      12.959  -3.222   5.704  0.00  0.00    +0.123 A 
ATOM     29  C   UNL     1      12.273  -2.020   5.778  0.00  0.00    +0.039 A 
ATOM     30  C   UNL     1      11.074  -1.866   5.114  0.00  0.00    +0.014 A 
ATOM     31  F   UNL     1      14.135  -3.367   6.352  0.00  0.00    -0.205 F 
ENDBRANCH  23  25
BRANCH  24  32
ATOM     32  N   UNL     1       8.730  -5.120   3.200  0.00  0.00    -0.295 N 
ATOM     33  H   UNL     1       9.258  -5.416   2.393  0.00  0.00    +0.163 HD
ATOM     34  H   UNL     1       9.205  -5.371   4.054  0.00  0.00    +0.163 HD
ENDBRANCH  24  32
ENDBRANCH  19  20
ENDBRANCH  18  19
ENDBRANCH   2  18
TORSDOF 8
