REMARK  Name = ZINC43653538
REMARK  6 active torsions:
REMARK  status: ('A' for Active; 'I' for Inactive)
REMARK    1  A    between atoms: C_1  and  C_2
REMARK    2  A    between atoms: C_2  and  C_4
REMARK    3  A    between atoms: C_2  and  N_14
REMARK    4  A    between atoms: N_17  and  C_18
REMARK    5  A    between atoms: C_21  and  N_24
REMARK    6  A    between atoms: C_25  and  C_27
REMARK                            x       y       z     vdW  Elec       q    Type
REMARK                         _______ _______ _______ _____ _____    ______ ____
ROOT
ATOM      1  N   UNL     1       0.706  -0.487   1.234  0.00  0.00    -0.293 N 
ATOM      2  C   UNL     1       2.048  -0.605   1.208  0.00  0.00    +0.304 C 
ATOM      3  O   UNL     1       2.664  -0.314   0.201  0.00  0.00    -0.252 OA
ATOM      4  N   UNL     1       2.707  -1.045   2.297  0.00  0.00    -0.269 N 
ATOM      5  H   UNL     1       0.214  -0.719   2.037  0.00  0.00    +0.151 HD
ATOM      6  H   UNL     1       2.224  -1.213   3.122  0.00  0.00    +0.156 HD
ENDROOT
BRANCH   4   7
ATOM      7  C   UNL     1       4.090  -1.260   2.240  0.00  0.00    +0.035 A 
ATOM      8  C   UNL     1       4.660  -2.307   2.952  0.00  0.00    +0.025 A 
ATOM      9  C   UNL     1       6.023  -2.519   2.896  0.00  0.00    +0.025 A 
ATOM     10  C   UNL     1       6.824  -1.684   2.128  0.00  0.00    +0.033 A 
ATOM     11  C   UNL     1       6.255  -0.637   1.416  0.00  0.00    +0.025 A 
ATOM     12  C   UNL     1       4.891  -0.429   1.468  0.00  0.00    +0.025 A 
BRANCH  10  13
ATOM     13  N   UNL     1       8.208  -1.898   2.072  0.00  0.00    -0.286 N 
ATOM     14  C   UNL     1       8.697  -3.154   2.104  0.00  0.00    +0.214 C 
ATOM     15  O   UNL     1       7.947  -4.093   2.267  0.00  0.00    -0.276 OA
ATOM     16  C   UNL     1      10.176  -3.390   1.939  0.00  0.00    +0.109 C 
ATOM     17  H   UNL     1       8.813  -1.143   2.009  0.00  0.00    +0.155 HD
ENDBRANCH  10  13
ENDBRANCH   4   7
BRANCH   1  19
ATOM     18  C   UNL     1      -0.023   1.522   0.044  0.00  0.00    +0.033 C 
ATOM     19  C   UNL     1      -0.011  -0.008   0.049  0.00  0.00    +0.102 C 
BRANCH  19  20
ATOM     20  C   UNL     1      -1.427  -0.522   0.077  0.00  0.00    -0.027 A 
ATOM     21  C   UNL     1      -2.130  -0.554   1.267  0.00  0.00    +0.006 A 
ATOM     22  C   UNL     1      -3.425  -1.028   1.285  0.00  0.00    +0.004 A 
ATOM     23  C   UNL     1      -4.030  -1.473   0.116  0.00  0.00    -0.044 A 
ATOM     24  C   UNL     1      -3.332  -1.437  -1.070  0.00  0.00    -0.044 A 
ATOM     25  C   UNL     1      -2.029  -0.957  -1.086  0.00  0.00    +0.009 A 
ATOM     26  C   UNL     1      -3.930  -1.887  -2.377  0.00  0.00    +0.035 C 
ATOM     27  C   UNL     1      -5.161  -2.758  -2.133  0.00  0.00    +0.005 C 
ATOM     28  C   UNL     1      -6.096  -2.015  -1.171  0.00  0.00    +0.005 C 
ATOM     29  C   UNL     1      -5.444  -1.986   0.209  0.00  0.00    +0.035 C 
ENDBRANCH  19  20
ENDBRANCH   1  19
TORSDOF 4
