REMARK  Name = ZINC36597832
REMARK  13 active torsions:
REMARK  status: ('A' for Active; 'I' for Inactive)
REMARK    1  A    between atoms: C_1  and  C_2
REMARK    2  A    between atoms: C_5  and  C_7
REMARK    3  A    between atoms: C_7  and  N_8
REMARK    4  A    between atoms: N_8  and  C_9
REMARK    5  A    between atoms: C_9  and  C_11
REMARK    6  A    between atoms: C_9  and  C_20
REMARK    7  A    between atoms: C_14  and  N_17
REMARK    8  A    between atoms: N_17  and  C_18
REMARK    9  A    between atoms: N_17  and  C_19
REMARK   10  A    between atoms: N_22  and  C_23
REMARK   11  A    between atoms: C_29  and  C_31
REMARK   12  A    between atoms: C_35  and  O_38
REMARK   13  A    between atoms: C_36  and  O_37
REMARK                            x       y       z     vdW  Elec       q    Type
REMARK                         _______ _______ _______ _____ _____    ______ ____
ROOT
ATOM      1  N   UNL     1       2.559  -3.528  -1.277  0.00  0.00    -0.275 N 
ATOM      2  C   UNL     1       1.245  -3.236  -1.206  0.00  0.00    +0.252 C 
ATOM      3  O   UNL     1       0.473  -4.031  -0.706  0.00  0.00    -0.270 OA
ENDROOT
BRANCH   2   4
ATOM      4  C   UNL     1       0.745  -1.953  -1.734  0.00  0.00    +0.082 A 
ATOM      5  C   UNL     1       1.450  -1.283  -2.738  0.00  0.00    +0.017 A 
ATOM      6  C   UNL     1       0.980  -0.085  -3.229  0.00  0.00    +0.005 A 
ATOM      7  C   UNL     1      -0.193   0.462  -2.733  0.00  0.00    +0.049 A 
ATOM      8  C   UNL     1      -0.902  -0.189  -1.739  0.00  0.00    +0.159 A 
ATOM      9  C   UNL     1      -0.442  -1.403  -1.237  0.00  0.00    +0.171 A 
BRANCH   9  10
ATOM     10  O   UNL     1      -1.139  -2.047  -0.266  0.00  0.00    -0.503 OA
ATOM     11  H   UNL     1      -0.881  -1.800   0.633  0.00  0.00    +0.292 HD
ENDBRANCH   9  10
BRANCH   8  12
ATOM     12  O   UNL     1      -2.052   0.355  -1.257  0.00  0.00    -0.503 OA
ATOM     13  H   UNL     1      -2.847   0.078  -1.732  0.00  0.00    +0.292 HD
ENDBRANCH   8  12
ENDBRANCH   2   4
BRANCH   1  14
ATOM     14  C   UNL     1       3.034  -4.864  -0.909  0.00  0.00    +0.183 C 
BRANCH  14  19
ATOM     15  C   UNL     1       4.198  -4.776   3.998  0.00  0.00    +0.086 C 
ATOM     16  C   UNL     1       3.436  -5.002   2.717  0.00  0.00    +0.102 A 
ATOM     17  C   UNL     1       2.207  -5.540   2.618  0.00  0.00    +0.045 A 
ATOM     18  C   UNL     1       1.881  -5.564   1.243  0.00  0.00    +0.046 A 
ATOM     19  C   UNL     1       2.930  -5.040   0.584  0.00  0.00    +0.122 A 
ATOM     20  O   UNL     1       3.867  -4.696   1.483  0.00  0.00    -0.463 OA
ENDBRANCH  14  19
ENDBRANCH   1  14
BRANCH   1  21
ATOM     21  C   UNL     1       3.513  -2.509  -1.723  0.00  0.00    +0.193 C 
BRANCH  21  22
ATOM     22  C   UNL     1       3.056  -1.153  -1.250  0.00  0.00    -0.018 A 
ATOM     23  C   UNL     1       2.281  -1.045  -0.110  0.00  0.00    +0.008 A 
ATOM     24  C   UNL     1       1.861   0.196   0.327  0.00  0.00    +0.023 A 
ATOM     25  C   UNL     1       2.219   1.337  -0.381  0.00  0.00    +0.029 A 
ATOM     26  C   UNL     1       2.997   1.225  -1.526  0.00  0.00    +0.023 A 
ATOM     27  C   UNL     1       3.418  -0.019  -1.954  0.00  0.00    +0.008 A 
BRANCH  25  28
ATOM     28  N   UNL     1       1.795   2.594   0.057  0.00  0.00    -0.336 N 
ATOM     29  C   UNL     1       1.081   2.724   1.330  0.00  0.00    +0.129 C 
ATOM     30  C   UNL     1       2.065   3.783  -0.756  0.00  0.00    +0.129 C 
ENDBRANCH  25  28
ENDBRANCH  21  22
BRANCH  21  31
ATOM     31  C   UNL     1       4.874  -2.809  -1.150  0.00  0.00    +0.238 C 
ATOM     32  O   UNL     1       4.971  -3.324  -0.057  0.00  0.00    -0.273 OA
ATOM     33  N   UNL     1       5.983  -2.506  -1.854  0.00  0.00    -0.311 N 
ATOM     34  H   UNL     1       5.905  -2.094  -2.728  0.00  0.00    +0.149 HD
BRANCH  33  35
ATOM     35  C   UNL     1       7.306  -2.797  -1.297  0.00  0.00    +0.073 C 
ATOM     36  C   UNL     1       7.743  -1.645  -0.390  0.00  0.00    +0.022 C 
ATOM     37  C   UNL     1       9.125  -1.950   0.192  0.00  0.00    +0.002 C 
ATOM     38  C   UNL     1      10.133  -2.113  -0.947  0.00  0.00    +0.000 C 
ATOM     39  C   UNL     1       9.696  -3.266  -1.854  0.00  0.00    +0.002 C 
ATOM     40  C   UNL     1       8.314  -2.961  -2.436  0.00  0.00    +0.022 C 
ENDBRANCH  33  35
ENDBRANCH  21  31
ENDBRANCH   1  21
TORSDOF 10
