REMARK  Name = ZINC37246748
REMARK  20 active torsions:
REMARK  status: ('A' for Active; 'I' for Inactive)
REMARK    1  A    between atoms: C_1  and  C_2
REMARK    2  A    between atoms: C_1  and  C_24
REMARK    3  A    between atoms: C_2  and  O_3
REMARK    4  A    between atoms: O_3  and  C_4
REMARK    5  A    between atoms: C_4  and  C_5
REMARK    6  A    between atoms: C_5  and  C_6
REMARK    7  A    between atoms: C_6  and  O_7
REMARK    8  A    between atoms: O_7  and  C_8
REMARK    9  A    between atoms: C_10  and  O_23
REMARK   10  A    between atoms: C_12  and  O_22
REMARK   11  A    between atoms: C_14  and  O_21
REMARK   12  A    between atoms: C_16  and  C_19
REMARK   13  A    between atoms: C_19  and  O_20
REMARK   14  A    between atoms: C_24  and  O_25
REMARK   15  A    between atoms: O_25  and  C_26
REMARK   16  A    between atoms: C_28  and  O_41
REMARK   17  A    between atoms: C_30  and  O_40
REMARK   18  A    between atoms: C_32  and  O_39
REMARK   19  A    between atoms: C_34  and  C_37
REMARK   20  A    between atoms: C_37  and  O_38
REMARK                            x       y       z     vdW  Elec       q    Type
REMARK                         _______ _______ _______ _____ _____    ______ ____
ROOT
ATOM      1  O   UNL     1      -1.339  -0.499   0.012  0.00  0.00    -0.380 OA
ENDROOT
BRANCH   1   2
ATOM      2  C   UNL     1      -1.432  -1.925   0.005  0.00  0.00    +0.162 C 
BRANCH   2   3
ATOM      3  C   UNL     1      -2.905  -2.339   0.017  0.00  0.00    +0.056 C 
BRANCH   3   4
ATOM      4  C   UNL     1      -3.005  -3.866   0.010  0.00  0.00    +0.165 C 
BRANCH   4   5
ATOM      5  O   UNL     1      -4.380  -4.253   0.021  0.00  0.00    -0.349 OA
BRANCH   5   6
ATOM      6  C   UNL     1      -4.586  -5.667   0.015  0.00  0.00    +0.282 C 
ATOM      7  C   UNL     1      -6.069  -5.966  -0.222  0.00  0.00    +0.201 C 
ATOM      8  C   UNL     1      -6.291  -7.481  -0.167  0.00  0.00    +0.179 C 
ATOM      9  C   UNL     1      -5.801  -8.009   1.185  0.00  0.00    +0.177 C 
ATOM     10  C   UNL     1      -4.329  -7.631   1.368  0.00  0.00    +0.178 C 
ATOM     11  O   UNL     1      -4.187  -6.212   1.275  0.00  0.00    -0.341 OA
BRANCH   9  12
ATOM     12  O   UNL     1      -6.578  -7.429   2.235  0.00  0.00    -0.386 OA
ATOM     13  H   UNL     1      -7.523  -7.625   2.178  0.00  0.00    +0.210 HD
ENDBRANCH   9  12
BRANCH   7  14
ATOM     14  O   UNL     1      -6.456  -5.472  -1.506  0.00  0.00    -0.384 OA
ATOM     15  H   UNL     1      -6.337  -4.519  -1.612  0.00  0.00    +0.210 HD
ENDBRANCH   7  14
BRANCH   8  16
ATOM     16  O   UNL     1      -7.683  -7.766  -0.317  0.00  0.00    -0.386 OA
ATOM     17  H   UNL     1      -8.062  -7.452  -1.150  0.00  0.00    +0.210 HD
ENDBRANCH   8  16
BRANCH  10  18
ATOM     18  C   UNL     1      -3.848  -8.103   2.742  0.00  0.00    +0.190 C 
BRANCH  18  19
ATOM     19  O   UNL     1      -2.446  -7.854   2.867  0.00  0.00    -0.392 OA
ATOM     20  H   UNL     1      -2.072  -8.129   3.715  0.00  0.00    +0.210 HD
ENDBRANCH  18  19
ENDBRANCH  10  18
ENDBRANCH   5   6
ENDBRANCH   4   5
ENDBRANCH   3   4
ENDBRANCH   2   3
ENDBRANCH   1   2
BRANCH   1  21
ATOM     21  C   UNL     1       0.002  -0.004   0.002  0.00  0.00    +0.162 C 
BRANCH  21  22
ATOM     22  C   UNL     1      -0.019   1.526   0.010  0.00  0.00    +0.056 C 
BRANCH  22  23
ATOM     23  C   UNL     1       1.417   2.055  -0.000  0.00  0.00    +0.165 C 
BRANCH  23  24
ATOM     24  O   UNL     1       1.397   3.484   0.007  0.00  0.00    -0.349 OA
BRANCH  24  25
ATOM     25  C   UNL     1       2.695   4.083  -0.002  0.00  0.00    +0.282 C 
ATOM     26  C   UNL     1       2.565   5.586   0.258  0.00  0.00    +0.201 C 
ATOM     27  C   UNL     1       3.953   6.231   0.187  0.00  0.00    +0.179 C 
ATOM     28  C   UNL     1       4.575   5.928  -1.180  0.00  0.00    +0.177 C 
ATOM     29  C   UNL     1       4.627   4.412  -1.384  0.00  0.00    +0.178 C 
ATOM     30  O   UNL     1       3.308   3.872  -1.275  0.00  0.00    -0.341 OA
BRANCH  26  31
ATOM     31  O   UNL     1       1.715   6.170  -0.732  0.00  0.00    -0.384 OA
ATOM     32  H   UNL     1       0.820   5.805  -0.746  0.00  0.00    +0.210 HD
ENDBRANCH  26  31
BRANCH  27  33
ATOM     33  O   UNL     1       3.833   7.644   0.357  0.00  0.00    -0.386 OA
ATOM     34  H   UNL     1       3.440   7.907   1.200  0.00  0.00    +0.210 HD
ENDBRANCH  27  33
BRANCH  28  35
ATOM     35  O   UNL     1       3.780   6.522  -2.208  0.00  0.00    -0.386 OA
ATOM     36  H   UNL     1       3.700   7.483  -2.138  0.00  0.00    +0.210 HD
ENDBRANCH  28  35
BRANCH  29  37
ATOM     37  C   UNL     1       5.192   4.103  -2.772  0.00  0.00    +0.190 C 
BRANCH  37  38
ATOM     38  O   UNL     1       5.349   2.690  -2.918  0.00  0.00    -0.392 OA
ATOM     39  H   UNL     1       5.704   2.420  -3.776  0.00  0.00    +0.210 HD
ENDBRANCH  37  38
ENDBRANCH  29  37
ENDBRANCH  24  25
ENDBRANCH  23  24
ENDBRANCH  22  23
ENDBRANCH  21  22
ENDBRANCH   1  21
TORSDOF 20
