REMARK  Name = ZINC64045021
REMARK  7 active torsions:
REMARK  status: ('A' for Active; 'I' for Inactive)
REMARK    1  A    between atoms: C_7  and  C_10
REMARK    2  A    between atoms: C_10  and  C_11
REMARK    3  A    between atoms: C_11  and  N_12
REMARK    4  A    between atoms: C_13  and  C_15
REMARK    5  A    between atoms: C_18  and  C_21
REMARK    6  A    between atoms: C_21  and  O_22
REMARK    7  A    between atoms: O_22  and  C_23
REMARK                            x       y       z     vdW  Elec       q    Type
REMARK                         _______ _______ _______ _____ _____    ______ ____
ROOT
ATOM      1  N   UNL     1      -0.458  -4.798  -1.460  0.00  0.00    -0.313 N 
ATOM      2  C   UNL     1      -0.811  -5.380  -2.623  0.00  0.00    +0.237 C 
ATOM      3  O   UNL     1      -0.371  -4.957  -3.671  0.00  0.00    -0.274 OA
ATOM      4  H   UNL     1      -0.810  -5.136  -0.622  0.00  0.00    +0.149 HD
ENDROOT
BRANCH   2   5
ATOM      5  C   UNL     1      -1.752  -6.557  -2.622  0.00  0.00    +0.204 C 
ATOM      6  C   UNL     1      -3.194  -6.093  -2.545  0.00  0.00    +0.051 C 
ATOM      7  C   UNL     1      -3.885  -6.772  -3.436  0.00  0.00    +0.161 C 
ATOM      8  O   UNL     1      -3.118  -7.656  -4.118  0.00  0.00    -0.407 OA
ATOM      9  N   UNL     1      -1.704  -7.272  -3.924  0.00  0.00    -0.140 NA
ATOM     10  H   UNL     1      -1.392  -6.659  -4.662  0.00  0.00    +0.168 HD
BRANCH   7  11
ATOM     11  C   UNL     1      -5.362  -6.588  -3.669  0.00  0.00    +0.305 C 
BRANCH  11  12
ATOM     12  O   UNL     1      -5.576  -6.074  -4.986  0.00  0.00    -0.481 OA
BRANCH  12  13
ATOM     13  C   UNL     1      -6.864  -5.850  -5.359  0.00  0.00    +0.156 A 
ATOM     14  C   UNL     1      -7.899  -6.112  -4.474  0.00  0.00    +0.051 A 
ATOM     15  C   UNL     1      -9.208  -5.883  -4.855  0.00  0.00    +0.042 A 
ATOM     16  C   UNL     1      -9.487  -5.392  -6.119  0.00  0.00    +0.126 A 
ATOM     17  C   UNL     1      -8.456  -5.129  -7.004  0.00  0.00    +0.080 A 
ATOM     18  C   UNL     1      -7.145  -5.351  -6.625  0.00  0.00    +0.168 A 
ATOM     19  F   UNL     1      -6.138  -5.089  -7.486  0.00  0.00    -0.202 F 
ATOM     20  F   UNL     1     -10.768  -5.170  -6.489  0.00  0.00    -0.205 F 
ENDBRANCH  12  13
ENDBRANCH  11  12
ENDBRANCH   7  11
ENDBRANCH   2   5
BRANCH   1  21
ATOM     21  C   UNL     1       0.457  -3.653  -1.462  0.00  0.00    +0.108 C 
BRANCH  21  22
ATOM     22  C   UNL     1       0.691  -3.186  -0.024  0.00  0.00    +0.052 C 
BRANCH  22  29
ATOM     23  C   UNL     1      -0.016   1.348   0.009  0.00  0.00    +0.001 A 
ATOM     24  C   UNL     1       1.166   2.101   0.002  0.00  0.00    +0.002 A 
ATOM     25  C   UNL     1       2.391   1.535  -0.013  0.00  0.00    +0.026 A 
ATOM     26  C   UNL     1       2.529   0.120  -0.022  0.00  0.00    +0.043 A 
ATOM     27  N   UNL     1       3.587  -0.654  -0.037  0.00  0.00    -0.380 N 
ATOM     28  C   UNL     1       3.143  -2.053  -0.041  0.00  0.00    +0.144 C 
ATOM     29  C   UNL     1       1.631  -2.008  -0.025  0.00  0.00    -0.040 C 
ATOM     30  C   UNL     1       1.295  -0.698  -0.014  0.00  0.00    -0.001 A 
ATOM     31  C   UNL     1       0.002  -0.004   0.002  0.00  0.00    +0.010 A 
ATOM     32  H   UNL     1       4.509  -0.353  -0.045  0.00  0.00    +0.160 HD
ENDBRANCH  22  29
ENDBRANCH  21  22
ENDBRANCH   1  21
TORSDOF 7
