REMARK  Name = ZINC06600056
REMARK  17 active torsions:
REMARK  status: ('A' for Active; 'I' for Inactive)
REMARK    1  A    between atoms: C_1  and  C_2
REMARK    2  A    between atoms: C_2  and  O_3
REMARK    3  A    between atoms: O_3  and  C_4
REMARK    4  A    between atoms: C_4  and  C_5
REMARK    5  A    between atoms: C_5  and  C_6
REMARK    6  A    between atoms: C_6  and  N_7
REMARK    7  A    between atoms: N_7  and  C_8
REMARK    8  A    between atoms: C_8  and  C_10
REMARK    9  A    between atoms: C_8  and  C_17
REMARK   10  A    between atoms: N_19  and  C_20
REMARK   11  A    between atoms: C_20  and  C_21
REMARK   12  A    between atoms: C_21  and  C_22
REMARK   13  A    between atoms: C_22  and  C_23
REMARK   14  A    between atoms: C_22  and  C_24
REMARK   15  A    between atoms: C_25  and  C_27
REMARK   16  A    between atoms: C_28  and  N_35
REMARK   17  A    between atoms: C_29  and  C_32
REMARK                            x       y       z     vdW  Elec       q    Type
REMARK                         _______ _______ _______ _____ _____    ______ ____
ROOT
ATOM      1  N   UNL     1       2.515  -3.944  -3.733  0.00  0.00    -0.281 N 
ATOM      2  C   UNL     1       1.822  -3.264  -4.668  0.00  0.00    +0.257 C 
ATOM      3  O   UNL     1       2.404  -2.760  -5.611  0.00  0.00    -0.269 OA
ENDROOT
BRANCH   2   4
ATOM      4  C   UNL     1       0.368  -3.131  -4.550  0.00  0.00    +0.115 A 
ATOM      5  C   UNL     1      -0.531  -2.477  -5.392  0.00  0.00    +0.076 A 
ATOM      6  C   UNL     1      -1.854  -2.557  -4.962  0.00  0.00    +0.155 A 
ATOM      7  N   UNL     1      -2.136  -3.209  -3.853  0.00  0.00    -0.203 NA
ATOM      8  S   UNL     1      -0.725  -3.768  -3.295  0.00  0.00    +0.019 S 
BRANCH   6   9
ATOM      9  C   UNL     1      -2.929  -1.917  -5.741  0.00  0.00    +0.262 C 
ATOM     10  O   UNL     1      -2.680  -1.407  -6.816  0.00  0.00    -0.269 OA
ATOM     11  N   UNL     1      -4.189  -1.896  -5.262  0.00  0.00    -0.324 N 
ATOM     12  H   UNL     1      -4.388  -2.303  -4.404  0.00  0.00    +0.145 HD
ATOM     13  H   UNL     1      -4.896  -1.475  -5.774  0.00  0.00    +0.145 HD
ENDBRANCH   6   9
BRANCH   5  14
ATOM     14  N   UNL     1      -0.146  -1.810  -6.548  0.00  0.00    -0.355 N 
ATOM     15  H   UNL     1       0.774  -1.857  -6.851  0.00  0.00    +0.142 HD
ATOM     16  H   UNL     1      -0.796  -1.296  -7.051  0.00  0.00    +0.142 HD
ENDBRANCH   5  14
ENDBRANCH   2   4
BRANCH   1  17
ATOM     17  C   UNL     1       1.840  -4.419  -2.523  0.00  0.00    +0.111 C 
BRANCH  17  18
ATOM     18  C   UNL     1       1.126  -5.739  -2.822  0.00  0.00    +0.047 C 
BRANCH  18  19
ATOM     19  C   UNL     1       0.552  -6.314  -1.526  0.00  0.00    +0.161 C 
BRANCH  19  20
ATOM     20  O   UNL     1      -0.114  -7.546  -1.805  0.00  0.00    -0.380 OA
BRANCH  20  22
ATOM     21  C   UNL     1      -1.373  -9.474  -1.070  0.00  0.00    +0.034 C 
ATOM     22  C   UNL     1      -0.689  -8.170  -0.655  0.00  0.00    +0.156 C 
ENDBRANCH  20  22
ENDBRANCH  19  20
ENDBRANCH  18  19
ENDBRANCH  17  18
ENDBRANCH   1  17
BRANCH   1  23
ATOM     23  C   UNL     1       3.943  -4.207  -3.928  0.00  0.00    +0.192 C 
BRANCH  23  24
ATOM     24  C   UNL     1       4.732  -2.966  -3.599  0.00  0.00    -0.018 A 
ATOM     25  C   UNL     1       4.446  -2.250  -2.451  0.00  0.00    +0.009 A 
ATOM     26  C   UNL     1       5.169  -1.112  -2.148  0.00  0.00    +0.038 A 
ATOM     27  C   UNL     1       6.180  -0.689  -2.995  0.00  0.00    +0.123 A 
ATOM     28  C   UNL     1       6.465  -1.407  -4.144  0.00  0.00    +0.038 A 
ATOM     29  C   UNL     1       5.744  -2.548  -4.442  0.00  0.00    +0.009 A 
ATOM     30  F   UNL     1       6.888   0.424  -2.700  0.00  0.00    -0.205 F 
ENDBRANCH  23  24
BRANCH  23  31
ATOM     31  C   UNL     1       4.374  -5.331  -3.021  0.00  0.00    +0.238 C 
ATOM     32  O   UNL     1       3.541  -5.995  -2.439  0.00  0.00    -0.273 OA
ATOM     33  N   UNL     1       5.684  -5.600  -2.857  0.00  0.00    -0.313 N 
ATOM     34  H   UNL     1       6.350  -5.069  -3.322  0.00  0.00    +0.149 HD
BRANCH  33  35
ATOM     35  C   UNL     1       6.103  -6.692  -1.976  0.00  0.00    +0.104 C 
BRANCH  35  36
ATOM     36  C   UNL     1       7.631  -6.783  -1.967  0.00  0.00    +0.022 C 
BRANCH  36  37
ATOM     37  C   UNL     1       8.068  -7.925  -1.047  0.00  0.00    -0.016 C 
ATOM     38  C   UNL     1       9.586  -8.096  -1.134  0.00  0.00    +0.007 C 
ATOM     39  C   UNL     1       7.674  -7.597   0.395  0.00  0.00    +0.007 C 
ENDBRANCH  36  37
ENDBRANCH  35  36
ENDBRANCH  33  35
ENDBRANCH  23  31
ENDBRANCH   1  23
TORSDOF 14
