REMARK  Name = ZINC06487843
REMARK  5 active torsions:
REMARK  status: ('A' for Active; 'I' for Inactive)
REMARK    1  A    between atoms: C_1  and  C_2
REMARK    2  A    between atoms: C_5  and  C_8
REMARK    3  A    between atoms: C_11  and  C_28
REMARK    4  A    between atoms: C_19  and  C_21
REMARK    5  A    between atoms: C_26  and  O_27
REMARK                            x       y       z     vdW  Elec       q    Type
REMARK                         _______ _______ _______ _____ _____    ______ ____
ROOT
ATOM      1  C   UNL     1       2.341   1.532   7.276  0.00  0.00    +0.119 C 
ATOM      2  C   UNL     1       2.440   1.739   5.784  0.00  0.00    +0.037 A 
ATOM      3  C   UNL     1       3.482   2.295   5.054  0.00  0.00    +0.067 A 
ATOM      4  N   UNL     1       3.159   2.276   3.784  0.00  0.00    -0.167 NA
ATOM      5  N   UNL     1       1.883   1.709   3.648  0.00  0.00    -0.177 N 
ATOM      6  C   UNL     1       1.440   1.379   4.897  0.00  0.00    +0.167 A 
ATOM      7  N   UNL     1       0.277   0.784   5.255  0.00  0.00    -0.207 NA
ATOM      8  C   UNL     1      -0.191   0.837   6.475  0.00  0.00    +0.154 C 
ATOM      9  S   UNL     1       0.605   1.747   7.754  0.00  0.00    -0.078 S 
ATOM     10  N   UNL     1      -1.347   0.158   6.769  0.00  0.00    -0.338 N 
ATOM     11  C   UNL     1       1.217   1.519   2.492  0.00  0.00    +0.284 C 
ATOM     12  O   UNL     1       0.077   1.096   2.510  0.00  0.00    -0.265 OA
ATOM     13  C   UNL     1       4.771   2.825   5.626  0.00  0.00    +0.068 C 
ATOM     14  H   UNL     1      -1.800  -0.349   6.078  0.00  0.00    +0.144 HD
ATOM     15  H   UNL     1      -1.710   0.185   7.669  0.00  0.00    +0.144 HD
ENDROOT
BRANCH   1  20
ATOM     16  C   UNL     1       4.095  -3.806   8.628  0.00  0.00    +0.044 C 
ATOM     17  C   UNL     1       3.637  -2.414   8.275  0.00  0.00    -0.050 A 
ATOM     18  C   UNL     1       4.270  -1.317   8.830  0.00  0.00    +0.003 A 
ATOM     19  C   UNL     1       3.851  -0.040   8.506  0.00  0.00    +0.005 A 
ATOM     20  C   UNL     1       2.799   0.140   7.628  0.00  0.00    -0.030 A 
ATOM     21  C   UNL     1       2.162  -0.957   7.078  0.00  0.00    +0.005 A 
ATOM     22  C   UNL     1       2.584  -2.234   7.398  0.00  0.00    +0.003 A 
ENDBRANCH   1  20
BRANCH  11  23
ATOM     23  C   UNL     1       1.870   1.822   1.206  0.00  0.00    +0.083 A 
ATOM     24  C   UNL     1       3.132   2.423   1.184  0.00  0.00    +0.017 A 
ATOM     25  C   UNL     1       3.734   2.711  -0.022  0.00  0.00    +0.001 A 
ATOM     26  C   UNL     1       3.098   2.401  -1.213  0.00  0.00    +0.004 A 
ATOM     27  C   UNL     1       1.854   1.801  -1.205  0.00  0.00    +0.046 A 
ATOM     28  C   UNL     1       1.232   1.505  -0.001  0.00  0.00    +0.129 A 
BRANCH  28  29
ATOM     29  O   UNL     1       0.010   0.917   0.008  0.00  0.00    -0.506 OA
ATOM     30  H   UNL     1       0.038  -0.049   0.013  0.00  0.00    +0.292 HD
ENDBRANCH  28  29
ENDBRANCH  11  23
TORSDOF 3
