REMARK  Name = ZINC64450289
REMARK  3 active torsions:
REMARK  status: ('A' for Active; 'I' for Inactive)
REMARK    1  A    between atoms: C_1  and  C_2
REMARK    2  A    between atoms: C_4  and  C_23
REMARK    3  A    between atoms: N_12  and  C_14
REMARK                            x       y       z     vdW  Elec       q    Type
REMARK                         _______ _______ _______ _____ _____    ______ ____
ROOT
ATOM      1  C   UNL     1      -0.457   1.365   0.031  0.00  0.00    +0.062 C 
ATOM      2  C   UNL     1      -0.265  -0.126  -0.068  0.00  0.00    +0.019 C 
ATOM      3  C   UNL     1      -1.232  -0.997  -0.013  0.00  0.00    -0.008 C 
ATOM      4  C   UNL     1      -2.695  -0.836   0.319  0.00  0.00    +0.061 C 
ATOM      5  C   UNL     1      -2.940  -1.667   1.587  0.00  0.00    +0.108 C 
ATOM      6  C   UNL     1      -2.154  -2.938   1.581  0.00  0.00    +0.215 C 
ATOM      7  O   UNL     1      -2.543  -3.812   2.326  0.00  0.00    -0.276 OA
ATOM      8  N   UNL     1      -1.073  -3.222   0.853  0.00  0.00    -0.295 N 
ATOM      9  C   UNL     1      -0.617  -2.369  -0.237  0.00  0.00    +0.194 C 
ATOM     10  N   UNL     1       0.827  -2.111  -0.215  0.00  0.00    -0.164 NA
ATOM     11  N   UNL     1       0.963  -0.748  -0.236  0.00  0.00    -0.277 N 
ATOM     12  H   UNL     1      -0.573  -4.027   1.056  0.00  0.00    +0.151 HD
ATOM     13  H   UNL     1       1.805  -0.280  -0.350  0.00  0.00    +0.166 HD
ENDROOT
BRANCH  10  14
ATOM     14  C   UNL     1       1.447  -2.689   0.985  0.00  0.00    +0.270 C 
ATOM     15  N   UNL     1       0.961  -1.998   2.185  0.00  0.00    -0.350 N 
ATOM     16  C   UNL     1       1.992  -1.462   2.772  0.00  0.00    +0.061 A 
ATOM     17  C   UNL     1       2.141  -0.658   3.993  0.00  0.00    +0.027 A 
ATOM     18  C   UNL     1       3.365  -0.230   4.362  0.00  0.00    +0.002 A 
ATOM     19  C   UNL     1       4.525  -0.521   3.623  0.00  0.00    +0.002 A 
ATOM     20  C   UNL     1       4.500  -1.250   2.489  0.00  0.00    +0.027 A 
ATOM     21  C   UNL     1       3.220  -1.770   1.989  0.00  0.00    +0.061 A 
ATOM     22  N   UNL     1       2.901  -2.485   0.949  0.00  0.00    -0.350 N 
ATOM     23  H   UNL     1       0.040  -1.949   2.486  0.00  0.00    +0.163 HD
ATOM     24  H   UNL     1       3.511  -2.821   0.274  0.00  0.00    +0.163 HD
ENDBRANCH  10  14
BRANCH   4  25
ATOM     25  C   UNL     1      -3.011   0.615   0.578  0.00  0.00    -0.002 A 
ATOM     26  C   UNL     1      -3.712   1.348  -0.361  0.00  0.00    +0.007 A 
ATOM     27  C   UNL     1      -4.003   2.678  -0.125  0.00  0.00    +0.003 A 
ATOM     28  C   UNL     1      -3.593   3.279   1.051  0.00  0.00    +0.041 A 
ATOM     29  C   UNL     1      -2.891   2.548   1.993  0.00  0.00    +0.159 A 
ATOM     30  C   UNL     1      -2.604   1.211   1.758  0.00  0.00    +0.162 A 
ATOM     31  F   UNL     1      -1.924   0.494   2.679  0.00  0.00    -0.202 F 
ATOM     32  F   UNL     1      -2.490   3.134   3.142  0.00  0.00    -0.202 F 
ENDBRANCH   4  25
TORSDOF 2
