REMARK  Name = ZINC20695927
REMARK  3 active torsions:
REMARK  status: ('A' for Active; 'I' for Inactive)
REMARK    1  A    between atoms: C_6  and  N_7
REMARK    2  A    between atoms: C_17  and  C_20
REMARK    3  A    between atoms: C_25  and  O_26
REMARK                            x       y       z     vdW  Elec       q    Type
REMARK                         _______ _______ _______ _____ _____    ______ ____
ROOT
ATOM      1  C   UNL     1       1.647   2.792   0.340  0.00  0.00    +0.034 A 
ATOM      2  C   UNL     1       0.268   2.790   0.277  0.00  0.00    +0.025 A 
ATOM      3  C   UNL     1      -0.425   3.991   0.192  0.00  0.00    +0.032 A 
ATOM      4  C   UNL     1       0.259   5.197   0.160  0.00  0.00    -0.017 A 
ATOM      5  C   UNL     1       1.645   5.185   0.218  0.00  0.00    +0.038 A 
ATOM      6  C   UNL     1       2.333   3.991   0.307  0.00  0.00    +0.127 A 
ATOM      7  C   UNL     1      -0.444   6.514   0.065  0.00  0.00    +0.049 C 
ATOM      8  C   UNL     1      -0.323   7.104  -1.320  0.00  0.00    -0.023 C 
ATOM      9  C   UNL     1      -1.429   7.726  -1.647  0.00  0.00    -0.030 C 
ATOM     10  C   UNL     1      -2.440   7.639  -0.520  0.00  0.00    +0.033 C 
ATOM     11  C   UNL     1      -1.964   6.403   0.298  0.00  0.00    +0.029 C 
ATOM     12  C   UNL     1      -2.510   5.155  -0.402  0.00  0.00    +0.108 C 
ATOM     13  N   UNL     1      -1.823   3.974   0.129  0.00  0.00    -0.336 N 
ATOM     14  H   UNL     1      -2.406   3.103   0.465  0.00  0.00    +0.147 HD
ENDROOT
BRANCH  12  15
ATOM     15  C   UNL     1      -2.263   5.259  -1.885  0.00  0.00    +0.015 A 
ATOM     16  C   UNL     1      -1.048   4.865  -2.413  0.00  0.00    +0.024 A 
ATOM     17  C   UNL     1      -0.821   4.961  -3.774  0.00  0.00    +0.018 A 
ATOM     18  C   UNL     1      -1.808   5.451  -4.609  0.00  0.00    +0.019 A 
ATOM     19  C   UNL     1      -3.024   5.846  -4.086  0.00  0.00    +0.047 A 
ATOM     20  C   UNL     1      -3.257   5.745  -2.722  0.00  0.00    +0.122 A 
ATOM     21 BR   UNL     1       0.843   4.422  -4.493  0.00  0.00    -0.050 Br
BRANCH  20  22
ATOM     22  O   UNL     1      -4.454   6.128  -2.206  0.00  0.00    -0.506 OA
ATOM     23  H   UNL     1      -5.242   6.514  -2.870  0.00  0.00    +0.292 HD
ENDBRANCH  20  22
ENDBRANCH  12  15
BRANCH   6  24
ATOM     24  N   UNL     1       3.812   3.996   0.369  0.00  0.00    +0.056 N 
ATOM     25  O   UNL     1       4.422   2.945   0.448  0.00  0.00    -0.126 OA
ATOM     26  O   UNL     1       4.419   5.052   0.340  0.00  0.00    -0.126 OA
ENDBRANCH   6  24
TORSDOF 3
