REMARK  Name = ZINC43262243
REMARK  8 active torsions:
REMARK  status: ('A' for Active; 'I' for Inactive)
REMARK    1  A    between atoms: C_1  and  C_2
REMARK    2  A    between atoms: C_2  and  C_4
REMARK    3  A    between atoms: C_2  and  N_21
REMARK    4  A    between atoms: C_4  and  C_6
REMARK    5  A    between atoms: C_4  and  N_12
REMARK    6  A    between atoms: N_12  and  C_13
REMARK    7  A    between atoms: N_12  and  C_14
REMARK    8  A    between atoms: C_14  and  C_15
REMARK                            x       y       z     vdW  Elec       q    Type
REMARK                         _______ _______ _______ _____ _____    ______ ____
ROOT
ATOM      1  C   UNL     1       0.802  -0.373   1.190  0.00  0.00    +0.079 C 
ENDROOT
BRANCH   1   2
ATOM      2  C   UNL     1       0.847  -1.856   0.925  0.00  0.00    +0.006 A 
ATOM      3  C   UNL     1       1.873  -2.609   0.461  0.00  0.00    +0.014 A 
ATOM      4  C   UNL     1       1.686  -3.969   0.294  0.00  0.00    +0.023 A 
ATOM      5  C   UNL     1       0.479  -4.508   0.600  0.00  0.00    +0.055 A 
ATOM      6  S   UNL     1      -0.436  -3.077   1.150  0.00  0.00    -0.085 S 
ATOM      7 BR   UNL     1      -0.085  -6.309   0.481  0.00  0.00    -0.043 Br
ENDBRANCH   1   2
BRANCH   1   9
ATOM      8  C   UNL     1      -0.309   1.773   0.554  0.00  0.00    -0.012 C 
ATOM      9  C   UNL     1      -0.151   0.294   0.196  0.00  0.00    -0.056 C 
BRANCH   9  10
ATOM     10  N   UNL     1       0.397   0.175  -1.162  0.00  0.00    +0.381 N 
ATOM     11  H   UNL     1      -0.232   0.615  -1.818  0.00  0.00    -0.090 HD
ATOM     12  H   UNL     1       1.297   0.629  -1.203  0.00  0.00    -0.090 HD
ATOM     13  H   UNL     1       0.501  -0.800  -1.399  0.00  0.00    -0.090 HD
ENDBRANCH   9  10
ENDBRANCH   1   9
BRANCH   1  14
ATOM     14  N   UNL     1       0.327  -0.134   2.559  0.00  0.00    -0.295 NA
ATOM     15  C   UNL     1       1.288  -0.644   3.546  0.00  0.00    +0.105 C 
BRANCH  14  16
ATOM     16  C   UNL     1      -1.003  -0.723   2.765  0.00  0.00    +0.120 C 
BRANCH  16  17
ATOM     17  C   UNL     1      -1.628  -0.131   4.002  0.00  0.00    -0.025 A 
ATOM     18  C   UNL     1      -1.429  -0.718   5.238  0.00  0.00    +0.028 A 
ATOM     19  C   UNL     1      -2.007  -0.159   6.331  0.00  0.00    +0.055 A 
ATOM     20  S   UNL     1      -2.863   1.238   5.623  0.00  0.00    -0.090 S 
ATOM     21  C   UNL     1      -2.389   0.987   3.920  0.00  0.00    +0.051 A 
ATOM     22 BR   UNL     1      -1.927  -0.716   8.136  0.00  0.00    -0.043 Br
ENDBRANCH  16  17
ENDBRANCH  14  16
ENDBRANCH   1  14
TORSDOF 6
