REMARK  Name = ZINC39684312
REMARK  12 active torsions:
REMARK  status: ('A' for Active; 'I' for Inactive)
REMARK    1  A    between atoms: C_1  and  C_2
REMARK    2  A    between atoms: C_2  and  C_4
REMARK    3  A    between atoms: C_2  and  N_8
REMARK    4  A    between atoms: C_4  and  C_5
REMARK    5  A    between atoms: C_4  and  C_6
REMARK    6  A    between atoms: C_4  and  C_7
REMARK    7  A    between atoms: C_9  and  C_11
REMARK    8  A    between atoms: C_22  and  C_24
REMARK    9  A    between atoms: C_26  and  O_32
REMARK   10  A    between atoms: C_28  and  O_30
REMARK   11  A    between atoms: O_30  and  C_31
REMARK   12  A    between atoms: O_32  and  C_33
REMARK                            x       y       z     vdW  Elec       q    Type
REMARK                         _______ _______ _______ _____ _____    ______ ____
ROOT
ATOM      1  C   UNL     1       2.799  -0.469   2.244  0.00  0.00    +0.100 C 
ATOM      2  C   UNL     1       2.652   0.275   3.591  0.00  0.00    +0.121 C 
ATOM      3  N   UNL     1       3.984   0.157   4.231  0.00  0.00    -0.296 N 
ATOM      4  C   UNL     1       4.945   0.324   3.115  0.00  0.00    +0.115 C 
ATOM      5  C   UNL     1       4.305  -0.434   1.935  0.00  0.00    -0.004 C 
ATOM      6  C   UNL     1       4.861  -1.853   1.856  0.00  0.00    -0.010 C 
ATOM      7  C   UNL     1       6.347  -1.794   1.492  0.00  0.00    -0.082 C 
ATOM      8  N   UNL     1       6.510  -1.109   0.203  0.00  0.00    +0.379 N 
ATOM      9  C   UNL     1       6.058   0.282   0.314  0.00  0.00    -0.082 C 
ATOM     10  C   UNL     1       4.560   0.311   0.629  0.00  0.00    -0.010 C 
ATOM     11  C   UNL     1       4.258  -0.056   5.533  0.00  0.00    +0.247 C 
ATOM     12  O   UNL     1       3.356  -0.283   6.315  0.00  0.00    -0.270 OA
ATOM     13  H   UNL     1       7.483  -1.125  -0.063  0.00  0.00    -0.086 HD
ATOM     14  H   UNL     1       5.964  -1.584  -0.499  0.00  0.00    -0.086 HD
ENDROOT
BRANCH  11  15
ATOM     15  C   UNL     1       5.657  -0.011   6.011  0.00  0.00    +0.044 A 
ATOM     16  C   UNL     1       6.626   0.669   5.273  0.00  0.00    +0.059 A 
ATOM     17  C   UNL     1       7.935   0.709   5.724  0.00  0.00    +0.124 A 
ATOM     18  C   UNL     1       8.283   0.073   6.907  0.00  0.00    +0.091 A 
ATOM     19  C   UNL     1       7.322  -0.605   7.644  0.00  0.00    +0.124 A 
ATOM     20  C   UNL     1       6.010  -0.644   7.202  0.00  0.00    +0.059 A 
BRANCH  19  21
ATOM     21  O   UNL     1       7.668  -1.226   8.802  0.00  0.00    -0.495 OA
ATOM     22  C   UNL     1       9.037  -1.140   9.200  0.00  0.00    +0.277 C 
ENDBRANCH  19  21
BRANCH  17  23
ATOM     23  O   UNL     1       8.881   1.371   5.007  0.00  0.00    -0.495 OA
ATOM     24  C   UNL     1      10.210   1.372   5.530  0.00  0.00    +0.277 C 
ENDBRANCH  17  23
ENDBRANCH  11  15
BRANCH   1  26
ATOM     25  N   UNL     1       1.519  -0.455   0.128  0.00  0.00    -0.312 N 
ATOM     26  C   UNL     1       2.025   0.242   1.165  0.00  0.00    +0.218 C 
ATOM     27  O   UNL     1       1.858   1.442   1.228  0.00  0.00    -0.275 OA
ATOM     28  H   UNL     1       1.653  -1.414   0.077  0.00  0.00    +0.149 HD
BRANCH  25  30
ATOM     29  C   UNL     1      -0.695   0.378  -0.493  0.00  0.00    +0.028 C 
ATOM     30  C   UNL     1       0.766   0.237  -0.922  0.00  0.00    +0.075 C 
BRANCH  30  31
ATOM     31  C   UNL     1       0.842  -0.571  -2.219  0.00  0.00    -0.020 C 
ATOM     32  C   UNL     1       0.056   0.152  -3.316  0.00  0.00    +0.012 C 
ATOM     33  C   UNL     1       2.303  -0.712  -2.648  0.00  0.00    +0.012 C 
ATOM     34  C   UNL     1       0.240  -1.959  -1.992  0.00  0.00    +0.012 C 
ENDBRANCH  30  31
ENDBRANCH  25  30
ENDBRANCH   1  26
TORSDOF 6
