REMARK  Name = ZINC24174404
REMARK  15 active torsions:
REMARK  status: ('A' for Active; 'I' for Inactive)
REMARK    1  A    between atoms: C_1  and  C_2
REMARK    2  A    between atoms: C_2  and  C_3
REMARK    3  A    between atoms: C_3  and  C_4
REMARK    4  A    between atoms: C_4  and  N_5
REMARK    5  A    between atoms: N_5  and  C_6
REMARK    6  A    between atoms: C_7  and  N_19
REMARK    7  A    between atoms: N_8  and  C_15
REMARK    8  A    between atoms: C_15  and  C_16
REMARK    9  A    between atoms: C_16  and  C_17
REMARK   10  A    between atoms: C_16  and  C_18
REMARK   11  A    between atoms: C_20  and  C_22
REMARK   12  A    between atoms: C_22  and  S_23
REMARK   13  A    between atoms: S_23  and  C_24
REMARK   14  A    between atoms: C_26  and  C_36
REMARK   15  A    between atoms: C_28  and  C_30
REMARK                            x       y       z     vdW  Elec       q    Type
REMARK                         _______ _______ _______ _____ _____    ______ ____
ROOT
ATOM      1  N   UNL     1       3.122   7.833   0.068  0.00  0.00    -0.264 N 
ATOM      2  C   UNL     1       1.861   7.407   0.286  0.00  0.00    +0.230 C 
ATOM      3  O   UNL     1       0.977   8.210   0.499  0.00  0.00    -0.274 OA
ENDROOT
BRANCH   1   4
ATOM      4  C   UNL     1       3.396   9.215  -0.009  0.00  0.00    +0.140 A 
ATOM      5  C   UNL     1       2.841   9.986  -1.010  0.00  0.00    +0.127 A 
ATOM      6  N   UNL     1       3.127  11.331  -1.058  0.00  0.00    -0.280 N 
ATOM      7  C   UNL     1       3.937  11.888  -0.141  0.00  0.00    +0.331 A 
ATOM      8  O   UNL     1       4.178  13.078  -0.201  0.00  0.00    -0.246 OA
ATOM      9  N   UNL     1       4.487  11.152   0.842  0.00  0.00    -0.273 N 
ATOM     10  H   UNL     1       5.151  11.628   1.579  0.00  0.00    +0.173 HD
ATOM     11  C   UNL     1       4.236   9.832   0.937  0.00  0.00    +0.277 A 
ATOM     12  O   UNL     1       4.736   9.175   1.835  0.00  0.00    -0.266 OA
BRANCH   5  13
ATOM     13  N   UNL     1       2.013   9.417  -1.948  0.00  0.00    -0.343 N 
ATOM     14  H   UNL     1       1.574  10.037  -2.743  0.00  0.00    +0.144 HD
ATOM     15  H   UNL     1       1.789   8.341  -1.903  0.00  0.00    +0.144 HD
ENDBRANCH   5  13
BRANCH   6  16
ATOM     16  C   UNL     1       2.544  12.161  -2.115  0.00  0.00    +0.131 C 
BRANCH  16  17
ATOM     17  C   UNL     1       1.202  12.722  -1.641  0.00  0.00    +0.003 C 
ATOM     18  C   UNL     1       1.433  13.670  -0.463  0.00  0.00    +0.009 C 
ATOM     19  C   UNL     1       0.535  13.486  -2.787  0.00  0.00    +0.009 C 
ENDBRANCH  16  17
ENDBRANCH   6  16
ENDBRANCH   1   4
BRANCH   1  20
ATOM     20  C   UNL     1       4.207   6.861  -0.089  0.00  0.00    +0.114 C 
BRANCH  20  21
ATOM     21  C   UNL     1       4.391   6.537  -1.573  0.00  0.00    +0.019 C 
BRANCH  21  23
ATOM     22  C   UNL     1       5.708   5.198  -3.220  0.00  0.00    +0.004 C 
ATOM     23  C   UNL     1       5.524   5.522  -1.736  0.00  0.00    -0.002 C 
ENDBRANCH  21  23
ENDBRANCH  20  21
ENDBRANCH   1  20
BRANCH   2  24
ATOM     24  C   UNL     1       1.549   5.932   0.265  0.00  0.00    +0.173 C 
BRANCH  24  25
ATOM     25  S   UNL     1      -0.214   5.683   0.589  0.00  0.00    -0.077 S 
BRANCH  25  26
ATOM     26  C   UNL     1      -0.294   3.925   0.509  0.00  0.00    +0.189 A 
ATOM     27  N   UNL     1       0.813   3.238   0.260  0.00  0.00    -0.227 NA
ATOM     28  C   UNL     1       0.793   1.917   0.192  0.00  0.00    +0.043 A 
ATOM     29  C   UNL     1      -0.402   1.246   0.384  0.00  0.00    +0.051 A 
ATOM     30  C   UNL     1      -1.553   1.996   0.639  0.00  0.00    +0.076 A 
ATOM     31  N   UNL     1      -1.458   3.322   0.698  0.00  0.00    -0.222 NA
ATOM     32  C   UNL     1       2.060   1.150  -0.091  0.00  0.00    +0.066 C 
BRANCH  30  33
ATOM     33  C   UNL     1      -2.859   1.325   0.846  0.00  0.00    +0.000 A 
ATOM     34  C   UNL     1      -2.949  -0.065   0.782  0.00  0.00    +0.010 A 
ATOM     35  C   UNL     1      -4.165  -0.685   0.981  0.00  0.00    +0.001 A 
ATOM     36  C   UNL     1      -5.297   0.071   1.233  0.00  0.00    +0.000 A 
ATOM     37  C   UNL     1      -5.214   1.450   1.292  0.00  0.00    +0.001 A 
ATOM     38  C   UNL     1      -4.002   2.081   1.101  0.00  0.00    +0.010 A 
ENDBRANCH  30  33
ENDBRANCH  25  26
ENDBRANCH  24  25
ENDBRANCH   2  24
TORSDOF 11
