REMARK  Name = ZINC23445185
REMARK  11 active torsions:
REMARK  status: ('A' for Active; 'I' for Inactive)
REMARK    1  A    between atoms: C_1  and  C_2
REMARK    2  A    between atoms: C_3  and  C_8
REMARK    3  A    between atoms: C_4  and  C_7
REMARK    4  A    between atoms: N_13  and  C_16
REMARK    5  A    between atoms: C_16  and  C_17
REMARK    6  A    between atoms: C_17  and  C_19
REMARK    7  A    between atoms: C_17  and  O_30
REMARK    8  A    between atoms: C_23  and  N_25
REMARK    9  A    between atoms: O_30  and  C_31
REMARK   10  A    between atoms: C_31  and  C_32
REMARK   11  A    between atoms: C_35  and  C_38
REMARK                            x       y       z     vdW  Elec       q    Type
REMARK                         _______ _______ _______ _____ _____    ______ ____
ROOT
ATOM      1  C   UNL     1       2.775  -4.346   3.670  0.00  0.00    +0.132 C 
ENDROOT
BRANCH   1   2
ATOM      2  C   UNL     1       3.399  -5.640   3.214  0.00  0.00    -0.019 A 
ATOM      3  C   UNL     1       4.457  -6.184   3.919  0.00  0.00    +0.006 A 
ATOM      4  C   UNL     1       5.032  -7.370   3.504  0.00  0.00    +0.002 A 
ATOM      5  C   UNL     1       4.551  -8.017   2.382  0.00  0.00    +0.023 A 
ATOM      6  C   UNL     1       3.489  -7.474   1.671  0.00  0.00    +0.030 A 
ATOM      7  C   UNL     1       2.909  -6.285   2.095  0.00  0.00    +0.029 A 
BRANCH   6   8
ATOM      8  N   UNL     1       3.000  -8.126   0.537  0.00  0.00    -0.330 N 
ATOM      9  C   UNL     1       4.035  -8.194  -0.526  0.00  0.00    +0.105 C 
ATOM     10  C   UNL     1       3.539  -9.349  -1.431  0.00  0.00    +0.020 C 
ATOM     11  C   UNL     1       2.959 -10.359  -0.415  0.00  0.00    +0.020 C 
ATOM     12  C   UNL     1       2.644  -9.528   0.843  0.00  0.00    +0.105 C 
ENDBRANCH   6   8
ENDBRANCH   1   2
BRANCH   1  13
ATOM     13  C   UNL     1       3.569  -3.169   3.101  0.00  0.00    -0.042 C 
BRANCH  13  19
ATOM     14  C   UNL     1       1.390   1.797   2.907  0.00  0.00    +0.252 C 
ATOM     15  O   UNL     1       2.144   2.742   2.775  0.00  0.00    -0.270 OA
ATOM     16  N   UNL     1       1.843   0.642   3.434  0.00  0.00    -0.301 N 
ATOM     17  C   UNL     1       0.947  -0.511   3.608  0.00  0.00    +0.089 C 
ATOM     18  C   UNL     1       1.617  -1.741   2.976  0.00  0.00    -0.059 C 
ATOM     19  N   UNL     1       2.961  -1.908   3.546  0.00  0.00    +0.384 N 
ATOM     20  C   UNL     1       3.823  -0.764   3.221  0.00  0.00    -0.059 C 
ATOM     21  C   UNL     1       3.245   0.504   3.857  0.00  0.00    +0.089 C 
ATOM     22  H   UNL     1       2.857  -1.948   4.640  0.00  0.00    -0.082 HD
BRANCH  14  25
ATOM     23  C   UNL     1       0.093   1.116  -0.055  0.00  0.00    +0.070 C 
ATOM     24  C   UNL     1      -0.614   1.616   1.178  0.00  0.00    +0.093 A 
ATOM     25  C   UNL     1      -0.019   1.914   2.490  0.00  0.00    +0.101 A 
ATOM     26  C   UNL     1      -1.099   2.327   3.230  0.00  0.00    +0.147 A 
ATOM     27  O   UNL     1      -2.157   2.262   2.418  0.00  0.00    -0.359 OA
ATOM     28  N   UNL     1      -1.881   1.881   1.307  0.00  0.00    -0.083 NA
ATOM     29  C   UNL     1      -1.092   2.766   4.671  0.00  0.00    +0.090 C 
ENDBRANCH  14  25
ENDBRANCH  13  19
ENDBRANCH   1  13
BRANCH   1  30
ATOM     30  O   UNL     1       2.793  -4.287   5.098  0.00  0.00    -0.369 OA
BRANCH  30  31
ATOM     31  C   UNL     1       1.630  -4.841   5.717  0.00  0.00    +0.195 C 
BRANCH  31  32
ATOM     32  C   UNL     1       1.755  -4.725   7.215  0.00  0.00    -0.022 A 
ATOM     33  C   UNL     1       2.339  -5.750   7.938  0.00  0.00    +0.007 A 
ATOM     34  C   UNL     1       2.462  -5.649   9.308  0.00  0.00    +0.019 A 
ATOM     35  C   UNL     1       1.985  -4.514   9.966  0.00  0.00    +0.052 A 
ATOM     36  C   UNL     1       1.391  -3.486   9.231  0.00  0.00    +0.019 A 
ATOM     37  C   UNL     1       1.280  -3.598   7.861  0.00  0.00    +0.007 A 
BRANCH  35  38
ATOM     38  C   UNL     1       2.104  -4.405  11.389  0.00  0.00    +0.099 C 
ATOM     39  N   UNL     1       2.198  -4.318  12.518  0.00  0.00    -0.191 NA
ENDBRANCH  35  38
ENDBRANCH  31  32
ENDBRANCH  30  31
ENDBRANCH   1  30
TORSDOF 9
