REMARK  Name = ZINC36266126
REMARK  3 active torsions:
REMARK  status: ('A' for Active; 'I' for Inactive)
REMARK    1  A    between atoms: C_2  and  S_8
REMARK    2  A    between atoms: S_8  and  N_11
REMARK    3  A    between atoms: N_11  and  C_12
REMARK                            x       y       z     vdW  Elec       q    Type
REMARK                         _______ _______ _______ _____ _____    ______ ____
ROOT
ATOM      1  N   UNL     1       1.769   4.275   1.494  0.00  0.00    -0.187 NA
ATOM      2  H   UNL     1       1.147   4.611   2.158  0.00  0.00    +0.148 HD
ENDROOT
BRANCH   1   3
ATOM      3  C   UNL     1       3.173   4.057   1.850  0.00  0.00    +0.074 C 
ATOM      4  C   UNL     1       3.325   2.689   2.521  0.00  0.00    +0.001 C 
ATOM      5  C   UNL     1       4.785   2.479   2.927  0.00  0.00    -0.080 C 
ATOM      6  N   UNL     1       5.181   3.507   3.898  0.00  0.00    +0.383 N 
ATOM      7  C   UNL     1       5.052   4.835   3.292  0.00  0.00    -0.067 C 
ATOM      8  C   UNL     1       3.630   5.147   2.826  0.00  0.00    +0.008 C 
ATOM      9  C   UNL     1       5.680   5.956   4.130  0.00  0.00    -0.012 C 
ATOM     10  C   UNL     1       6.988   5.682   3.369  0.00  0.00    -0.003 C 
ATOM     11  C   UNL     1       6.118   5.128   2.227  0.00  0.00    -0.012 C 
ATOM     12  H   UNL     1       4.584   3.450   4.710  0.00  0.00    -0.085 HD
ATOM     13  H   UNL     1       6.139   3.357   4.176  0.00  0.00    -0.085 HD
ENDBRANCH   1   3
BRANCH   1  14
ATOM     14  S   UNL     1       1.244   3.949  -0.042  0.00  0.00    +0.061 S 
ATOM     15  O   UNL     1       2.170   4.565  -0.927  0.00  0.00    -0.153 OA
ATOM     16  O   UNL     1      -0.145   4.245  -0.068  0.00  0.00    -0.153 OA
BRANCH  14  18
ATOM     17  C   UNL     1       2.272   1.707  -1.229  0.00  0.00    +0.057 A 
ATOM     18  C   UNL     1       1.395   2.211  -0.286  0.00  0.00    +0.132 A 
ATOM     19  C   UNL     1       0.651   1.346   0.448  0.00  0.00    +0.106 A 
ATOM     20  S   UNL     1       1.186  -0.234  -0.189  0.00  0.00    -0.063 S 
ATOM     21  C   UNL     1       2.363   0.364  -1.391  0.00  0.00    +0.081 A 
ATOM     22 CL   UNL     1       3.364  -0.540  -2.484  0.00  0.00    -0.076 Cl
ATOM     23 CL   UNL     1      -0.516   1.686   1.686  0.00  0.00    -0.074 Cl
ENDBRANCH  14  18
ENDBRANCH   1  14
TORSDOF 3
