REMARK  Name = ZINC62243083
REMARK  4 active torsions:
REMARK  status: ('A' for Active; 'I' for Inactive)
REMARK    1  A    between atoms: C_8  and  O_9
REMARK    2  A    between atoms: C_10  and  N_12
REMARK    3  A    between atoms: C_13  and  C_19
REMARK    4  A    between atoms: C_14  and  C_17
REMARK                            x       y       z     vdW  Elec       q    Type
REMARK                         _______ _______ _______ _____ _____    ______ ____
ROOT
ATOM      1  C   UNL     1      -0.196   1.334  -0.165  0.00  0.00    +0.003 A 
ATOM      2  C   UNL     1       0.932   2.097  -0.169  0.00  0.00    +0.012 A 
ATOM      3  C   UNL     1       2.194   1.483  -0.136  0.00  0.00    +0.026 A 
ATOM      4  C   UNL     1       2.281   0.070  -0.098  0.00  0.00    +0.011 A 
ATOM      5  C   UNL     1       3.544  -0.543  -0.065  0.00  0.00    +0.011 A 
ATOM      6  C   UNL     1       4.669   0.225  -0.071  0.00  0.00    +0.004 A 
ATOM      7  C   UNL     1       4.589   1.615  -0.108  0.00  0.00    +0.046 A 
ATOM      8  C   UNL     1       3.379   2.248  -0.140  0.00  0.00    +0.125 A 
ATOM      9  C   UNL     1       1.097  -0.696  -0.093  0.00  0.00    +0.075 A 
ATOM     10  C   UNL     1      -0.123  -0.055  -0.127  0.00  0.00    +0.028 A 
ENDROOT
BRANCH   9  11
ATOM     11  N   UNL     1       1.159  -2.093  -0.057  0.00  0.00    -0.207 N 
ATOM     12  C   UNL     1       0.515  -2.904   0.809  0.00  0.00    +0.177 A 
ATOM     13  C   UNL     1       0.868  -4.196   0.476  0.00  0.00    +0.157 A 
ATOM     14  N   UNL     1       1.710  -4.145  -0.573  0.00  0.00    -0.126 NA
ATOM     15  N   UNL     1       1.898  -2.918  -0.915  0.00  0.00    -0.060 NA
BRANCH  12  16
ATOM     16  C   UNL     1      -0.410  -2.481   1.921  0.00  0.00    +0.437 C 
ATOM     17  F   UNL     1      -1.727  -2.461   1.451  0.00  0.00    -0.164 F 
ATOM     18  F   UNL     1      -0.307  -3.387   2.983  0.00  0.00    -0.164 F 
ATOM     19  F   UNL     1      -0.053  -1.203   2.364  0.00  0.00    -0.164 F 
ENDBRANCH  12  16
BRANCH  13  20
ATOM     20  C   UNL     1       0.405  -5.416   1.149  0.00  0.00    +0.282 C 
ATOM     21  O   UNL     1       0.785  -6.502   0.766  0.00  0.00    -0.294 OA
ENDBRANCH  13  20
ENDBRANCH   9  11
BRANCH   8  22
ATOM     22  O   UNL     1       3.317   3.604  -0.176  0.00  0.00    -0.506 OA
ATOM     23  H   UNL     1       3.288   4.020   0.696  0.00  0.00    +0.292 HD
ENDBRANCH   8  22
TORSDOF 4
