REMARK  Name = ZINC21248470
REMARK  6 active torsions:
REMARK  status: ('A' for Active; 'I' for Inactive)
REMARK    1  A    between atoms: C_1  and  N_2
REMARK    2  A    between atoms: N_2  and  C_3
REMARK    3  A    between atoms: N_2  and  C_4
REMARK    4  A    between atoms: C_7  and  C_10
REMARK    5  A    between atoms: C_15  and  C_25
REMARK    6  A    between atoms: C_29  and  N_31
REMARK                            x       y       z     vdW  Elec       q    Type
REMARK                         _______ _______ _______ _____ _____    ______ ____
ROOT
ATOM      1  C   UNL     1       3.874   3.302  -1.796  0.00  0.00    +0.032 C 
ATOM      2  C   UNL     1       2.433   3.353  -1.292  0.00  0.00    +0.059 C 
ATOM      3  C   UNL     1       1.971   1.957  -0.905  0.00  0.00    +0.017 C 
ATOM      4  C   UNL     1       2.417   0.886  -1.580  0.00  0.00    +0.036 C 
ATOM      5  C   UNL     1       2.009  -0.548  -1.337  0.00  0.00    +0.136 C 
ATOM      6  N   UNL     1       1.264  -0.756  -0.113  0.00  0.00    -0.331 N 
ATOM      7  C   UNL     1       0.007  -0.184   0.069  0.00  0.00    +0.049 A 
ATOM      8  C   UNL     1      -1.135  -0.965   0.153  0.00  0.00    +0.025 A 
ATOM      9  C   UNL     1      -2.371  -0.353   0.270  0.00  0.00    +0.002 A 
ATOM     10  C   UNL     1      -2.471   1.026   0.303  0.00  0.00    +0.002 A 
ATOM     11  C   UNL     1      -1.330   1.809   0.238  0.00  0.00    +0.025 A 
ATOM     12  C   UNL     1      -0.093   1.198   0.139  0.00  0.00    +0.052 A 
ATOM     13  N   UNL     1       1.095   1.921   0.132  0.00  0.00    -0.316 N 
ATOM     14  C   UNL     1       3.359   1.041  -2.624  0.00  0.00    +0.163 C 
ATOM     15  O   UNL     1       3.736   0.053  -3.224  0.00  0.00    -0.292 OA
ATOM     16  C   UNL     1       3.909   2.379  -3.019  0.00  0.00    +0.088 C 
ATOM     17  H   UNL     1       1.689  -1.374   0.692  0.00  0.00    +0.147 HD
ATOM     18  H   UNL     1       1.305   2.491   1.049  0.00  0.00    +0.152 HD
ENDROOT
BRANCH   5  19
ATOM     19  C   UNL     1       1.163  -1.008  -2.496  0.00  0.00    -0.021 A 
ATOM     20  C   UNL     1       1.623  -2.008  -3.333  0.00  0.00    +0.007 A 
ATOM     21  C   UNL     1       0.846  -2.434  -4.394  0.00  0.00    +0.022 A 
ATOM     22  C   UNL     1      -0.389  -1.852  -4.623  0.00  0.00    +0.071 A 
ATOM     23  C   UNL     1      -0.846  -0.849  -3.788  0.00  0.00    +0.145 A 
ATOM     24  C   UNL     1      -0.070  -0.427  -2.725  0.00  0.00    +0.040 A 
ATOM     25 CL   UNL     1      -1.363  -2.382  -5.959  0.00  0.00    -0.081 Cl
BRANCH  23  26
ATOM     26  N   UNL     1      -2.166  -0.226  -4.034  0.00  0.00    +0.058 N 
ATOM     27  O   UNL     1      -2.568   0.658  -3.299  0.00  0.00    -0.126 OA
ATOM     28  O   UNL     1      -2.850  -0.597  -4.971  0.00  0.00    -0.126 OA
ENDBRANCH  23  26
ENDBRANCH   5  19
BRANCH   1  32
ATOM     29  C   UNL     1       5.160   7.224  -2.905  0.00  0.00    +0.029 A 
ATOM     30  C   UNL     1       5.833   6.527  -1.910  0.00  0.00    +0.023 A 
ATOM     31  C   UNL     1       5.415   5.260  -1.554  0.00  0.00    +0.006 A 
ATOM     32  C   UNL     1       4.328   4.685  -2.187  0.00  0.00    -0.043 A 
ATOM     33  C   UNL     1       3.659   5.374  -3.182  0.00  0.00    +0.006 A 
ATOM     34  C   UNL     1       4.069   6.644  -3.539  0.00  0.00    +0.023 A 
BRANCH  29  36
ATOM     35  C   UNL     1       6.732   9.116  -2.598  0.00  0.00    +0.129 C 
ATOM     36  N   UNL     1       5.581   8.506  -3.268  0.00  0.00    -0.336 N 
ATOM     37  C   UNL     1       4.870   9.240  -4.318  0.00  0.00    +0.129 C 
ENDBRANCH  29  36
ENDBRANCH   1  32
TORSDOF 4
