REMARK  Name = ZINC14474635
REMARK  8 active torsions:
REMARK  status: ('A' for Active; 'I' for Inactive)
REMARK    1  A    between atoms: C_1  and  C_2
REMARK    2  A    between atoms: C_2  and  C_3
REMARK    3  A    between atoms: C_3  and  C_5
REMARK    4  A    between atoms: C_3  and  N_6
REMARK    5  A    between atoms: N_6  and  S_7
REMARK    6  A    between atoms: S_7  and  C_10
REMARK    7  A    between atoms: C_23  and  C_26
REMARK    8  A    between atoms: C_31  and  O_32
REMARK                            x       y       z     vdW  Elec       q    Type
REMARK                         _______ _______ _______ _____ _____    ______ ____
ROOT
ATOM      1  C   UNL     1      -5.237   3.229   1.975  0.00  0.00    +0.106 A 
ATOM      2  C   UNL     1      -4.965   3.199   3.331  0.00  0.00    +0.030 A 
ATOM      3  C   UNL     1      -3.812   2.600   3.794  0.00  0.00    +0.025 A 
ATOM      4  C   UNL     1      -2.915   2.021   2.903  0.00  0.00    +0.031 A 
ATOM      5  C   UNL     1      -3.189   2.058   1.538  0.00  0.00    -0.018 A 
ATOM      6  C   UNL     1      -4.354   2.651   1.081  0.00  0.00    +0.034 A 
ATOM      7  C   UNL     1      -2.234   1.398   0.620  0.00  0.00    +0.049 C 
ATOM      8  C   UNL     1      -2.088   1.820  -0.796  0.00  0.00    -0.023 C 
ATOM      9  C   UNL     1      -0.827   1.630  -1.167  0.00  0.00    -0.030 C 
ATOM     10  C   UNL     1      -0.013   1.086   0.008  0.00  0.00    +0.033 C 
ATOM     11  C   UNL     1      -0.807   1.618   1.208  0.00  0.00    +0.029 C 
ATOM     12  C   UNL     1      -0.764   0.800   2.486  0.00  0.00    +0.108 C 
ATOM     13  N   UNL     1      -1.744   1.433   3.396  0.00  0.00    -0.336 N 
ATOM     14  H   UNL     1      -1.573   1.440   4.351  0.00  0.00    +0.147 HD
ENDROOT
BRANCH  12  15
ATOM     15  C   UNL     1      -1.157  -0.627   2.204  0.00  0.00    +0.014 A 
ATOM     16  C   UNL     1      -2.464  -1.034   2.388  0.00  0.00    +0.009 A 
ATOM     17  C   UNL     1      -2.825  -2.343   2.128  0.00  0.00    +0.001 A 
ATOM     18  C   UNL     1      -1.879  -3.249   1.685  0.00  0.00    +0.004 A 
ATOM     19  C   UNL     1      -0.570  -2.847   1.501  0.00  0.00    +0.046 A 
ATOM     20  C   UNL     1      -0.207  -1.533   1.754  0.00  0.00    +0.122 A 
BRANCH  20  21
ATOM     21  O   UNL     1       1.079  -1.134   1.568  0.00  0.00    -0.506 OA
ATOM     22  H   UNL     1       1.640  -1.235   2.349  0.00  0.00    +0.292 HD
ENDBRANCH  20  21
ENDBRANCH  12  15
BRANCH   1  23
ATOM     23  S   UNL     1      -6.706   4.003   1.387  0.00  0.00    +0.059 S 
ATOM     24  O   UNL     1      -6.997   3.417   0.126  0.00  0.00    -0.153 OA
ATOM     25  O   UNL     1      -7.632   3.988   2.465  0.00  0.00    -0.153 OA
BRANCH  23  26
ATOM     26  N   UNL     1      -6.341   5.592   1.098  0.00  0.00    -0.187 NA
ATOM     27  H   UNL     1      -6.762   6.290   1.624  0.00  0.00    +0.148 HD
BRANCH  26  28
ATOM     28  C   UNL     1      -5.381   5.944   0.049  0.00  0.00    +0.073 C 
ATOM     29  C   UNL     1      -6.134   6.261  -1.245  0.00  0.00    +0.025 C 
BRANCH  28  31
ATOM     30  C   UNL     1      -3.727   6.815   1.706  0.00  0.00    +0.005 C 
ATOM     31  C   UNL     1      -4.576   7.170   0.484  0.00  0.00    +0.017 C 
ENDBRANCH  28  31
ENDBRANCH  26  28
ENDBRANCH  23  26
ENDBRANCH   1  23
TORSDOF 6
