REMARK  Name = ZINC33663017
REMARK  2 active torsions:
REMARK  status: ('A' for Active; 'I' for Inactive)
REMARK    1  A    between atoms: C_6  and  N_7
REMARK    2  A    between atoms: C_8  and  C_10
REMARK                            x       y       z     vdW  Elec       q    Type
REMARK                         _______ _______ _______ _____ _____    ______ ____
ROOT
ATOM      1  C   UNL     1      -6.352   2.179   0.341  0.00  0.00    +0.238 C 
ATOM      2  C   UNL     1      -4.886   1.944   0.616  0.00  0.00    +0.191 C 
ATOM      3  C   UNL     1      -4.047   3.043  -0.110  0.00  0.00    +0.187 C 
ATOM      4  C   UNL     1      -4.419   4.324   0.579  0.00  0.00    +0.209 C 
ATOM      5  C   UNL     1      -5.939   4.524   0.226  0.00  0.00    +0.286 C 
ATOM      6  O   UNL     1      -6.703   3.503   0.816  0.00  0.00    -0.333 OA
ATOM      7  O   UNL     1      -6.113   5.870   0.657  0.00  0.00    -0.317 OA
ATOM      8  C   UNL     1      -4.899   6.529   0.223  0.00  0.00    +0.174 C 
ATOM      9  O   UNL     1      -3.857   5.539   0.099  0.00  0.00    -0.338 OA
ATOM     10  C   UNL     1      -5.145   7.185  -1.134  0.00  0.00    +0.065 C 
ATOM     11  C   UNL     1      -3.867   7.887  -1.601  0.00  0.00    +0.005 C 
ATOM     12  C   UNL     1      -3.465   8.948  -0.574  0.00  0.00    +0.000 C 
ATOM     13  C   UNL     1      -3.208   8.280   0.778  0.00  0.00    +0.005 C 
ATOM     14  C   UNL     1      -4.484   7.580   1.251  0.00  0.00    +0.065 C 
ATOM     15  O   UNL     1      -2.730   2.533   0.037  0.00  0.00    -0.340 OA
ATOM     16  C   UNL     1      -2.874   1.096   0.079  0.00  0.00    +0.171 C 
ATOM     17  O   UNL     1      -4.285   0.767   0.082  0.00  0.00    -0.340 OA
ATOM     18  C   UNL     1      -2.216   0.482  -1.155  0.00  0.00    +0.065 C 
ATOM     19  C   UNL     1      -0.721   0.813  -1.154  0.00  0.00    +0.005 C 
ATOM     20  C   UNL     1      -0.076   0.252   0.114  0.00  0.00    +0.000 C 
ATOM     21  C   UNL     1      -0.732   0.885   1.344  0.00  0.00    +0.005 C 
ATOM     22  C   UNL     1      -2.226   0.555   1.351  0.00  0.00    +0.065 C 
ENDROOT
BRANCH   1  24
ATOM     23  N   UNL     1      -6.431   0.918  -1.786  0.00  0.00    -0.283 N 
ATOM     24  C   UNL     1      -6.610   2.088  -1.141  0.00  0.00    +0.249 C 
ATOM     25  O   UNL     1      -6.978   3.067  -1.754  0.00  0.00    -0.273 OA
ATOM     26  H   UNL     1      -6.015   0.052  -1.249  0.00  0.00    +0.155 HD
BRANCH  23  32
ATOM     27  C   UNL     1      -7.853   1.517  -3.643  0.00  0.00    +0.025 A 
ATOM     28  C   UNL     1      -8.188   1.407  -4.979  0.00  0.00    +0.023 A 
ATOM     29  C   UNL     1      -7.457   0.579  -5.811  0.00  0.00    +0.059 A 
ATOM     30  C   UNL     1      -6.384  -0.139  -5.308  0.00  0.00    +0.061 A 
ATOM     31  C   UNL     1      -6.042  -0.028  -3.974  0.00  0.00    +0.044 A 
ATOM     32  C   UNL     1      -6.775   0.804  -3.138  0.00  0.00    +0.035 A 
ATOM     33 CL   UNL     1      -5.467  -1.177  -6.355  0.00  0.00    -0.082 Cl
ATOM     34 CL   UNL     1      -7.884   0.438  -7.488  0.00  0.00    -0.082 Cl
ENDBRANCH  23  32
ENDBRANCH   1  24
TORSDOF 2
