REMARK  Name = ZINC24746554
REMARK  11 active torsions:
REMARK  status: ('A' for Active; 'I' for Inactive)
REMARK    1  A    between atoms: C_1  and  C_2
REMARK    2  A    between atoms: C_2  and  N_3
REMARK    3  A    between atoms: C_7  and  S_31
REMARK    4  A    between atoms: C_11  and  S_12
REMARK    5  A    between atoms: S_12  and  C_13
REMARK    6  A    between atoms: C_13  and  C_14
REMARK    7  A    between atoms: N_16  and  C_17
REMARK    8  A    between atoms: N_16  and  C_18
REMARK    9  A    between atoms: C_18  and  C_19
REMARK   10  A    between atoms: C_18  and  C_25
REMARK   11  A    between atoms: S_31  and  N_34
REMARK                            x       y       z     vdW  Elec       q    Type
REMARK                         _______ _______ _______ _____ _____    ______ ____
ROOT
ATOM      1  S   UNL     1      -1.569   8.371  -4.174  0.00  0.00    -0.078 S 
ENDROOT
BRANCH   1  10
ATOM      2  N   UNL     1      -3.076   6.104  -3.603  0.00  0.00    -0.319 N 
ATOM      3  C   UNL     1      -3.309   5.256  -2.532  0.00  0.00    +0.070 A 
ATOM      4  C   UNL     1      -4.098   4.130  -2.351  0.00  0.00    +0.030 A 
ATOM      5  C   UNL     1      -4.113   3.491  -1.128  0.00  0.00    +0.030 A 
ATOM      6  C   UNL     1      -3.344   3.968  -0.077  0.00  0.00    +0.107 A 
ATOM      7  C   UNL     1      -2.559   5.088  -0.237  0.00  0.00    +0.058 A 
ATOM      8  C   UNL     1      -2.528   5.743  -1.470  0.00  0.00    +0.092 A 
ATOM      9  N   UNL     1      -1.869   6.839  -1.929  0.00  0.00    -0.222 NA
ATOM     10  C   UNL     1      -2.189   7.054  -3.181  0.00  0.00    +0.170 A 
BRANCH   6  11
ATOM     11  S   UNL     1      -3.377   3.138   1.477  0.00  0.00    +0.056 S 
ATOM     12  O   UNL     1      -4.612   2.438   1.538  0.00  0.00    -0.153 OA
ATOM     13  O   UNL     1      -2.994   4.094   2.456  0.00  0.00    -0.153 OA
BRANCH  11  14
ATOM     14  N   UNL     1      -2.184   1.990   1.444  0.00  0.00    -0.204 NA
ATOM     15  H   UNL     1      -2.172   1.447   2.401  0.00  0.00    +0.144 HD
ATOM     16  H   UNL     1      -1.211   2.477   1.287  0.00  0.00    +0.144 HD
ENDBRANCH  11  14
ENDBRANCH   6  11
BRANCH   2  18
ATOM     17  C   UNL     1      -4.973   6.800  -4.980  0.00  0.00    +0.027 C 
ATOM     18  C   UNL     1      -3.670   6.000  -4.938  0.00  0.00    +0.121 C 
ENDBRANCH   2  18
ENDBRANCH   1  10
BRANCH   1  19
ATOM     19  C   UNL     1      -0.485   9.185  -2.974  0.00  0.00    +0.173 C 
BRANCH  19  20
ATOM     20  C   UNL     1       0.174  10.376  -3.620  0.00  0.00    +0.226 C 
ATOM     21  O   UNL     1      -0.066  10.649  -4.777  0.00  0.00    -0.275 OA
ATOM     22  N   UNL     1       1.030  11.139  -2.911  0.00  0.00    -0.293 N 
ATOM     23  C   UNL     1       1.319  10.810  -1.514  0.00  0.00    +0.133 C 
BRANCH  22  24
ATOM     24  C   UNL     1       1.670  12.298  -3.539  0.00  0.00    +0.136 C 
BRANCH  24  25
ATOM     25  C   UNL     1       2.494  13.033  -2.514  0.00  0.00    -0.023 A 
ATOM     26  C   UNL     1       3.480  12.365  -1.812  0.00  0.00    +0.006 A 
ATOM     27  C   UNL     1       4.239  13.040  -0.875  0.00  0.00    +0.000 A 
ATOM     28  C   UNL     1       4.006  14.381  -0.633  0.00  0.00    +0.000 A 
ATOM     29  C   UNL     1       3.017  15.048  -1.331  0.00  0.00    +0.000 A 
ATOM     30  C   UNL     1       2.261  14.374  -2.272  0.00  0.00    +0.006 A 
ENDBRANCH  24  25
BRANCH  24  31
ATOM     31  C   UNL     1       2.562  11.832  -4.661  0.00  0.00    -0.023 A 
ATOM     32  C   UNL     1       3.308  10.678  -4.517  0.00  0.00    +0.006 A 
ATOM     33  C   UNL     1       4.122  10.248  -5.548  0.00  0.00    +0.000 A 
ATOM     34  C   UNL     1       4.199  10.978  -6.719  0.00  0.00    +0.000 A 
ATOM     35  C   UNL     1       3.457  12.136  -6.861  0.00  0.00    +0.000 A 
ATOM     36  C   UNL     1       2.638  12.563  -5.832  0.00  0.00    +0.006 A 
ENDBRANCH  24  31
ENDBRANCH  22  24
ENDBRANCH  19  20
ENDBRANCH   1  19
TORSDOF 9
