REMARK  Name = ZINC40454599
REMARK  6 active torsions:
REMARK  status: ('A' for Active; 'I' for Inactive)
REMARK    1  A    between atoms: C_1  and  C_2
REMARK    2  A    between atoms: C_3  and  C_20
REMARK    3  A    between atoms: C_4  and  C_14
REMARK    4  A    between atoms: C_7  and  O_9
REMARK    5  A    between atoms: O_9  and  C_10
REMARK    6  A    between atoms: C_11  and  C_13
REMARK                            x       y       z     vdW  Elec       q    Type
REMARK                         _______ _______ _______ _____ _____    ______ ____
ROOT
ATOM      1  C   UNL     1      -0.411   1.462   0.086  0.00  0.00    +0.066 C 
ATOM      2  C   UNL     1      -0.188  -0.027   0.038  0.00  0.00    +0.053 C 
ATOM      3  C   UNL     1      -1.272  -0.852   0.005  0.00  0.00    +0.062 C 
ATOM      4  C   UNL     1      -1.017  -2.347  -0.043  0.00  0.00    +0.101 C 
ATOM      5  C   UNL     1       0.441  -2.770  -0.050  0.00  0.00    +0.070 C 
ATOM      6  C   UNL     1       0.802  -4.087  -0.092  0.00  0.00    +0.338 C 
ATOM      7  O   UNL     1      -0.141  -5.047  -0.011  0.00  0.00    -0.245 OA
ATOM      8  C   UNL     1       1.399  -1.752  -0.011  0.00  0.00    +0.049 C 
ATOM      9  N   UNL     1       1.057  -0.486   0.025  0.00  0.00    -0.256 NA
ATOM     10  C   UNL     1       2.861  -2.118  -0.014  0.00  0.00    +0.066 C 
ENDROOT
BRANCH   4  11
ATOM     11  C   UNL     1      -1.681  -2.977   1.154  0.00  0.00    -0.017 A 
ATOM     12  C   UNL     1      -2.662  -3.942   0.986  0.00  0.00    +0.007 A 
ATOM     13  C   UNL     1      -3.245  -4.494   2.116  0.00  0.00    +0.020 A 
ATOM     14  C   UNL     1      -2.832  -4.066   3.364  0.00  0.00    +0.111 A 
ATOM     15  N   UNL     1      -1.897  -3.145   3.486  0.00  0.00    -0.263 NA
ATOM     16  C   UNL     1      -1.316  -2.603   2.433  0.00  0.00    +0.115 A 
ENDBRANCH   4  11
BRANCH   6  17
ATOM     17  O   UNL     1       2.101  -4.427  -0.214  0.00  0.00    -0.465 OA
ATOM     18  C   UNL     1       2.405  -5.823  -0.252  0.00  0.00    +0.280 C 
ENDBRANCH   6  17
BRANCH   3  19
ATOM     19  C   UNL     1      -2.604  -0.326   0.016  0.00  0.00    +0.098 C 
ATOM     20  N   UNL     1      -3.661   0.090   0.024  0.00  0.00    -0.191 NA
ENDBRANCH   3  19
TORSDOF 3
