REMARK  Name = ZINC10121252
REMARK  13 active torsions:
REMARK  status: ('A' for Active; 'I' for Inactive)
REMARK    1  A    between atoms: C_1  and  C_2
REMARK    2  A    between atoms: C_2  and  C_3
REMARK    3  A    between atoms: C_3  and  C_5
REMARK    4  A    between atoms: C_3  and  C_6
REMARK    5  A    between atoms: C_11  and  O_12
REMARK    6  A    between atoms: O_12  and  C_13
REMARK    7  A    between atoms: C_13  and  C_15
REMARK    8  A    between atoms: C_13  and  C_17
REMARK    9  A    between atoms: C_15  and  C_16
REMARK   10  A    between atoms: N_19  and  C_20
REMARK   11  A    between atoms: C_23  and  S_26
REMARK   12  A    between atoms: S_26  and  N_29
REMARK   13  A    between atoms: C_32  and  C_35
REMARK                            x       y       z     vdW  Elec       q    Type
REMARK                         _______ _______ _______ _____ _____    ______ ____
ROOT
ATOM      1  C   UNL     1       5.840   2.190   0.738  0.00  0.00    +0.258 C 
ATOM      2  O   UNL     1       5.629   3.339   1.063  0.00  0.00    -0.271 OA
ATOM      3  N   UNL     1       6.996   1.592   1.091  0.00  0.00    -0.282 N 
ATOM      4  H   UNL     1       7.197   0.699   0.771  0.00  0.00    +0.155 HD
ENDROOT
BRANCH   3   5
ATOM      5  C   UNL     1       7.905   2.260   1.918  0.00  0.00    +0.034 A 
ATOM      6  C   UNL     1       9.269   2.051   1.765  0.00  0.00    +0.025 A 
ATOM      7  C   UNL     1      10.164   2.715   2.580  0.00  0.00    +0.030 A 
ATOM      8  C   UNL     1       9.703   3.580   3.556  0.00  0.00    +0.109 A 
ATOM      9  C   UNL     1       8.345   3.786   3.715  0.00  0.00    +0.030 A 
ATOM     10  C   UNL     1       7.445   3.129   2.899  0.00  0.00    +0.025 A 
BRANCH   8  11
ATOM     11  S   UNL     1      10.848   4.421   4.598  0.00  0.00    +0.074 S 
ATOM     12  O   UNL     1      12.078   4.475   3.890  0.00  0.00    -0.150 OA
ATOM     13  O   UNL     1      10.187   5.588   5.069  0.00  0.00    -0.150 OA
BRANCH  11  14
ATOM     14  N   UNL     1      11.105   3.457   5.920  0.00  0.00    -0.197 N 
ATOM     15  C   UNL     1      11.720   2.218   5.769  0.00  0.00    +0.181 A 
ATOM     16  C   UNL     1      12.011   1.279   6.794  0.00  0.00    +0.092 A 
ATOM     17  C   UNL     1      12.601   0.254   6.140  0.00  0.00    +0.136 A 
ATOM     18  O   UNL     1      12.637   0.596   4.844  0.00  0.00    -0.358 OA
ATOM     19  N   UNL     1      12.142   1.682   4.653  0.00  0.00    -0.062 NA
ATOM     20  C   UNL     1      13.118  -1.024   6.748  0.00  0.00    +0.089 C 
ATOM     21  H   UNL     1      10.827   3.756   6.800  0.00  0.00    +0.175 HD
ENDBRANCH  11  14
ENDBRANCH   8  11
ENDBRANCH   3   5
BRANCH   1  22
ATOM     22  C   UNL     1       4.812   1.430  -0.060  0.00  0.00    +0.259 C 
BRANCH  22  23
ATOM     23  C   UNL     1       5.423   0.991  -1.392  0.00  0.00    +0.051 C 
ATOM     24  C   UNL     1       4.421   0.115  -2.148  0.00  0.00    +0.008 C 
ENDBRANCH  22  23
BRANCH  22  25
ATOM     25  O   UNL     1       3.684   2.272  -0.307  0.00  0.00    -0.479 OA
BRANCH  25  31
ATOM     26  C   UNL     1       1.314   2.476  -0.348  0.00  0.00    -0.003 A 
ATOM     27  C   UNL     1       0.067   1.887  -0.274  0.00  0.00    +0.007 A 
ATOM     28  C   UNL     1      -0.045   0.522  -0.086  0.00  0.00    +0.001 A 
ATOM     29  C   UNL     1       1.092  -0.258   0.027  0.00  0.00    +0.004 A 
ATOM     30  C   UNL     1       2.341   0.326  -0.046  0.00  0.00    +0.046 A 
ATOM     31  C   UNL     1       2.456   1.696  -0.234  0.00  0.00    +0.125 A 
BRANCH  26  32
ATOM     32  C   UNL     1       1.435   3.964  -0.553  0.00  0.00    +0.019 C 
ATOM     33  C   UNL     1       0.764   4.353  -1.872  0.00  0.00    +0.012 C 
BRANCH  32  35
ATOM     34  C   UNL     1       0.979   6.201   0.461  0.00  0.00    +0.004 C 
ATOM     35  C   UNL     1       0.750   4.695   0.603  0.00  0.00    +0.004 C 
ENDBRANCH  32  35
ENDBRANCH  26  32
ENDBRANCH  25  31
ENDBRANCH  22  25
ENDBRANCH   1  22
TORSDOF 9
