REMARK  Name = ZINC09045316
REMARK  7 active torsions:
REMARK  status: ('A' for Active; 'I' for Inactive)
REMARK    1  A    between atoms: C_4  and  C_7
REMARK    2  A    between atoms: C_7  and  N_53
REMARK    3  A    between atoms: C_14  and  C_26
REMARK    4  A    between atoms: C_16  and  C_22
REMARK    5  A    between atoms: C_16  and  C_24
REMARK    6  A    between atoms: C_18  and  C_19
REMARK    7  A    between atoms: C_31  and  N_32
REMARK                            x       y       z     vdW  Elec       q    Type
REMARK                         _______ _______ _______ _____ _____    ______ ____
ROOT
ATOM      1  C   UNL     1      -1.318  -2.099  -1.257  0.00  0.00    -0.051 C 
ATOM      2  C   UNL     1      -0.099  -1.969  -0.377  0.00  0.00    -0.044 C 
ATOM      3  C   UNL     1       0.343  -0.773  -0.037  0.00  0.00    -0.051 C 
ATOM      4  C   UNL     1      -0.345   0.499  -0.443  0.00  0.00    +0.010 C 
ATOM      5  C   UNL     1      -1.464   0.300  -1.440  0.00  0.00    -0.069 C 
ATOM      6  C   UNL     1       0.718   1.472  -0.957  0.00  0.00    +0.066 C 
ATOM      7  C   UNL     1       1.678   1.803   0.186  0.00  0.00    +0.188 C 
ATOM      8  C   UNL     1       2.190   0.567   0.861  0.00  0.00    +0.065 C 
ATOM      9  C   UNL     1       1.576  -0.641   0.779  0.00  0.00    +0.163 C 
ATOM     10  N   UNL     1       3.337   0.660   1.597  0.00  0.00    -0.304 NA
ATOM     11  H   UNL     1       3.692  -0.125   2.044  0.00  0.00    +0.186 HD
ATOM     12  N   UNL     1      -1.298  -0.954  -2.191  0.00  0.00    +0.385 N 
ATOM     13  H   UNL     1      -0.396  -0.935  -2.680  0.00  0.00    -0.081 HD
ENDROOT
BRANCH   6  14
ATOM     14  C   UNL     1       1.481   0.836  -2.090  0.00  0.00    -0.011 A 
ATOM     15  C   UNL     1       2.492  -0.069  -1.821  0.00  0.00    +0.007 A 
ATOM     16  C   UNL     1       3.188  -0.656  -2.860  0.00  0.00    +0.020 A 
ATOM     17  C   UNL     1       2.882  -0.330  -4.169  0.00  0.00    +0.043 A 
ATOM     18  C   UNL     1       1.875   0.580  -4.438  0.00  0.00    +0.053 A 
ATOM     19  C   UNL     1       1.175   1.162  -3.398  0.00  0.00    +0.131 A 
ATOM     20 CL   UNL     1       3.762  -1.061  -5.475  0.00  0.00    -0.083 Cl
BRANCH  19  21
ATOM     21  N   UNL     1       0.097   2.135  -3.685  0.00  0.00    +0.057 N 
ATOM     22  O   UNL     1      -0.681   1.930  -4.599  0.00  0.00    -0.126 OA
ATOM     23  O   UNL     1      -0.012   3.141  -3.007  0.00  0.00    -0.126 OA
ENDBRANCH  19  21
ENDBRANCH   6  14
BRANCH   9  24
ATOM     24  C   UNL     1       2.110  -1.775   1.473  0.00  0.00    +0.076 C 
ATOM     25  N   UNL     1       2.534  -2.674   2.023  0.00  0.00    -0.196 NA
ENDBRANCH   9  24
BRANCH   7  26
ATOM     26  C   UNL     1       0.976   2.634   1.177  0.00  0.00    +0.091 C 
ATOM     27  N   UNL     1       0.434   3.276   1.942  0.00  0.00    -0.195 NA
ENDBRANCH   7  26
BRANCH   7  28
ATOM     28  C   UNL     1       2.819   2.563  -0.352  0.00  0.00    +0.091 C 
ATOM     29  N   UNL     1       3.699   3.149  -0.767  0.00  0.00    -0.195 NA
ENDBRANCH   7  28
BRANCH  12  30
ATOM     30  C   UNL     1      -2.385  -1.093  -3.189  0.00  0.00    -0.043 C 
BRANCH  30  34
ATOM     31  C   UNL     1      -1.498  -4.393  -5.753  0.00  0.00    +0.000 A 
ATOM     32  C   UNL     1      -2.240  -4.590  -4.604  0.00  0.00    +0.000 A 
ATOM     33  C   UNL     1      -2.527  -3.522  -3.774  0.00  0.00    +0.002 A 
ATOM     34  C   UNL     1      -2.072  -2.257  -4.093  0.00  0.00    -0.064 A 
ATOM     35  C   UNL     1      -1.335  -2.058  -5.246  0.00  0.00    +0.002 A 
ATOM     36  C   UNL     1      -1.043  -3.127  -6.073  0.00  0.00    +0.000 A 
ENDBRANCH  30  34
ENDBRANCH  12  30
TORSDOF 7
