REMARK  Name = ZINC00887379
REMARK  11 active torsions:
REMARK  status: ('A' for Active; 'I' for Inactive)
REMARK    1  A    between atoms: C_1  and  N_2
REMARK    2  A    between atoms: N_2  and  C_3
REMARK    3  A    between atoms: N_2  and  C_4
REMARK    4  A    between atoms: C_7  and  C_10
REMARK    5  A    between atoms: C_10  and  C_12
REMARK    6  A    between atoms: C_10  and  N_20
REMARK    7  A    between atoms: N_14  and  C_15
REMARK    8  A    between atoms: N_20  and  C_21
REMARK    9  A    between atoms: C_31  and  C_33
REMARK   10  A    between atoms: C_33  and  N_34
REMARK   11  A    between atoms: C_36  and  C_39
REMARK                            x       y       z     vdW  Elec       q    Type
REMARK                         _______ _______ _______ _____ _____    ______ ____
ROOT
ATOM      1  N   UNL     1       0.792  -3.152  -6.058  0.00  0.00    -0.253 N 
ATOM      2  C   UNL     1       2.136  -3.140  -5.966  0.00  0.00    +0.244 C 
ATOM      3  O   UNL     1       2.670  -2.967  -4.891  0.00  0.00    -0.273 OA
ENDROOT
BRANCH   1   4
ATOM      4  C   UNL     1       0.178  -3.352  -7.296  0.00  0.00    +0.045 A 
ATOM      5  C   UNL     1      -0.085  -2.281  -8.123  0.00  0.00    +0.024 A 
ATOM      6  C   UNL     1      -0.696  -2.469  -9.359  0.00  0.00    +0.002 A 
ATOM      7  C   UNL     1      -1.051  -3.713  -9.785  0.00  0.00    +0.008 A 
ATOM      8  C   UNL     1      -0.800  -4.831  -8.973  0.00  0.00    -0.016 A 
ATOM      9  C   UNL     1      -0.173  -4.653  -7.715  0.00  0.00    +0.004 A 
ATOM     10  C   UNL     1       0.081  -5.772  -6.906  0.00  0.00    +0.010 A 
ATOM     11  C   UNL     1      -0.272  -7.012  -7.342  0.00  0.00    +0.001 A 
ATOM     12  C   UNL     1      -0.883  -7.190  -8.582  0.00  0.00    +0.001 A 
ATOM     13  C   UNL     1      -1.155  -6.127  -9.387  0.00  0.00    +0.008 A 
ENDBRANCH   1   4
BRANCH   1  14
ATOM     14  C   UNL     1      -0.026  -2.955  -4.858  0.00  0.00    +0.197 C 
BRANCH  14  18
ATOM     15  C   UNL     1       0.781   0.903  -3.205  0.00  0.00    +0.029 A 
ATOM     16  C   UNL     1       0.863  -0.229  -2.404  0.00  0.00    +0.023 A 
ATOM     17  C   UNL     1       0.602  -1.474  -2.941  0.00  0.00    +0.008 A 
ATOM     18  C   UNL     1       0.258  -1.594  -4.275  0.00  0.00    -0.018 A 
ATOM     19  C   UNL     1       0.175  -0.470  -5.075  0.00  0.00    +0.008 A 
ATOM     20  C   UNL     1       0.430   0.779  -4.543  0.00  0.00    +0.023 A 
BRANCH  15  22
ATOM     21  C   UNL     1       0.951   3.357  -3.509  0.00  0.00    +0.129 C 
ATOM     22  N   UNL     1       1.044   2.164  -2.664  0.00  0.00    -0.336 N 
ATOM     23  C   UNL     1       1.414   2.293  -1.253  0.00  0.00    +0.129 C 
ENDBRANCH  15  22
ENDBRANCH  14  18
BRANCH  14  24
ATOM     24  C   UNL     1      -1.485  -3.050  -5.223  0.00  0.00    +0.239 C 
ATOM     25  O   UNL     1      -1.891  -2.526  -6.239  0.00  0.00    -0.273 OA
ATOM     26  N   UNL     1      -2.338  -3.718  -4.422  0.00  0.00    -0.311 N 
ATOM     27  H   UNL     1      -2.012  -4.138  -3.610  0.00  0.00    +0.149 HD
BRANCH  26  28
ATOM     28  C   UNL     1      -3.756  -3.811  -4.777  0.00  0.00    +0.073 C 
ATOM     29  C   UNL     1      -4.522  -2.596  -4.215  0.00  0.00    +0.022 C 
ATOM     30  C   UNL     1      -5.890  -3.178  -3.778  0.00  0.00    +0.002 C 
ATOM     31  C   UNL     1      -5.504  -4.562  -3.200  0.00  0.00    +0.002 C 
ATOM     32  C   UNL     1      -4.380  -5.061  -4.132  0.00  0.00    +0.022 C 
ENDBRANCH  26  28
ENDBRANCH  14  24
ENDBRANCH   1  14
BRANCH   2  33
ATOM     33  C   UNL     1       2.977  -3.344  -7.200  0.00  0.00    +0.264 C 
BRANCH  33  34
ATOM     34  N   UNL     1       4.396  -3.288  -6.839  0.00  0.00    -0.154 N 
ATOM     35  N   UNL     1       5.119  -2.222  -6.819  0.00  0.00    -0.129 NA
ATOM     36  C   UNL     1       6.337  -2.567  -6.447  0.00  0.00    +0.211 A 
ATOM     37  N   UNL     1       6.314  -3.893  -6.243  0.00  0.00    -0.107 NA
ATOM     38  N   UNL     1       5.114  -4.297  -6.487  0.00  0.00    -0.045 NA
BRANCH  36  39
ATOM     39  C   UNL     1       7.501  -1.668  -6.287  0.00  0.00    +0.060 A 
ATOM     40  C   UNL     1       8.781  -1.972  -5.910  0.00  0.00    +0.019 A 
ATOM     41  C   UNL     1       9.707  -0.956  -5.830  0.00  0.00    +0.008 A 
ATOM     42  C   UNL     1       9.325   0.313  -6.124  0.00  0.00    +0.046 A 
ATOM     43  S   UNL     1       7.602   0.097  -6.541  0.00  0.00    -0.093 S 
ENDBRANCH  36  39
ENDBRANCH  33  34
ENDBRANCH   2  33
TORSDOF 9
