REMARK  Name = ZINC35932727
REMARK  4 active torsions:
REMARK  status: ('A' for Active; 'I' for Inactive)
REMARK    1  A    between atoms: C_6  and  C_7
REMARK    2  A    between atoms: C_8  and  N_20
REMARK    3  A    between atoms: C_9  and  N_19
REMARK    4  A    between atoms: N_10  and  C_12
REMARK                            x       y       z     vdW  Elec       q    Type
REMARK                         _______ _______ _______ _____ _____    ______ ____
ROOT
ATOM      1  C   UNL     1      -1.217  -1.216   0.418  0.00  0.00    +0.116 A 
ATOM      2  C   UNL     1      -1.559  -2.062  -0.657  0.00  0.00    +0.103 A 
ATOM      3  C   UNL     1      -2.897  -1.929  -0.879  0.00  0.00    +0.142 A 
ATOM      4  N   UNL     1      -3.379  -1.031   0.026  0.00  0.00    -0.216 N 
ATOM      5  N   UNL     1      -2.311  -0.606   0.827  0.00  0.00    -0.163 NA
ENDROOT
BRANCH   2   6
ATOM      6  N   UNL     1      -0.675  -2.895  -1.375  0.00  0.00    -0.265 N 
ATOM      7  C   UNL     1       0.562  -2.458  -1.683  0.00  0.00    +0.307 C 
ATOM      8  O   UNL     1       0.895  -1.324  -1.398  0.00  0.00    -0.252 OA
ATOM      9  N   UNL     1       1.429  -3.278  -2.309  0.00  0.00    -0.285 N 
ATOM     10  C   UNL     1       1.157  -4.665  -2.716  0.00  0.00    +0.109 C 
ATOM     11  C   UNL     1       2.444  -5.212  -3.368  0.00  0.00    +0.020 C 
ATOM     12  C   UNL     1       3.548  -4.292  -2.784  0.00  0.00    +0.020 C 
ATOM     13  C   UNL     1       2.807  -2.932  -2.704  0.00  0.00    +0.109 C 
ATOM     14  H   UNL     1      -0.958  -3.783  -1.645  0.00  0.00    +0.157 HD
ENDBRANCH   2   6
BRANCH   1  20
ATOM     15  C   UNL     1       0.529   0.184   1.518  0.00  0.00    +0.011 A 
ATOM     16  C   UNL     1       1.792   0.336   2.053  0.00  0.00    +0.020 A 
ATOM     17  C   UNL     1       2.671  -0.734   2.071  0.00  0.00    +0.041 A 
ATOM     18  C   UNL     1       2.289  -1.959   1.553  0.00  0.00    +0.020 A 
ATOM     19  C   UNL     1       1.029  -2.121   1.015  0.00  0.00    +0.011 A 
ATOM     20  C   UNL     1       0.139  -1.048   0.995  0.00  0.00    +0.004 A 
ATOM     21 CL   UNL     1       4.259  -0.536   2.745  0.00  0.00    -0.084 Cl
ENDBRANCH   1  20
BRANCH   4  22
ATOM     22  C   UNL     1      -4.711  -0.610   0.139  0.00  0.00    +0.068 A 
ATOM     23  C   UNL     1      -5.498  -0.480  -0.997  0.00  0.00    +0.030 A 
ATOM     24  C   UNL     1      -6.810  -0.065  -0.884  0.00  0.00    +0.040 A 
ATOM     25  C   UNL     1      -7.341   0.221   0.363  0.00  0.00    +0.124 A 
ATOM     26  C   UNL     1      -6.558   0.093   1.498  0.00  0.00    +0.040 A 
ATOM     27  C   UNL     1      -5.247  -0.328   1.389  0.00  0.00    +0.030 A 
ATOM     28  F   UNL     1      -8.625   0.627   0.472  0.00  0.00    -0.205 F 
ENDBRANCH   4  22
BRANCH   3  29
ATOM     29  N   UNL     1      -3.640  -2.592  -1.857  0.00  0.00    -0.342 N 
ATOM     30  H   UNL     1      -3.195  -3.176  -2.492  0.00  0.00    +0.144 HD
ATOM     31  H   UNL     1      -4.601  -2.470  -1.902  0.00  0.00    +0.144 HD
ENDBRANCH   3  29
TORSDOF 4
