REMARK  Name = ZINC39605243
REMARK  10 active torsions:
REMARK  status: ('A' for Active; 'I' for Inactive)
REMARK    1  A    between atoms: C_1  and  C_2
REMARK    2  A    between atoms: C_2  and  C_3
REMARK    3  A    between atoms: C_2  and  O_4
REMARK    4  A    between atoms: O_4  and  C_5
REMARK    5  A    between atoms: C_5  and  C_6
REMARK    6  A    between atoms: C_6  and  C_7
REMARK    7  A    between atoms: C_7  and  N_8
REMARK    8  A    between atoms: C_9  and  C_11
REMARK    9  A    between atoms: C_22  and  C_24
REMARK   10  A    between atoms: C_27  and  C_29
REMARK                            x       y       z     vdW  Elec       q    Type
REMARK                         _______ _______ _______ _____ _____    ______ ____
ROOT
ATOM      1  C   UNL     1       6.703  -2.515  -4.784  0.00  0.00    +0.100 C 
ATOM      2  C   UNL     1       6.407  -1.514  -5.923  0.00  0.00    +0.121 C 
ATOM      3  N   UNL     1       7.608  -0.647  -5.981  0.00  0.00    -0.294 N 
ATOM      4  C   UNL     1       8.743  -1.575  -5.759  0.00  0.00    +0.115 C 
ATOM      5  C   UNL     1       8.237  -2.555  -4.682  0.00  0.00    -0.004 C 
ATOM      6  C   UNL     1       8.749  -3.964  -4.968  0.00  0.00    -0.010 C 
ATOM      7  C   UNL     1      10.271  -3.992  -4.803  0.00  0.00    -0.082 C 
ATOM      8  N   UNL     1      10.625  -3.589  -3.436  0.00  0.00    +0.379 N 
ATOM      9  C   UNL     1      10.211  -2.200  -3.201  0.00  0.00    -0.082 C 
ATOM     10  C   UNL     1       8.687  -2.096  -3.298  0.00  0.00    -0.010 C 
ATOM     11  C   UNL     1       7.658   0.683  -6.189  0.00  0.00    +0.282 C 
ATOM     12  O   UNL     1       8.731   1.257  -6.210  0.00  0.00    -0.267 OA
ATOM     13  H   UNL     1      10.158  -4.194  -2.777  0.00  0.00    -0.086 HD
ATOM     14  H   UNL     1      11.623  -3.667  -3.312  0.00  0.00    -0.086 HD
ENDROOT
BRANCH  11  15
ATOM     15  C   UNL     1       6.419   1.439  -6.391  0.00  0.00    +0.190 A 
ATOM     16  C   UNL     1       6.327   2.795  -6.618  0.00  0.00    +0.055 A 
ATOM     17  C   UNL     1       4.967   3.090  -6.753  0.00  0.00    +0.051 A 
ATOM     18  C   UNL     1       4.285   1.917  -6.605  0.00  0.00    +0.139 A 
ATOM     19  O   UNL     1       5.170   0.928  -6.393  0.00  0.00    -0.450 OA
BRANCH  18  20
ATOM     20  C   UNL     1       2.818   1.759  -6.673  0.00  0.00    +0.052 A 
ATOM     21  C   UNL     1       1.987   2.598  -5.927  0.00  0.00    +0.014 A 
ATOM     22  C   UNL     1       0.618   2.445  -5.995  0.00  0.00    +0.001 A 
ATOM     23  C   UNL     1       0.066   1.463  -6.799  0.00  0.00    +0.003 A 
ATOM     24  C   UNL     1       0.881   0.627  -7.541  0.00  0.00    +0.039 A 
ATOM     25  C   UNL     1       2.255   0.772  -7.488  0.00  0.00    +0.134 A 
ATOM     26  F   UNL     1       3.050  -0.041  -8.217  0.00  0.00    -0.205 F 
ENDBRANCH  18  20
ENDBRANCH  11  15
BRANCH   1  28
ATOM     27  N   UNL     1       5.730  -2.916  -2.546  0.00  0.00    -0.315 N 
ATOM     28  C   UNL     1       6.104  -2.030  -3.490  0.00  0.00    +0.218 C 
ATOM     29  O   UNL     1       5.958  -0.841  -3.297  0.00  0.00    -0.275 OA
ATOM     30  H   UNL     1       5.846  -3.867  -2.700  0.00  0.00    +0.149 HD
BRANCH  27  31
ATOM     31  C   UNL     1       5.147  -2.444  -1.288  0.00  0.00    +0.106 C 
BRANCH  31  32
ATOM     32  C   UNL     1       4.813  -3.644  -0.399  0.00  0.00    +0.047 C 
BRANCH  32  33
ATOM     33  C   UNL     1       4.204  -3.151   0.916  0.00  0.00    +0.161 C 
BRANCH  33  34
ATOM     34  O   UNL     1       3.892  -4.271   1.746  0.00  0.00    -0.377 OA
BRANCH  34  36
ATOM     35  C   UNL     1       1.793  -3.860   2.869  0.00  0.00    +0.037 C 
ATOM     36  C   UNL     1       3.315  -3.919   3.005  0.00  0.00    +0.112 C 
ATOM     37  C   UNL     1       3.694  -4.969   4.051  0.00  0.00    +0.037 C 
ENDBRANCH  34  36
ENDBRANCH  33  34
ENDBRANCH  32  33
ENDBRANCH  31  32
ENDBRANCH  27  31
ENDBRANCH   1  28
TORSDOF 8
