REMARK  Name = ZINC30982518
REMARK  6 active torsions:
REMARK  status: ('A' for Active; 'I' for Inactive)
REMARK    1  A    between atoms: C_6  and  C_7
REMARK    2  A    between atoms: C_9  and  C_12
REMARK    3  A    between atoms: C_12  and  N_13
REMARK    4  A    between atoms: C_16  and  C_19
REMARK    5  A    between atoms: N_24  and  C_27
REMARK    6  A    between atoms: C_27  and  C_28
REMARK                            x       y       z     vdW  Elec       q    Type
REMARK                         _______ _______ _______ _____ _____    ______ ____
ROOT
ATOM      1  N   UNL     1       8.382  -7.680  -0.358  0.00  0.00    +0.386 N 
ATOM      2  C   UNL     1       9.397  -7.144  -1.274  0.00  0.00    -0.077 C 
ATOM      3  C   UNL     1       9.818  -5.748  -0.810  0.00  0.00    -0.006 C 
ATOM      4  C   UNL     1       8.591  -4.832  -0.787  0.00  0.00    +0.072 C 
ATOM      5  C   UNL     1       7.530  -5.437   0.136  0.00  0.00    -0.006 C 
ATOM      6  C   UNL     1       7.175  -6.842  -0.354  0.00  0.00    -0.077 C 
ATOM      7  H   UNL     1       8.804  -7.663   0.658  0.00  0.00    -0.081 HD
ENDROOT
BRANCH   4   8
ATOM      8  C   UNL     1       8.988  -3.471  -0.274  0.00  0.00    +0.219 C 
ATOM      9  O   UNL     1       9.984  -3.346   0.406  0.00  0.00    -0.275 OA
ATOM     10  N   UNL     1       8.236  -2.393  -0.572  0.00  0.00    -0.299 N 
ATOM     11  C   UNL     1       7.082  -2.505  -1.477  0.00  0.00    +0.123 C 
ATOM     12  C   UNL     1       7.206  -1.427  -2.559  0.00  0.00    +0.103 C 
ATOM     13  N   UNL     1       7.371  -0.114  -1.922  0.00  0.00    -0.295 NA
ATOM     14  C   UNL     1       8.614  -0.053  -1.142  0.00  0.00    +0.103 C 
ATOM     15  C   UNL     1       8.548  -1.074  -0.001  0.00  0.00    +0.123 C 
BRANCH  13  16
ATOM     16  C   UNL     1       7.322   0.965  -2.918  0.00  0.00    +0.119 C 
BRANCH  16  17
ATOM     17  C   UNL     1       7.247   2.295  -2.215  0.00  0.00    -0.030 A 
ATOM     18  C   UNL     1       8.409   2.967  -1.885  0.00  0.00    +0.009 A 
ATOM     19  C   UNL     1       8.346   4.187  -1.239  0.00  0.00    +0.050 A 
ATOM     20  C   UNL     1       7.117   4.741  -0.921  0.00  0.00    +0.166 A 
ATOM     21  C   UNL     1       5.946   4.065  -1.254  0.00  0.00    +0.167 A 
ATOM     22  C   UNL     1       6.017   2.842  -1.902  0.00  0.00    +0.054 A 
ATOM     23  O   UNL     1       4.879   4.809  -0.840  0.00  0.00    -0.453 OA
ATOM     24  C   UNL     1       5.398   6.133  -0.617  0.00  0.00    +0.466 C 
ATOM     25  O   UNL     1       6.784   5.909  -0.298  0.00  0.00    -0.453 OA
ENDBRANCH  16  17
ENDBRANCH  13  16
ENDBRANCH   4   8
BRANCH   1  26
ATOM     26  C   UNL     1       8.055  -9.072  -0.691  0.00  0.00    +0.022 C 
BRANCH  26  29
ATOM     27  C   UNL     1       5.580 -10.290   1.614  0.00  0.00    +0.202 A 
ATOM     28  N   UNL     1       5.896  -9.646   0.468  0.00  0.00    -0.193 NA
ATOM     29  C   UNL     1       7.204  -9.664   0.404  0.00  0.00    +0.211 A 
ATOM     30  O   UNL     1       7.643 -10.311   1.488  0.00  0.00    -0.340 OA
ATOM     31  N   UNL     1       6.704 -10.658   2.173  0.00  0.00    -0.056 NA
BRANCH  27  37
ATOM     32  C   UNL     1       3.102 -10.076   1.435  0.00  0.00    +0.014 A 
ATOM     33  C   UNL     1       1.833 -10.310   1.924  0.00  0.00    +0.039 A 
ATOM     34  C   UNL     1       1.664 -10.989   3.120  0.00  0.00    +0.123 A 
ATOM     35  C   UNL     1       2.767 -11.442   3.827  0.00  0.00    +0.039 A 
ATOM     36  C   UNL     1       4.039 -11.217   3.342  0.00  0.00    +0.014 A 
ATOM     37  C   UNL     1       4.214 -10.534   2.140  0.00  0.00    +0.023 A 
ATOM     38  F   UNL     1       0.420 -11.211   3.599  0.00  0.00    -0.205 F 
ENDBRANCH  27  37
ENDBRANCH  26  29
ENDBRANCH   1  26
TORSDOF 6
