REMARK  Name = ZINC19818829
REMARK  3 active torsions:
REMARK  status: ('A' for Active; 'I' for Inactive)
REMARK    1  A    between atoms: C_1  and  C_2
REMARK    2  A    between atoms: C_2  and  C_3
REMARK    3  A    between atoms: C_4  and  C_18
REMARK                            x       y       z     vdW  Elec       q    Type
REMARK                         _______ _______ _______ _____ _____    ______ ____
ROOT
ATOM      1  C   UNL     1      -1.412  -0.526   0.013  0.00  0.00    +0.073 A 
ATOM      2  C   UNL     1      -2.168  -0.809   1.158  0.00  0.00    +0.049 A 
ATOM      3  C   UNL     1      -3.417  -1.268   0.728  0.00  0.00    +0.164 A 
ATOM      4  N   UNL     1      -4.503  -1.672   1.402  0.00  0.00    -0.235 NA
ATOM      5  C   UNL     1      -5.592  -2.072   0.788  0.00  0.00    +0.128 A 
ATOM      6  C   UNL     1      -5.633  -2.082  -0.619  0.00  0.00    +0.083 A 
ATOM      7  C   UNL     1      -4.502  -1.661  -1.340  0.00  0.00    +0.083 A 
ATOM      8  N   UNL     1      -3.391  -1.254  -0.643  0.00  0.00    -0.213 N 
ATOM      9  N   UNL     1      -2.137  -0.783  -1.046  0.00  0.00    -0.169 NA
ATOM     10  C   UNL     1      -4.547  -1.673  -2.742  0.00  0.00    +0.046 A 
ATOM     11  C   UNL     1      -5.664  -2.082  -3.381  0.00  0.00    +0.088 A 
ATOM     12  N   UNL     1      -6.774  -2.494  -2.712  0.00  0.00    -0.328 N 
ATOM     13  H   UNL     1      -7.553  -2.780  -3.215  0.00  0.00    +0.168 HD
ATOM     14  C   UNL     1      -6.815  -2.516  -1.363  0.00  0.00    +0.259 A 
ATOM     15  O   UNL     1      -7.816  -2.888  -0.776  0.00  0.00    -0.267 OA
ENDROOT
BRANCH   2  16
ATOM     16  C   UNL     1      -1.726  -0.651   2.563  0.00  0.00    -0.013 A 
ATOM     17  C   UNL     1      -0.681  -1.430   3.060  0.00  0.00    +0.009 A 
ATOM     18  C   UNL     1      -0.274  -1.278   4.370  0.00  0.00    +0.001 A 
ATOM     19  C   UNL     1      -0.900  -0.355   5.189  0.00  0.00    +0.000 A 
ATOM     20  C   UNL     1      -1.936   0.420   4.702  0.00  0.00    +0.001 A 
ATOM     21  C   UNL     1      -2.349   0.281   3.392  0.00  0.00    +0.009 A 
ENDBRANCH   2  16
BRANCH   1  23
ATOM     22  C   UNL     1      -0.019   1.526   0.010  0.00  0.00    +0.010 C 
ATOM     23  C   UNL     1       0.002  -0.004   0.002  0.00  0.00    +0.054 C 
ENDBRANCH   1  23
TORSDOF 2
