REMARK  Name = ZINC20917696
REMARK  9 active torsions:
REMARK  status: ('A' for Active; 'I' for Inactive)
REMARK    1  A    between atoms: C_1  and  C_2
REMARK    2  A    between atoms: C_5  and  C_8
REMARK    3  A    between atoms: N_9  and  N_10
REMARK    4  A    between atoms: C_14  and  S_17
REMARK    5  A    between atoms: N_15  and  N_16
REMARK    6  A    between atoms: S_17  and  C_18
REMARK    7  A    between atoms: C_18  and  C_19
REMARK    8  A    between atoms: N_21  and  C_22
REMARK    9  A    between atoms: N_21  and  C_28
REMARK                            x       y       z     vdW  Elec       q    Type
REMARK                         _______ _______ _______ _____ _____    ______ ____
ROOT
ATOM      1  N   UNL     1       1.875   0.084   0.222  0.00  0.00    -0.204 N 
ATOM      2  C   UNL     1       1.566   1.437   0.207  0.00  0.00    +0.254 A 
ATOM      3  N   UNL     1       0.380   1.959   0.404  0.00  0.00    -0.109 NA
ATOM      4  N   UNL     1       0.499   3.352   0.307  0.00  0.00    -0.119 NA
ATOM      5  C   UNL     1       1.753   3.634   0.047  0.00  0.00    +0.210 A 
ATOM      6  N   UNL     1       2.445   2.459  -0.022  0.00  0.00    -0.211 N 
ATOM      7  H   UNL     1       2.908  -0.247   0.038  0.00  0.00    +0.177 HD
ENDROOT
BRANCH   6   8
ATOM      8  N   UNL     1       3.781   2.327  -0.275  0.00  0.00    -0.294 N 
ATOM      9  H   UNL     1       4.399   3.221  -0.446  0.00  0.00    +0.163 HD
ATOM     10  H   UNL     1       4.239   1.328  -0.308  0.00  0.00    +0.163 HD
ENDBRANCH   6   8
BRANCH   1  12
ATOM     11  C   UNL     1       1.159  -2.127   0.485  0.00  0.00    +0.138 C 
ATOM     12  N   UNL     1       0.870  -0.861   0.471  0.00  0.00    -0.188 NA
BRANCH  11  17
ATOM     13  C   UNL     1      -2.963  -6.004   1.511  0.00  0.00    +0.044 C 
ATOM     14  C   UNL     1      -1.883  -4.988   1.242  0.00  0.00    -0.050 A 
ATOM     15  C   UNL     1      -0.585  -5.408   1.010  0.00  0.00    +0.004 A 
ATOM     16  C   UNL     1       0.409  -4.484   0.763  0.00  0.00    +0.010 A 
ATOM     17  C   UNL     1       0.102  -3.121   0.748  0.00  0.00    -0.005 A 
ATOM     18  C   UNL     1      -1.210  -2.704   0.987  0.00  0.00    +0.010 A 
ATOM     19  C   UNL     1      -2.194  -3.640   1.227  0.00  0.00    +0.004 A 
ENDBRANCH  11  17
ENDBRANCH   1  12
BRANCH   5  20
ATOM     20  S   UNL     1       2.427   5.247  -0.176  0.00  0.00    -0.075 S 
BRANCH  20  21
ATOM     21  C   UNL     1       1.003   6.351   0.040  0.00  0.00    +0.174 C 
BRANCH  21  22
ATOM     22  C   UNL     1       1.447   7.781  -0.127  0.00  0.00    +0.234 C 
ATOM     23  O   UNL     1       2.617   8.035  -0.320  0.00  0.00    -0.274 OA
ATOM     24  N   UNL     1       0.543   8.779  -0.061  0.00  0.00    -0.240 N 
BRANCH  24  25
ATOM     25  C   UNL     1       0.935  10.097  -0.325  0.00  0.00    +0.041 A 
ATOM     26  C   UNL     1       1.791  10.757   0.547  0.00  0.00    +0.024 A 
ATOM     27  C   UNL     1       2.179  12.055   0.281  0.00  0.00    +0.002 A 
ATOM     28  C   UNL     1       1.709  12.702  -0.847  0.00  0.00    +0.000 A 
ATOM     29  C   UNL     1       0.852  12.050  -1.715  0.00  0.00    +0.002 A 
ATOM     30  C   UNL     1       0.464  10.749  -1.457  0.00  0.00    +0.024 A 
ENDBRANCH  24  25
BRANCH  24  31
ATOM     31  C   UNL     1      -0.788   8.498   0.271  0.00  0.00    +0.041 A 
ATOM     32  C   UNL     1      -1.598   7.810  -0.623  0.00  0.00    +0.024 A 
ATOM     33  C   UNL     1      -2.909   7.529  -0.290  0.00  0.00    +0.002 A 
ATOM     34  C   UNL     1      -3.418   7.942   0.927  0.00  0.00    +0.000 A 
ATOM     35  C   UNL     1      -2.615   8.632   1.818  0.00  0.00    +0.002 A 
ATOM     36  C   UNL     1      -1.302   8.911   1.493  0.00  0.00    +0.024 A 
ENDBRANCH  24  31
ENDBRANCH  21  22
ENDBRANCH  20  21
ENDBRANCH   5  20
TORSDOF 8
