REMARK  Name = ZINC32105561
REMARK  5 active torsions:
REMARK  status: ('A' for Active; 'I' for Inactive)
REMARK    1  A    between atoms: C_1  and  C_2
REMARK    2  A    between atoms: C_2  and  C_3
REMARK    3  A    between atoms: C_2  and  C_4
REMARK    4  A    between atoms: N_19  and  C_20
REMARK    5  A    between atoms: C_23  and  C_26
REMARK                            x       y       z     vdW  Elec       q    Type
REMARK                         _______ _______ _______ _____ _____    ______ ____
ROOT
ATOM      1  C   UNL     1       0.731  -0.503   1.223  0.00  0.00    -0.044 A 
ATOM      2  C   UNL     1       2.048  -0.140   1.419  0.00  0.00    +0.006 A 
ATOM      3  C   UNL     1       2.770  -0.567   2.523  0.00  0.00    +0.024 A 
ATOM      4  C   UNL     1       2.111  -1.387   3.439  0.00  0.00    +0.038 A 
ATOM      5  C   UNL     1       0.774  -1.749   3.228  0.00  0.00    -0.006 A 
ATOM      6  C   UNL     1       0.061  -1.316   2.131  0.00  0.00    +0.010 A 
ATOM      7  C   UNL     1       0.389  -2.615   4.384  0.00  0.00    +0.111 C 
ATOM      8  C   UNL     1      -0.757  -1.995   5.181  0.00  0.00    +0.122 C 
ATOM      9  C   UNL     1      -2.082  -2.256   4.521  0.00  0.00    +0.220 C 
ATOM     10  O   UNL     1      -2.929  -1.388   4.541  0.00  0.00    -0.275 OA
ATOM     11  N   UNL     1      -2.359  -3.425   3.905  0.00  0.00    -0.270 N 
ATOM     12  C   UNL     1      -1.321  -4.334   3.712  0.00  0.00    +0.133 A 
ATOM     13  C   UNL     1      -0.010  -3.991   3.928  0.00  0.00    +0.032 A 
ATOM     14  C   UNL     1       0.773  -5.102   3.653  0.00  0.00    +0.141 A 
ATOM     15  N   UNL     1      -0.016  -6.080   3.275  0.00  0.00    -0.173 NA
ATOM     16  N   UNL     1      -1.341  -5.617   3.295  0.00  0.00    -0.218 N 
ATOM     17  C   UNL     1       1.638  -2.687   5.235  0.00  0.00    +0.233 C 
ATOM     18  O   UNL     1       1.767  -3.293   6.278  0.00  0.00    -0.274 OA
ATOM     19  N   UNL     1       2.582  -1.950   4.612  0.00  0.00    -0.284 N 
ATOM     20  H   UNL     1      -3.259  -3.628   3.606  0.00  0.00    +0.156 HD
ATOM     21  H   UNL     1       3.484  -1.829   4.947  0.00  0.00    +0.155 HD
ENDROOT
BRANCH  16  22
ATOM     22  C   UNL     1      -2.481  -6.354   2.945  0.00  0.00    +0.067 A 
ATOM     23  C   UNL     1      -3.677  -6.147   3.619  0.00  0.00    +0.028 A 
ATOM     24  C   UNL     1      -4.798  -6.875   3.272  0.00  0.00    +0.014 A 
ATOM     25  C   UNL     1      -4.730  -7.810   2.255  0.00  0.00    +0.055 A 
ATOM     26  C   UNL     1      -3.539  -8.020   1.583  0.00  0.00    +0.014 A 
ATOM     27  C   UNL     1      -2.416  -7.290   1.922  0.00  0.00    +0.028 A 
BRANCH  25  28
ATOM     28  C   UNL     1      -5.955  -8.603   1.880  0.00  0.00    +0.417 C 
ATOM     29  F   UNL     1      -6.666  -7.921   0.887  0.00  0.00    -0.166 F 
ATOM     30  F   UNL     1      -5.568  -9.858   1.397  0.00  0.00    -0.166 F 
ATOM     31  F   UNL     1      -6.768  -8.768   3.006  0.00  0.00    -0.166 F 
ENDBRANCH  25  28
ENDBRANCH  16  22
BRANCH   1  33
ATOM     32  C   UNL     1      -0.019   1.526   0.010  0.00  0.00    +0.012 C 
ATOM     33  C   UNL     1       0.002  -0.004   0.002  0.00  0.00    +0.013 C 
ATOM     34  C   UNL     1       0.718  -0.497  -1.257  0.00  0.00    +0.012 C 
ENDBRANCH   1  33
TORSDOF 3
