REMARK  Name = ZINC52607208
REMARK  8 active torsions:
REMARK  status: ('A' for Active; 'I' for Inactive)
REMARK    1  A    between atoms: C_1  and  C_2
REMARK    2  A    between atoms: C_2  and  C_3
REMARK    3  A    between atoms: C_7  and  C_37
REMARK    4  A    between atoms: C_9  and  C_36
REMARK    5  A    between atoms: N_12  and  C_13
REMARK    6  A    between atoms: C_13  and  C_14
REMARK    7  A    between atoms: C_23  and  C_25
REMARK    8  A    between atoms: C_30  and  C_31
REMARK                            x       y       z     vdW  Elec       q    Type
REMARK                         _______ _______ _______ _____ _____    ______ ____
ROOT
ATOM      1  C   UNL     1      -1.805  -3.242   2.328  0.00  0.00    -0.029 A 
ATOM      2  C   UNL     1      -2.036  -2.258   3.278  0.00  0.00    +0.007 A 
ATOM      3  C   UNL     1      -3.023  -2.416   4.227  0.00  0.00    +0.027 A 
ATOM      4  C   UNL     1      -3.797  -3.570   4.233  0.00  0.00    +0.057 A 
ATOM      5  C   UNL     1      -3.559  -4.564   3.268  0.00  0.00    +0.001 A 
ATOM      6  C   UNL     1      -2.558  -4.383   2.313  0.00  0.00    +0.015 A 
ATOM      7  C   UNL     1      -4.524  -5.635   3.540  0.00  0.00    +0.028 A 
ATOM      8  C   UNL     1      -5.253  -5.251   4.597  0.00  0.00    +0.095 A 
ATOM      9  N   UNL     1      -4.835  -4.016   5.029  0.00  0.00    -0.283 N 
ATOM     10  C   UNL     1      -5.357  -3.341   6.073  0.00  0.00    +0.264 C 
ATOM     11  O   UNL     1      -4.853  -2.296   6.434  0.00  0.00    -0.267 OA
ENDROOT
BRANCH  10  12
ATOM     12  C   UNL     1      -6.540  -3.872   6.777  0.00  0.00    +0.051 A 
ATOM     13  C   UNL     1      -6.399  -4.492   8.018  0.00  0.00    +0.014 A 
ATOM     14  C   UNL     1      -7.509  -4.986   8.672  0.00  0.00    +0.001 A 
ATOM     15  C   UNL     1      -8.767  -4.872   8.104  0.00  0.00    +0.001 A 
ATOM     16  C   UNL     1      -8.926  -4.262   6.875  0.00  0.00    +0.012 A 
ATOM     17  C   UNL     1      -7.819  -3.751   6.202  0.00  0.00    +0.035 A 
BRANCH  17  18
ATOM     18  C   UNL     1      -7.986  -3.090   4.890  0.00  0.00    +0.207 A 
ATOM     19  N   UNL     1      -7.015  -2.641   4.093  0.00  0.00    -0.106 NA
ATOM     20  N   UNL     1      -7.575  -2.135   3.047  0.00  0.00    -0.021 NA
ATOM     21  N   UNL     1      -8.852  -2.246   3.154  0.00  0.00    -0.021 NA
ATOM     22  N   UNL     1      -9.137  -2.831   4.267  0.00  0.00    -0.106 NA
ENDBRANCH  17  18
ENDBRANCH  10  12
BRANCH   1  23
ATOM     23  C   UNL     1      -0.719  -3.049   1.300  0.00  0.00    +0.143 C 
BRANCH  23  32
ATOM     24  C   UNL     1      -1.340  -0.927  -0.098  0.00  0.00    +0.160 C 
ATOM     25  N   UNL     1      -1.977  -0.750  -1.409  0.00  0.00    -0.323 N 
ATOM     26  C   UNL     1      -2.258  -2.029  -1.907  0.00  0.00    +0.070 A 
ATOM     27  C   UNL     1      -2.853  -2.431  -3.097  0.00  0.00    -0.025 A 
ATOM     28  C   UNL     1      -3.009  -3.789  -3.334  0.00  0.00    +0.026 A 
ATOM     29  C   UNL     1      -2.572  -4.693  -2.387  0.00  0.00    +0.015 A 
ATOM     30  N   UNL     1      -2.010  -4.284  -1.265  0.00  0.00    -0.346 N 
ATOM     31  C   UNL     1      -1.839  -2.996  -0.995  0.00  0.00    +0.122 A 
ATOM     32  N   UNL     1      -1.275  -2.377   0.123  0.00  0.00    -0.292 N 
ATOM     33  C   UNL     1      -2.738  -6.169  -2.638  0.00  0.00    +0.063 C 
ATOM     34  C   UNL     1      -3.320  -1.414  -4.107  0.00  0.00    +0.046 C 
ATOM     35  H   UNL     1      -2.168   0.093  -1.847  0.00  0.00    +0.148 HD
ATOM     36  H   UNL     1      -1.714  -4.945  -0.620  0.00  0.00    +0.167 HD
BRANCH  24  38
ATOM     37  C   UNL     1      -0.022   1.190  -0.244  0.00  0.00    +0.007 C 
ATOM     38  C   UNL     1       0.069  -0.331  -0.111  0.00  0.00    +0.039 C 
ENDBRANCH  24  38
ENDBRANCH  23  32
ENDBRANCH   1  23
TORSDOF 5
