REMARK  Name = ZINC39675720
REMARK  9 active torsions:
REMARK  status: ('A' for Active; 'I' for Inactive)
REMARK    1  A    between atoms: C_1  and  C_2
REMARK    2  A    between atoms: C_2  and  C_8
REMARK    3  A    between atoms: C_12  and  C_21
REMARK    4  A    between atoms: N_23  and  C_24
REMARK    5  A    between atoms: C_24  and  C_25
REMARK    6  A    between atoms: C_25  and  C_27
REMARK    7  A    between atoms: C_25  and  N_33
REMARK    8  A    between atoms: N_33  and  C_34
REMARK    9  A    between atoms: N_33  and  C_35
REMARK                            x       y       z     vdW  Elec       q    Type
REMARK                         _______ _______ _______ _____ _____    ______ ____
ROOT
ATOM      1  C   UNL     1      -1.774  -0.795  -0.051  0.00  0.00    +0.222 C 
ATOM      2  O   UNL     1      -2.349  -1.389   0.836  0.00  0.00    -0.275 OA
ATOM      3  N   UNL     1      -2.461  -0.363  -1.127  0.00  0.00    -0.300 N 
ATOM      4  C   UNL     1      -1.923   0.280  -2.349  0.00  0.00    +0.121 C 
ATOM      5  C   UNL     1      -2.754  -0.321  -3.505  0.00  0.00    +0.100 C 
ATOM      6  C   UNL     1      -4.066  -0.779  -2.847  0.00  0.00    -0.004 C 
ATOM      7  C   UNL     1      -3.924  -0.430  -1.359  0.00  0.00    +0.115 C 
ATOM      8  C   UNL     1      -5.251  -0.034  -3.455  0.00  0.00    -0.010 C 
ATOM      9  C   UNL     1      -6.549  -0.548  -2.826  0.00  0.00    -0.082 C 
ATOM     10  N   UNL     1      -6.675  -1.990  -3.071  0.00  0.00    +0.379 N 
ATOM     11  C   UNL     1      -5.582  -2.709  -2.404  0.00  0.00    -0.082 C 
ATOM     12  C   UNL     1      -4.243  -2.286  -3.015  0.00  0.00    -0.010 C 
ATOM     13  H   UNL     1      -7.559  -2.315  -2.709  0.00  0.00    -0.086 HD
ATOM     14  H   UNL     1      -6.636  -2.167  -4.064  0.00  0.00    -0.086 HD
ENDROOT
BRANCH   1  16
ATOM     15  C   UNL     1       0.439  -1.358  -1.018  0.00  0.00    +0.021 C 
ATOM     16  C   UNL     1      -0.292  -0.541   0.049  0.00  0.00    +0.044 C 
ATOM     17  C   UNL     1       0.203  -0.955   1.437  0.00  0.00    +0.016 C 
ATOM     18  C   UNL     1      -0.528  -0.138   2.504  0.00  0.00    +0.001 C 
ATOM     19  C   UNL     1      -0.250   1.351   2.286  0.00  0.00    +0.000 C 
ATOM     20  C   UNL     1      -0.746   1.764   0.899  0.00  0.00    +0.001 C 
ATOM     21  C   UNL     1      -0.014   0.948  -0.168  0.00  0.00    +0.016 C 
ENDBRANCH   1  16
BRANCH   5  22
ATOM     22  C   UNL     1      -3.028   0.725  -4.554  0.00  0.00    +0.218 C 
ATOM     23  O   UNL     1      -3.158   1.887  -4.232  0.00  0.00    -0.275 OA
ATOM     24  N   UNL     1      -3.127   0.370  -5.850  0.00  0.00    -0.316 N 
ATOM     25  H   UNL     1      -3.023  -0.559  -6.108  0.00  0.00    +0.149 HD
BRANCH  24  26
ATOM     26  C   UNL     1      -3.393   1.387  -6.870  0.00  0.00    +0.093 C 
BRANCH  26  27
ATOM     27  C   UNL     1      -3.564   0.711  -8.232  0.00  0.00    -0.021 C 
BRANCH  27  28
ATOM     28  C   UNL     1      -2.266   0.062  -8.638  0.00  0.00    -0.059 A 
ATOM     29  C   UNL     1      -1.250   0.828  -9.178  0.00  0.00    +0.002 A 
ATOM     30  C   UNL     1      -0.059   0.233  -9.550  0.00  0.00    +0.000 A 
ATOM     31  C   UNL     1       0.116  -1.128  -9.380  0.00  0.00    +0.000 A 
ATOM     32  C   UNL     1      -0.900  -1.894  -8.839  0.00  0.00    +0.000 A 
ATOM     33  C   UNL     1      -2.089  -1.298  -8.464  0.00  0.00    +0.002 A 
ENDBRANCH  27  28
BRANCH  27  34
ATOM     34  N   UNL     1      -3.943   1.717  -9.234  0.00  0.00    +0.382 N 
ATOM     35  C   UNL     1      -4.126   1.065 -10.538  0.00  0.00    -0.096 C 
ATOM     36  C   UNL     1      -5.198   2.363  -8.829  0.00  0.00    -0.096 C 
ATOM     37  H   UNL     1      -3.214   2.412  -9.305  0.00  0.00    -0.082 HD
ENDBRANCH  27  34
ENDBRANCH  26  27
ENDBRANCH  24  26
ENDBRANCH   5  22
TORSDOF 6
