REMARK  Name = ZINC39674619
REMARK  10 active torsions:
REMARK  status: ('A' for Active; 'I' for Inactive)
REMARK    1  A    between atoms: C_1  and  C_2
REMARK    2  A    between atoms: C_2  and  C_3
REMARK    3  A    between atoms: C_3  and  C_4
REMARK    4  A    between atoms: C_4  and  C_5
REMARK    5  A    between atoms: C_9  and  C_18
REMARK    6  A    between atoms: N_20  and  C_21
REMARK    7  A    between atoms: C_21  and  C_22
REMARK    8  A    between atoms: C_22  and  C_23
REMARK    9  A    between atoms: C_26  and  C_34
REMARK   10  A    between atoms: C_31  and  C_33
REMARK                            x       y       z     vdW  Elec       q    Type
REMARK                         _______ _______ _______ _____ _____    ______ ____
ROOT
ATOM      1  C   UNL     1      -2.076  -5.921   2.335  0.00  0.00    +0.218 C 
ATOM      2  O   UNL     1      -1.665  -4.840   2.702  0.00  0.00    -0.275 OA
ATOM      3  N   UNL     1      -2.029  -6.979   3.168  0.00  0.00    -0.315 N 
ATOM      4  H   UNL     1      -2.357  -7.843   2.874  0.00  0.00    +0.149 HD
ENDROOT
BRANCH   1   9
ATOM      5  C   UNL     1      -2.534  -2.615  -0.100  0.00  0.00    +0.216 C 
ATOM      6  O   UNL     1      -3.400  -1.766  -0.123  0.00  0.00    -0.276 OA
ATOM      7  N   UNL     1      -2.869  -3.919  -0.064  0.00  0.00    -0.300 N 
ATOM      8  C   UNL     1      -1.962  -5.090  -0.027  0.00  0.00    +0.121 C 
ATOM      9  C   UNL     1      -2.640  -6.080   0.946  0.00  0.00    +0.100 C 
ATOM     10  C   UNL     1      -4.129  -5.694   0.923  0.00  0.00    -0.004 C 
ATOM     11  C   UNL     1      -4.230  -4.508  -0.047  0.00  0.00    +0.115 C 
ATOM     12  C   UNL     1      -4.970  -6.863   0.420  0.00  0.00    -0.010 C 
ATOM     13  C   UNL     1      -6.451  -6.475   0.461  0.00  0.00    -0.082 C 
ATOM     14  N   UNL     1      -6.830  -6.129   1.836  0.00  0.00    +0.379 N 
ATOM     15  C   UNL     1      -6.083  -4.947   2.280  0.00  0.00    -0.082 C 
ATOM     16  C   UNL     1      -4.587  -5.270   2.316  0.00  0.00    -0.010 C 
ATOM     17  H   UNL     1      -7.820  -5.933   1.872  0.00  0.00    -0.086 HD
ATOM     18  H   UNL     1      -6.622  -6.906   2.446  0.00  0.00    -0.086 HD
BRANCH   5  19
ATOM     19  C   UNL     1      -1.082  -2.210  -0.113  0.00  0.00    +0.096 C 
BRANCH  19  20
ATOM     20  C   UNL     1      -0.978  -0.684  -0.155  0.00  0.00    +0.009 C 
BRANCH  20  22
ATOM     21  C   UNL     1       0.599   1.252  -0.209  0.00  0.00    +0.004 C 
ATOM     22  C   UNL     1       0.495  -0.273  -0.168  0.00  0.00    -0.003 C 
ENDBRANCH  20  22
ENDBRANCH  19  20
ENDBRANCH   5  19
ENDBRANCH   1   9
BRANCH   3  23
ATOM     23  C   UNL     1      -1.480  -6.824   4.518  0.00  0.00    +0.108 C 
BRANCH  23  24
ATOM     24  C   UNL     1      -1.542  -8.166   5.250  0.00  0.00    +0.052 C 
BRANCH  24  25
ATOM     25  C   UNL     1      -0.978  -8.007   6.638  0.00  0.00    -0.037 C 
ATOM     26  C   UNL     1      -0.487  -6.870   7.195  0.00  0.00    +0.000 A 
ATOM     27  C   UNL     1      -0.353  -5.550   6.690  0.00  0.00    +0.028 A 
ATOM     28  C   UNL     1       0.190  -4.562   7.478  0.00  0.00    +0.052 A 
ATOM     29  C   UNL     1       0.637  -4.838   8.839  0.00  0.00    +0.021 A 
ATOM     30  C   UNL     1       0.533  -6.073   9.372  0.00  0.00    +0.027 A 
ATOM     31  C   UNL     1      -0.038  -7.164   8.574  0.00  0.00    +0.043 A 
ATOM     32  N   UNL     1      -0.241  -8.427   8.860  0.00  0.00    -0.378 N 
ATOM     33  C   UNL     1      -0.849  -9.080   7.696  0.00  0.00    +0.103 C 
ATOM     34  C   UNL     1      -2.229  -9.631   8.058  0.00  0.00    +0.035 C 
ATOM     35  H   UNL     1      -0.028  -8.857   9.703  0.00  0.00    +0.160 HD
BRANCH  28  36
ATOM     36  C   UNL     1       0.319  -3.236   6.952  0.00  0.00    +0.099 C 
ATOM     37  N   UNL     1       0.421  -2.184   6.535  0.00  0.00    -0.191 NA
ENDBRANCH  28  36
ENDBRANCH  24  25
ENDBRANCH  23  24
ENDBRANCH   3  23
TORSDOF 8
