REMARK  Name = ZINC05750490
REMARK  7 active torsions:
REMARK  status: ('A' for Active; 'I' for Inactive)
REMARK    1  A    between atoms: C_3  and  S_21
REMARK    2  A    between atoms: C_6  and  C_7
REMARK    3  A    between atoms: C_7  and  C_8
REMARK    4  A    between atoms: C_8  and  O_9
REMARK    5  A    between atoms: O_9  and  C_10
REMARK    6  A    between atoms: N_12  and  C_13
REMARK    7  A    between atoms: S_21  and  N_24
REMARK                            x       y       z     vdW  Elec       q    Type
REMARK                         _______ _______ _______ _____ _____    ______ ____
ROOT
ATOM      1  C   UNL     1      -0.750   1.595  -1.231  0.00  0.00    +0.238 C 
ENDROOT
BRANCH   1   2
ATOM      2  C   UNL     1      -0.005   1.096   0.008  0.00  0.00    +0.076 C 
BRANCH   2   8
ATOM      3  C   UNL     1      -0.361   2.791   1.815  0.00  0.00    +0.005 A 
ATOM      4  C   UNL     1      -1.012   3.237   2.950  0.00  0.00    +0.029 A 
ATOM      5  C   UNL     1      -2.008   2.467   3.523  0.00  0.00    +0.105 A 
ATOM      6  C   UNL     1      -2.355   1.254   2.958  0.00  0.00    +0.029 A 
ATOM      7  C   UNL     1      -1.707   0.810   1.821  0.00  0.00    +0.005 A 
ATOM      8  C   UNL     1      -0.712   1.580   1.248  0.00  0.00    -0.044 A 
BRANCH   5   9
ATOM      9  S   UNL     1      -2.835   3.034   4.972  0.00  0.00    +0.056 S 
ATOM     10  O   UNL     1      -2.703   4.448   4.989  0.00  0.00    -0.153 OA
ATOM     11  O   UNL     1      -4.100   2.386   4.997  0.00  0.00    -0.153 OA
BRANCH   9  12
ATOM     12  N   UNL     1      -1.986   2.464   6.275  0.00  0.00    -0.204 NA
ATOM     13  H   UNL     1      -1.192   1.925   6.138  0.00  0.00    +0.144 HD
ATOM     14  H   UNL     1      -2.284   2.669   7.175  0.00  0.00    +0.144 HD
ENDBRANCH   9  12
ENDBRANCH   5   9
ENDBRANCH   2   8
ENDBRANCH   1   2
BRANCH   1  15
ATOM     15  O   UNL     1      -0.070   1.129  -2.426  0.00  0.00    -0.450 OA
BRANCH  15  16
ATOM     16  C   UNL     1      -0.602   1.484  -3.611  0.00  0.00    +0.405 C 
ATOM     17  O   UNL     1      -1.608   2.165  -3.646  0.00  0.00    -0.226 OA
ATOM     18  N   UNL     1      -0.019   1.084  -4.758  0.00  0.00    -0.251 N 
ATOM     19  H   UNL     1       0.820   0.598  -4.732  0.00  0.00    +0.158 HD
BRANCH  18  20
ATOM     20  C   UNL     1      -0.624   1.371  -5.988  0.00  0.00    +0.038 A 
ATOM     21  C   UNL     1      -0.530   0.466  -7.037  0.00  0.00    +0.025 A 
ATOM     22  C   UNL     1      -1.132   0.747  -8.248  0.00  0.00    +0.023 A 
ATOM     23  C   UNL     1      -1.820   1.935  -8.420  0.00  0.00    +0.059 A 
ATOM     24  C   UNL     1      -1.911   2.842  -7.377  0.00  0.00    +0.061 A 
ATOM     25  C   UNL     1      -1.315   2.562  -6.162  0.00  0.00    +0.044 A 
ATOM     26 CL   UNL     1      -2.776   4.332  -7.596  0.00  0.00    -0.082 Cl
ATOM     27 CL   UNL     1      -2.570   2.290  -9.945  0.00  0.00    -0.082 Cl
ENDBRANCH  18  20
ENDBRANCH  15  16
ENDBRANCH   1  15
TORSDOF 7
