REMARK  Name = ZINC12840068
REMARK  10 active torsions:
REMARK  status: ('A' for Active; 'I' for Inactive)
REMARK    1  A    between atoms: C_1  and  C_2
REMARK    2  A    between atoms: C_2  and  C_3
REMARK    3  A    between atoms: C_6  and  C_9
REMARK    4  A    between atoms: C_15  and  C_17
REMARK    5  A    between atoms: C_17  and  C_19
REMARK    6  A    between atoms: C_17  and  S_20
REMARK    7  A    between atoms: S_20  and  C_21
REMARK    8  A    between atoms: C_24  and  C_26
REMARK    9  A    between atoms: C_27  and  C_28
REMARK   10  A    between atoms: C_31  and  C_33
REMARK                            x       y       z     vdW  Elec       q    Type
REMARK                         _______ _______ _______ _____ _____    ______ ____
ROOT
ATOM      1  C   UNL     1       2.697  -1.861  -4.736  0.00  0.00    +0.080 A 
ATOM      2  C   UNL     1       4.046  -2.083  -4.720  0.00  0.00    +0.076 A 
ATOM      3  S   UNL     1       4.312  -2.627  -6.403  0.00  0.00    -0.060 S 
ATOM      4  C   UNL     1       2.614  -2.504  -6.948  0.00  0.00    +0.165 A 
ATOM      5  N   UNL     1       2.015  -2.083  -5.849  0.00  0.00    -0.225 NA
ATOM      6  N   UNL     1       2.069  -2.783  -8.195  0.00  0.00    -0.264 N 
ATOM      7  C   UNL     1       2.862  -3.214  -9.196  0.00  0.00    +0.232 C 
ATOM      8  O   UNL     1       4.051  -3.358  -9.008  0.00  0.00    -0.274 OA
ATOM      9  H   UNL     1       1.118  -2.668  -8.345  0.00  0.00    +0.157 HD
ENDROOT
BRANCH   1  13
ATOM     10  C   UNL     1       0.707  -0.490  -1.238  0.00  0.00    -0.048 A 
ATOM     11  C   UNL     1      -0.014  -0.718  -2.396  0.00  0.00    +0.004 A 
ATOM     12  C   UNL     1       0.627  -1.163  -3.535  0.00  0.00    +0.010 A 
ATOM     13  C   UNL     1       2.003  -1.383  -3.516  0.00  0.00    +0.001 A 
ATOM     14  C   UNL     1       2.725  -1.151  -2.346  0.00  0.00    +0.010 A 
ATOM     15  C   UNL     1       2.074  -0.701  -1.215  0.00  0.00    +0.004 A 
BRANCH  10  17
ATOM     16  C   UNL     1      -0.019   1.526   0.010  0.00  0.00    +0.009 C 
ATOM     17  C   UNL     1       0.002  -0.004   0.002  0.00  0.00    +0.032 C 
ENDBRANCH  10  17
ENDBRANCH   1  13
BRANCH   7  18
ATOM     18  C   UNL     1       2.271  -3.516 -10.549  0.00  0.00    +0.137 C 
ATOM     19  C   UNL     1       2.185  -2.227 -11.368  0.00  0.00    +0.029 C 
BRANCH  18  20
ATOM     20  S   UNL     1       3.322  -4.714 -11.415  0.00  0.00    -0.072 S 
BRANCH  20  21
ATOM     21  C   UNL     1       2.433  -5.072 -12.893  0.00  0.00    +0.210 A 
ATOM     22  N   UNL     1       1.277  -4.548 -13.230  0.00  0.00    -0.145 NA
ATOM     23  N   UNL     1       0.921  -5.098 -14.472  0.00  0.00    -0.258 N 
ATOM     24  C   UNL     1       1.926  -5.951 -14.813  0.00  0.00    +0.150 A 
ATOM     25  N   UNL     1       2.830  -5.914 -13.848  0.00  0.00    -0.202 NA
ATOM     26  H   UNL     1       0.119  -4.909 -14.985  0.00  0.00    +0.191 HD
BRANCH  24  27
ATOM     27  C   UNL     1       1.998  -6.759 -16.033  0.00  0.00    +0.051 C 
ATOM     28  C   UNL     1       3.059  -7.568 -16.247  0.00  0.00    +0.050 C 
BRANCH  28  29
ATOM     29  C   UNL     1       3.130  -8.374 -17.465  0.00  0.00    +0.128 A 
ATOM     30  C   UNL     1       4.138  -9.234 -17.802  0.00  0.00    +0.049 A 
ATOM     31  C   UNL     1       3.796  -9.791 -19.046  0.00  0.00    +0.045 A 
ATOM     32  C   UNL     1       2.611  -9.255 -19.409  0.00  0.00    +0.103 A 
ATOM     33  O   UNL     1       2.210  -8.405 -18.450  0.00  0.00    -0.461 OA
ATOM     34  C   UNL     1       1.860  -9.565 -20.678  0.00  0.00    +0.086 C 
ENDBRANCH  28  29
ENDBRANCH  24  27
ENDBRANCH  20  21
ENDBRANCH  18  20
ENDBRANCH   7  18
TORSDOF 7
