REMARK  Name = ZINC12500091
REMARK  12 active torsions:
REMARK  status: ('A' for Active; 'I' for Inactive)
REMARK    1  A    between atoms: C_1  and  C_2
REMARK    2  A    between atoms: C_4  and  C_34
REMARK    3  A    between atoms: C_6  and  N_8
REMARK    4  A    between atoms: N_8  and  S_9
REMARK    5  A    between atoms: S_9  and  C_12
REMARK    6  A    between atoms: C_15  and  N_18
REMARK    7  A    between atoms: N_18  and  C_19
REMARK    8  A    between atoms: C_19  and  N_21
REMARK    9  A    between atoms: C_22  and  C_24
REMARK   10  A    between atoms: C_25  and  C_26
REMARK   11  A    between atoms: C_29  and  O_32
REMARK   12  A    between atoms: O_32  and  C_33
REMARK                            x       y       z     vdW  Elec       q    Type
REMARK                         _______ _______ _______ _____ _____    ______ ____
ROOT
ATOM      1  C   UNL     1      -0.473   4.629   0.671  0.00  0.00    +0.109 A 
ATOM      2  C   UNL     1       0.895   4.542   0.850  0.00  0.00    +0.030 A 
ATOM      3  C   UNL     1       1.708   5.602   0.496  0.00  0.00    +0.025 A 
ATOM      4  C   UNL     1       1.148   6.759  -0.029  0.00  0.00    +0.033 A 
ATOM      5  C   UNL     1      -0.228   6.845  -0.202  0.00  0.00    +0.025 A 
ATOM      6  C   UNL     1      -1.034   5.780   0.148  0.00  0.00    +0.030 A 
ENDROOT
BRANCH   1   7
ATOM      7  S   UNL     1      -1.506   3.272   1.116  0.00  0.00    +0.072 S 
ATOM      8  O   UNL     1      -2.820   3.793   1.262  0.00  0.00    -0.150 OA
ATOM      9  O   UNL     1      -0.840   2.581   2.163  0.00  0.00    -0.150 OA
BRANCH   7  10
ATOM     10  N   UNL     1      -1.546   2.242  -0.180  0.00  0.00    -0.216 N 
ATOM     11  H   UNL     1      -2.385   2.068  -0.636  0.00  0.00    +0.174 HD
BRANCH  10  17
ATOM     12  C   UNL     1       2.084   1.904  -3.475  0.00  0.00    +0.044 C 
ATOM     13  C   UNL     1       1.407   1.436  -2.212  0.00  0.00    -0.048 A 
ATOM     14  C   UNL     1       1.946   0.389  -1.488  0.00  0.00    +0.006 A 
ATOM     15  C   UNL     1       1.328  -0.043  -0.328  0.00  0.00    -0.048 A 
ATOM     16  C   UNL     1       0.171   0.570   0.109  0.00  0.00    +0.028 A 
ATOM     17  C   UNL     1      -0.373   1.623  -0.617  0.00  0.00    +0.049 A 
ATOM     18  C   UNL     1       0.251   2.054  -1.781  0.00  0.00    +0.028 A 
ATOM     19  C   UNL     1       1.918  -1.185   0.459  0.00  0.00    +0.044 C 
ENDBRANCH  10  17
ENDBRANCH   7  10
ENDBRANCH   1   7
BRANCH   4  20
ATOM     20  N   UNL     1       1.968   7.836  -0.382  0.00  0.00    -0.297 N 
ATOM     21  H   UNL     1       2.813   7.675  -0.829  0.00  0.00    +0.154 HD
BRANCH  20  22
ATOM     22  C   UNL     1       1.582   9.097  -0.103  0.00  0.00    +0.141 C 
ATOM     23  S   UNL     1       0.154   9.375   0.800  0.00  0.00    -0.018 S 
BRANCH  22  24
ATOM     24  N   UNL     1       2.320  10.139  -0.534  0.00  0.00    -0.264 N 
ATOM     25  C   UNL     1       1.934  11.399  -0.255  0.00  0.00    +0.242 C 
ATOM     26  O   UNL     1       0.919  11.597   0.387  0.00  0.00    -0.270 OA
ATOM     27  H   UNL     1       3.129   9.981  -1.046  0.00  0.00    +0.157 HD
BRANCH  25  28
ATOM     28  C   UNL     1       2.735  12.529  -0.723  0.00  0.00    +0.068 C 
ATOM     29  C   UNL     1       2.348  13.793  -0.442  0.00  0.00    +0.013 C 
BRANCH  29  30
ATOM     30  C   UNL     1       3.153  14.929  -0.913  0.00  0.00    -0.025 A 
ATOM     31  C   UNL     1       4.324  14.704  -1.647  0.00  0.00    +0.011 A 
ATOM     32  C   UNL     1       5.071  15.771  -2.090  0.00  0.00    +0.046 A 
ATOM     33  C   UNL     1       4.671  17.071  -1.800  0.00  0.00    +0.120 A 
ATOM     34  C   UNL     1       3.512  17.300  -1.067  0.00  0.00    +0.046 A 
ATOM     35  C   UNL     1       2.755  16.239  -0.624  0.00  0.00    +0.011 A 
BRANCH  33  36
ATOM     36  O   UNL     1       5.415  18.120  -2.235  0.00  0.00    -0.495 OA
ATOM     37  C   UNL     1       6.593  17.815  -2.983  0.00  0.00    +0.277 C 
ENDBRANCH  33  36
ENDBRANCH  29  30
ENDBRANCH  25  28
ENDBRANCH  22  24
ENDBRANCH  20  22
ENDBRANCH   4  20
TORSDOF 9
