REMARK  Name = ZINC31808488
REMARK  9 active torsions:
REMARK  status: ('A' for Active; 'I' for Inactive)
REMARK    1  A    between atoms: C_1  and  O_2
REMARK    2  A    between atoms: O_2  and  C_3
REMARK    3  A    between atoms: C_3  and  C_5
REMARK    4  A    between atoms: C_5  and  C_6
REMARK    5  A    between atoms: C_6  and  C_8
REMARK    6  A    between atoms: C_6  and  N_12
REMARK    7  A    between atoms: C_8  and  O_10
REMARK    8  A    between atoms: O_10  and  C_11
REMARK    9  A    between atoms: C_24  and  C_26
REMARK                            x       y       z     vdW  Elec       q    Type
REMARK                         _______ _______ _______ _____ _____    ______ ____
ROOT
ATOM      1  N   UNL     1      -5.386  -2.205   0.261  0.00  0.00    -0.286 N 
ATOM      2  C   UNL     1      -4.645  -1.994   1.367  0.00  0.00    +0.304 C 
ATOM      3  O   UNL     1      -3.452  -2.229   1.354  0.00  0.00    -0.253 OA
ATOM      4  N   UNL     1      -5.226  -1.521   2.487  0.00  0.00    -0.273 N 
ATOM      5  C   UNL     1      -4.418  -1.176   3.667  0.00  0.00    +0.116 C 
ATOM      6  C   UNL     1      -4.533   0.331   3.930  0.00  0.00    +0.074 C 
ATOM      7  C   UNL     1      -5.979   0.735   3.815  0.00  0.00    +0.040 A 
ATOM      8  C   UNL     1      -6.938   0.004   3.206  0.00  0.00    +0.062 A 
ATOM      9  N   UNL     1      -8.090   0.674   3.295  0.00  0.00    -0.348 N 
ATOM     10  C   UNL     1      -7.885   1.793   3.939  0.00  0.00    +0.171 A 
ATOM     11  N   UNL     1      -6.578   1.866   4.281  0.00  0.00    -0.349 N 
ATOM     12  H   UNL     1      -6.148   2.588   4.766  0.00  0.00    +0.166 HD
ATOM     13  C   UNL     1      -6.686  -1.332   2.558  0.00  0.00    +0.157 C 
ATOM     14  H   UNL     1      -6.349  -2.094   0.294  0.00  0.00    +0.151 HD
ATOM     15  H   UNL     1      -8.942   0.377   2.939  0.00  0.00    +0.167 HD
ENDROOT
BRANCH  13  16
ATOM     16  C   UNL     1      -7.305  -2.425   3.390  0.00  0.00    -0.003 A 
ATOM     17  C   UNL     1      -6.993  -2.534   4.732  0.00  0.00    +0.009 A 
ATOM     18  C   UNL     1      -7.560  -3.536   5.495  0.00  0.00    +0.020 A 
ATOM     19  C   UNL     1      -8.442  -4.432   4.916  0.00  0.00    +0.042 A 
ATOM     20  C   UNL     1      -8.755  -4.324   3.574  0.00  0.00    +0.040 A 
ATOM     21  C   UNL     1      -8.190  -3.317   2.811  0.00  0.00    +0.048 A 
ATOM     22 CL   UNL     1      -8.588  -3.176   1.127  0.00  0.00    -0.083 Cl
ATOM     23 CL   UNL     1      -9.154  -5.692   5.875  0.00  0.00    -0.083 Cl
ENDBRANCH  13  16
BRANCH   1  24
ATOM     24  C   UNL     1      -4.737  -2.604  -0.990  0.00  0.00    +0.194 C 
BRANCH  24  25
ATOM     25  C   UNL     1      -4.258  -1.376  -1.721  0.00  0.00    +0.328 C 
ATOM     26  O   UNL     1      -4.441  -0.281  -1.246  0.00  0.00    -0.249 OA
BRANCH  25  27
ATOM     27  O   UNL     1      -3.629  -1.500  -2.901  0.00  0.00    -0.467 OA
ATOM     28  C   UNL     1      -3.203  -0.294  -3.538  0.00  0.00    +0.280 C 
ENDBRANCH  25  27
ENDBRANCH  24  25
BRANCH  24  29
ATOM     29  C   UNL     1      -5.738  -3.361  -1.865  0.00  0.00    +0.154 C 
BRANCH  29  30
ATOM     30  C   UNL     1      -6.123  -4.651  -1.187  0.00  0.00    +0.309 C 
ATOM     31  O   UNL     1      -5.646  -4.935  -0.114  0.00  0.00    -0.251 OA
BRANCH  30  33
ATOM     32  C   UNL     1      -7.316  -6.688  -1.076  0.00  0.00    +0.280 C 
ATOM     33  O   UNL     1      -6.997  -5.483  -1.775  0.00  0.00    -0.468 OA
ENDBRANCH  30  33
ENDBRANCH  29  30
ENDBRANCH  24  29
ENDBRANCH   1  24
TORSDOF 7
