REMARK  Name = ZINC06190454
REMARK  12 active torsions:
REMARK  status: ('A' for Active; 'I' for Inactive)
REMARK    1  A    between atoms: C_1  and  C_2
REMARK    2  A    between atoms: C_2  and  C_3
REMARK    3  A    between atoms: C_2  and  C_4
REMARK    4  A    between atoms: C_4  and  C_5
REMARK    5  A    between atoms: C_5  and  C_7
REMARK    6  A    between atoms: C_5  and  N_15
REMARK    7  A    between atoms: N_9  and  C_10
REMARK    8  A    between atoms: N_15  and  C_16
REMARK    9  A    between atoms: C_16  and  C_17
REMARK   10  A    between atoms: C_26  and  C_28
REMARK   11  A    between atoms: C_29  and  N_36
REMARK   12  A    between atoms: C_30  and  C_33
REMARK                            x       y       z     vdW  Elec       q    Type
REMARK                         _______ _______ _______ _____ _____    ______ ____
ROOT
ATOM      1  N   UNL     1      -1.139  -2.947   0.987  0.00  0.00    -0.281 N 
ATOM      2  C   UNL     1      -1.693  -3.325   2.156  0.00  0.00    +0.257 C 
ATOM      3  O   UNL     1      -0.985  -3.706   3.070  0.00  0.00    -0.269 OA
ENDROOT
BRANCH   2   4
ATOM      4  C   UNL     1      -3.147  -3.278   2.327  0.00  0.00    +0.115 A 
ATOM      5  C   UNL     1      -3.910  -3.497   3.474  0.00  0.00    +0.076 A 
ATOM      6  C   UNL     1      -5.281  -3.367   3.262  0.00  0.00    +0.155 A 
ATOM      7  N   UNL     1      -5.725  -3.064   2.060  0.00  0.00    -0.203 NA
ATOM      8  S   UNL     1      -4.413  -2.919   1.126  0.00  0.00    +0.019 S 
BRANCH   6   9
ATOM      9  C   UNL     1      -6.227  -3.567   4.375  0.00  0.00    +0.262 C 
ATOM     10  O   UNL     1      -5.810  -3.747   5.503  0.00  0.00    -0.269 OA
ATOM     11  N   UNL     1      -7.555  -3.550   4.142  0.00  0.00    -0.324 N 
ATOM     12  H   UNL     1      -7.888  -3.406   3.242  0.00  0.00    +0.145 HD
ATOM     13  H   UNL     1      -8.177  -3.682   4.874  0.00  0.00    +0.145 HD
ENDBRANCH   6   9
BRANCH   5  14
ATOM     14  N   UNL     1      -3.357  -3.814   4.708  0.00  0.00    -0.355 N 
ATOM     15  H   UNL     1      -2.394  -3.807   4.824  0.00  0.00    +0.142 HD
ATOM     16  H   UNL     1      -3.934  -4.042   5.454  0.00  0.00    +0.142 HD
ENDBRANCH   5  14
ENDBRANCH   2   4
BRANCH   1  17
ATOM     17  C   UNL     1      -1.976  -2.370  -0.067  0.00  0.00    +0.163 C 
BRANCH  17  18
ATOM     18  C   UNL     1      -2.486  -1.023   0.376  0.00  0.00    +0.234 C 
ATOM     19  O   UNL     1      -1.937  -0.436   1.284  0.00  0.00    -0.274 OA
ATOM     20  N   UNL     1      -3.552  -0.471  -0.236  0.00  0.00    -0.311 N 
ATOM     21  H   UNL     1      -3.991  -0.941  -0.962  0.00  0.00    +0.149 HD
BRANCH  20  22
ATOM     22  C   UNL     1      -4.048   0.839   0.196  0.00  0.00    +0.073 C 
ATOM     23  C   UNL     1      -5.068   0.667   1.340  0.00  0.00    +0.022 C 
ATOM     24  C   UNL     1      -6.132   1.758   1.067  0.00  0.00    +0.002 C 
ATOM     25  C   UNL     1      -6.244   1.748  -0.478  0.00  0.00    +0.002 C 
ATOM     26  C   UNL     1      -4.795   1.526  -0.960  0.00  0.00    +0.022 C 
ENDBRANCH  20  22
ENDBRANCH  17  18
BRANCH  17  27
ATOM     27  C   UNL     1      -1.148  -2.207  -1.344  0.00  0.00    +0.035 C 
BRANCH  27  29
ATOM     28  C   UNL     1      -1.198  -1.408  -3.710  0.00  0.00    +0.007 C 
ATOM     29  C   UNL     1      -2.050  -1.716  -2.478  0.00  0.00    -0.015 C 
ATOM     30  C   UNL     1      -3.073  -2.801  -2.822  0.00  0.00    +0.007 C 
ENDBRANCH  27  29
ENDBRANCH  17  27
ENDBRANCH   1  17
BRANCH   1  31
ATOM     31  C   UNL     1       0.300  -3.113   0.771  0.00  0.00    +0.144 C 
BRANCH  31  32
ATOM     32  C   UNL     1       1.036  -1.940   1.367  0.00  0.00    -0.026 A 
ATOM     33  C   UNL     1       1.220  -0.790   0.621  0.00  0.00    +0.009 A 
ATOM     34  C   UNL     1       1.893   0.288   1.163  0.00  0.00    +0.050 A 
ATOM     35  C   UNL     1       2.387   0.219   2.456  0.00  0.00    +0.166 A 
ATOM     36  C   UNL     1       2.202  -0.939   3.207  0.00  0.00    +0.167 A 
ATOM     37  C   UNL     1       1.521  -2.014   2.659  0.00  0.00    +0.054 A 
ATOM     38  O   UNL     1       2.774  -0.760   4.433  0.00  0.00    -0.453 OA
ATOM     39  C   UNL     1       3.664   0.362   4.282  0.00  0.00    +0.466 C 
ATOM     40  O   UNL     1       3.075   1.124   3.211  0.00  0.00    -0.453 OA
ENDBRANCH  31  32
ENDBRANCH   1  31
TORSDOF 10
