REMARK  Name = ZINC34923151
REMARK  11 active torsions:
REMARK  status: ('A' for Active; 'I' for Inactive)
REMARK    1  A    between atoms: C_1  and  C_2
REMARK    2  A    between atoms: C_2  and  C_3
REMARK    3  A    between atoms: C_4  and  C_36
REMARK    4  A    between atoms: C_5  and  C_29
REMARK    5  A    between atoms: C_8  and  C_13
REMARK    6  A    between atoms: C_14  and  N_16
REMARK    7  A    between atoms: N_16  and  C_17
REMARK    8  A    between atoms: C_17  and  C_18
REMARK    9  A    between atoms: C_18  and  C_19
REMARK   10  A    between atoms: C_36  and  O_38
REMARK   11  A    between atoms: O_38  and  C_39
REMARK                            x       y       z     vdW  Elec       q    Type
REMARK                         _______ _______ _______ _____ _____    ______ ____
ROOT
ATOM      1  C   UNL     1       0.540  -0.929  -1.451  0.00  0.00    +0.056 C 
ATOM      2  C   UNL     1       1.911  -1.045  -1.316  0.00  0.00    +0.083 C 
ATOM      3  C   UNL     1       2.721  -1.324  -2.562  0.00  0.00    +0.150 C 
ATOM      4  N   UNL     1       1.973  -1.452  -3.841  0.00  0.00    -0.267 N 
ATOM      5  C   UNL     1       2.502  -1.704  -5.091  0.00  0.00    +0.048 C 
ATOM      6  C   UNL     1       1.643  -1.784  -6.131  0.00  0.00    +0.072 C 
ATOM      7  S   UNL     1       0.074  -1.500  -5.335  0.00  0.00    -0.060 S 
ATOM      8  C   UNL     1       0.617  -1.303  -3.760  0.00  0.00    +0.166 C 
ATOM      9  N   UNL     1      -0.030  -1.065  -2.637  0.00  0.00    -0.229 NA
ENDROOT
BRANCH   3  10
ATOM     10  C   UNL     1       3.485  -2.604  -2.342  0.00  0.00    -0.019 A 
ATOM     11  C   UNL     1       2.840  -3.822  -2.459  0.00  0.00    +0.006 A 
ATOM     12  C   UNL     1       3.539  -4.997  -2.257  0.00  0.00    +0.003 A 
ATOM     13  C   UNL     1       4.884  -4.956  -1.938  0.00  0.00    +0.038 A 
ATOM     14  C   UNL     1       5.530  -3.737  -1.820  0.00  0.00    +0.124 A 
ATOM     15  C   UNL     1       4.830  -2.561  -2.029  0.00  0.00    +0.044 A 
ATOM     16  F   UNL     1       6.844  -3.696  -1.508  0.00  0.00    -0.205 F 
ENDBRANCH   3  10
BRANCH   5  17
ATOM     17  C   UNL     1       3.949  -1.879  -5.285  0.00  0.00    +0.091 C 
ATOM     18  C   UNL     1       4.425  -2.277  -6.480  0.00  0.00    +0.239 C 
ATOM     19  O   UNL     1       3.585  -2.404  -7.536  0.00  0.00    -0.271 OA
BRANCH  18  20
ATOM     20  N   UNL     1       5.773  -2.558  -6.630  0.00  0.00    -0.311 N 
ATOM     21  H   UNL     1       6.360  -2.539  -5.858  0.00  0.00    +0.149 HD
BRANCH  20  22
ATOM     22  C   UNL     1       6.311  -2.882  -7.953  0.00  0.00    +0.109 C 
BRANCH  22  23
ATOM     23  C   UNL     1       7.786  -3.268  -7.823  0.00  0.00    +0.056 C 
BRANCH  23  24
ATOM     24  C   UNL     1       8.339  -3.602  -9.184  0.00  0.00    -0.021 A 
ATOM     25  C   UNL     1       8.430  -4.824  -9.732  0.00  0.00    +0.087 A 
ATOM     26  N   UNL     1       8.985  -4.737 -10.979  0.00  0.00    -0.360 N 
ATOM     27  H   UNL     1       9.152  -5.489 -11.569  0.00  0.00    +0.165 HD
ATOM     28  C   UNL     1       9.272  -3.423 -11.273  0.00  0.00    +0.047 A 
ATOM     29  C   UNL     1       8.874  -2.654 -10.164  0.00  0.00    +0.003 A 
ATOM     30  C   UNL     1       9.042  -1.268 -10.182  0.00  0.00    +0.010 A 
ATOM     31  C   UNL     1       9.589  -0.664 -11.279  0.00  0.00    +0.001 A 
ATOM     32  C   UNL     1       9.979  -1.419 -12.377  0.00  0.00    +0.002 A 
ATOM     33  C   UNL     1       9.832  -2.788 -12.377  0.00  0.00    +0.026 A 
ENDBRANCH  23  24
ENDBRANCH  22  23
ENDBRANCH  20  22
ENDBRANCH  18  20
ENDBRANCH   5  17
BRANCH   1  35
ATOM     34  C   UNL     1      -0.344   0.855   0.027  0.00  0.00    +0.010 C 
ATOM     35  C   UNL     1      -0.310  -0.651  -0.239  0.00  0.00    +0.053 C 
ENDBRANCH   1  35
BRANCH   2  36
ATOM     36  C   UNL     1       2.529  -0.908  -0.067  0.00  0.00    +0.339 C 
ATOM     37  O   UNL     1       1.851  -0.760   0.935  0.00  0.00    -0.245 OA
BRANCH  36  38
ATOM     38  O   UNL     1       3.876  -0.939   0.027  0.00  0.00    -0.465 OA
ATOM     39  C   UNL     1       4.439  -0.793   1.333  0.00  0.00    +0.280 C 
ENDBRANCH  36  38
ENDBRANCH   2  36
TORSDOF 9
