REMARK  Name = ZINC23244858
REMARK  13 active torsions:
REMARK  status: ('A' for Active; 'I' for Inactive)
REMARK    1  A    between atoms: C_1  and  C_2
REMARK    2  A    between atoms: C_2  and  O_3
REMARK    3  A    between atoms: O_3  and  C_4
REMARK    4  A    between atoms: C_7  and  S_13
REMARK    5  A    between atoms: C_8  and  O_10
REMARK    6  A    between atoms: O_10  and  C_11
REMARK    7  A    between atoms: C_11  and  C_12
REMARK    8  A    between atoms: S_13  and  N_16
REMARK    9  A    between atoms: N_19  and  C_22
REMARK   10  A    between atoms: C_22  and  C_23
REMARK   11  A    between atoms: C_23  and  N_24
REMARK   12  A    between atoms: C_29  and  C_31
REMARK   13  A    between atoms: C_34  and  C_37
REMARK                            x       y       z     vdW  Elec       q    Type
REMARK                         _______ _______ _______ _____ _____    ______ ____
ROOT
ATOM      1  N   UNL     1       5.310   4.987  -1.456  0.00  0.00    -0.180 NA
ATOM      2  C   UNL     1       5.891   4.355  -2.650  0.00  0.00    +0.091 C 
ATOM      3  C   UNL     1       4.907   4.533  -3.817  0.00  0.00    -0.061 C 
ATOM      4  N   UNL     1       4.583   5.959  -3.964  0.00  0.00    +0.383 N 
ATOM      5  C   UNL     1       3.898   6.475  -2.772  0.00  0.00    -0.061 C 
ATOM      6  C   UNL     1       4.836   6.374  -1.564  0.00  0.00    +0.091 C 
ATOM      7  H   UNL     1       5.531   6.508  -4.069  0.00  0.00    -0.082 HD
ENDROOT
BRANCH   1   8
ATOM      8  S   UNL     1       5.200   4.160  -0.025  0.00  0.00    +0.064 S 
ATOM      9  O   UNL     1       5.155   5.136   1.006  0.00  0.00    -0.153 OA
ATOM     10  O   UNL     1       6.191   3.142  -0.068  0.00  0.00    -0.153 OA
BRANCH   8  14
ATOM     11  C   UNL     1       1.185   2.058   0.002  0.00  0.00    +0.124 A 
ATOM     12  C   UNL     1       2.360   1.319  -0.008  0.00  0.00    +0.048 A 
ATOM     13  C   UNL     1       3.582   1.962  -0.022  0.00  0.00    +0.036 A 
ATOM     14  C   UNL     1       3.639   3.343  -0.015  0.00  0.00    +0.147 A 
ATOM     15  C   UNL     1       2.468   4.087   0.000  0.00  0.00    +0.150 A 
ATOM     16  C   UNL     1       1.239   3.443   0.009  0.00  0.00    +0.093 A 
BRANCH  11  17
ATOM     17  O   UNL     1      -0.017   1.425   0.010  0.00  0.00    -0.492 OA
BRANCH  17  19
ATOM     18  C   UNL     1      -1.433  -0.534   0.013  0.00  0.00    +0.048 C 
ATOM     19  C   UNL     1       0.002  -0.004   0.002  0.00  0.00    +0.225 C 
ENDBRANCH  17  19
ENDBRANCH  11  17
BRANCH  15  20
ATOM     20  O   UNL     1       2.524   5.444   0.007  0.00  0.00    -0.490 OA
BRANCH  20  21
ATOM     21  C   UNL     1       1.279   6.145   0.022  0.00  0.00    +0.226 C 
ATOM     22  C   UNL     1       1.543   7.653   0.027  0.00  0.00    +0.048 C 
ENDBRANCH  20  21
ENDBRANCH  15  20
ENDBRANCH   8  14
ENDBRANCH   1   8
BRANCH   4  23
ATOM     23  C   UNL     1       3.785   6.195  -5.174  0.00  0.00    -0.055 C 
BRANCH  23  24
ATOM     24  C   UNL     1       4.401   5.433  -6.349  0.00  0.00    +0.129 C 
BRANCH  24  25
ATOM     25  N   UNL     1       3.605   5.669  -7.556  0.00  0.00    -0.231 N 
ATOM     26  C   UNL     1       3.912   6.712  -8.349  0.00  0.00    +0.267 A 
ATOM     27  O   UNL     1       4.842   7.449  -8.064  0.00  0.00    -0.266 OA
ATOM     28  C   UNL     1       3.152   6.944  -9.518  0.00  0.00    +0.074 A 
ATOM     29  C   UNL     1       2.121   6.095  -9.788  0.00  0.00    +0.035 A 
ATOM     30  C   UNL     1       1.876   5.031  -8.888  0.00  0.00    +0.092 A 
ATOM     31  N   UNL     1       2.630   4.878  -7.825  0.00  0.00    -0.168 NA
BRANCH  30  32
ATOM     32  C   UNL     1       0.763   4.085  -9.148  0.00  0.00    +0.002 A 
ATOM     33  C   UNL     1      -0.044   4.246 -10.272  0.00  0.00    +0.010 A 
ATOM     34  C   UNL     1      -1.074   3.359 -10.511  0.00  0.00    +0.004 A 
ATOM     35  C   UNL     1      -1.313   2.318  -9.632  0.00  0.00    -0.050 A 
ATOM     36  C   UNL     1      -0.518   2.157  -8.511  0.00  0.00    +0.004 A 
ATOM     37  C   UNL     1       0.518   3.034  -8.265  0.00  0.00    +0.010 A 
ATOM     38  C   UNL     1      -2.443   1.357  -9.895  0.00  0.00    +0.044 C 
ENDBRANCH  30  32
ENDBRANCH  24  25
ENDBRANCH  23  24
ENDBRANCH   4  23
TORSDOF 10
