REMARK  Name = ZINC03341794
REMARK  10 active torsions:
REMARK  status: ('A' for Active; 'I' for Inactive)
REMARK    1  A    between atoms: C_1  and  C_2
REMARK    2  A    between atoms: C_5  and  C_8
REMARK    3  A    between atoms: C_9  and  C_19
REMARK    4  A    between atoms: N_11  and  C_13
REMARK    5  A    between atoms: C_20  and  C_21
REMARK    6  A    between atoms: N_23  and  C_24
REMARK    7  A    between atoms: C_24  and  C_25
REMARK    8  A    between atoms: C_25  and  C_26
REMARK    9  A    between atoms: C_29  and  S_32
REMARK   10  A    between atoms: S_32  and  N_35
REMARK                            x       y       z     vdW  Elec       q    Type
REMARK                         _______ _______ _______ _____ _____    ______ ____
ROOT
ATOM      1  C   UNL     1      -1.192   1.736   0.017  0.00  0.00    +0.016 C 
ATOM      2  C   UNL     1      -0.013   1.076   0.008  0.00  0.00    +0.068 C 
ENDROOT
BRANCH   1   4
ATOM      3  C   UNL     1      -3.810   1.544   0.035  0.00  0.00    +0.100 A 
ATOM      4  C   UNL     1      -2.453   0.985   0.019  0.00  0.00    +0.021 A 
ATOM      5  C   UNL     1      -2.599  -0.390   0.013  0.00  0.00    +0.123 A 
ATOM      6  N   UNL     1      -3.916  -0.664   0.018  0.00  0.00    -0.239 N 
ATOM      7  N   UNL     1      -4.644   0.529   0.028  0.00  0.00    -0.166 NA
BRANCH   3  12
ATOM      8  C   UNL     1      -5.211   7.128   0.099  0.00  0.00    +0.044 C 
ATOM      9  C   UNL     1      -4.844   5.667   0.082  0.00  0.00    -0.050 A 
ATOM     10  C   UNL     1      -5.635   4.766  -0.609  0.00  0.00    +0.004 A 
ATOM     11  C   UNL     1      -5.304   3.426  -0.628  0.00  0.00    +0.010 A 
ATOM     12  C   UNL     1      -4.171   2.981   0.051  0.00  0.00    +0.003 A 
ATOM     13  C   UNL     1      -3.381   3.893   0.751  0.00  0.00    +0.010 A 
ATOM     14  C   UNL     1      -3.718   5.231   0.758  0.00  0.00    +0.004 A 
ENDBRANCH   3  12
BRANCH   6  15
ATOM     15  C   UNL     1      -4.473  -1.950   0.014  0.00  0.00    +0.065 A 
ATOM     16  C   UNL     1      -3.646  -3.066  -0.001  0.00  0.00    +0.028 A 
ATOM     17  C   UNL     1      -4.198  -4.332   0.000  0.00  0.00    +0.002 A 
ATOM     18  C   UNL     1      -5.572  -4.489   0.007  0.00  0.00    +0.000 A 
ATOM     19  C   UNL     1      -6.398  -3.379   0.017  0.00  0.00    +0.002 A 
ATOM     20  C   UNL     1      -5.852  -2.111   0.021  0.00  0.00    +0.028 A 
ENDBRANCH   6  15
ENDBRANCH   1   4
BRANCH   2  21
ATOM     21  C   UNL     1       1.205   1.801   0.000  0.00  0.00    +0.237 C 
ATOM     22  O   UNL     1       1.189   3.019   0.007  0.00  0.00    -0.271 OA
ATOM     23  N   UNL     1       2.382   1.143  -0.015  0.00  0.00    -0.312 N 
ATOM     24  H   UNL     1       2.395   0.173  -0.020  0.00  0.00    +0.149 HD
BRANCH  23  25
ATOM     25  C   UNL     1       3.640   1.893  -0.022  0.00  0.00    +0.109 C 
BRANCH  25  26
ATOM     26  C   UNL     1       4.816   0.915  -0.039  0.00  0.00    +0.054 C 
BRANCH  26  27
ATOM     27  C   UNL     1       6.111   1.686  -0.047  0.00  0.00    -0.046 A 
ATOM     28  C   UNL     1       6.697   2.041  -1.248  0.00  0.00    +0.005 A 
ATOM     29  C   UNL     1       7.882   2.752  -1.256  0.00  0.00    +0.029 A 
ATOM     30  C   UNL     1       8.487   3.100  -0.062  0.00  0.00    +0.105 A 
ATOM     31  C   UNL     1       7.904   2.741   1.139  0.00  0.00    +0.029 A 
ATOM     32  C   UNL     1       6.716   2.033   1.146  0.00  0.00    +0.005 A 
BRANCH  30  33
ATOM     33  S   UNL     1      10.000   4.003  -0.072  0.00  0.00    +0.056 S 
ATOM     34  O   UNL     1      10.055   4.690  -1.315  0.00  0.00    -0.153 OA
ATOM     35  O   UNL     1      10.078   4.678   1.176  0.00  0.00    -0.153 OA
BRANCH  33  36
ATOM     36  N   UNL     1      11.231   2.896  -0.088  0.00  0.00    -0.204 NA
ATOM     37  H   UNL     1      12.074   3.114  -0.515  0.00  0.00    +0.144 HD
ATOM     38  H   UNL     1      11.108   2.028   0.329  0.00  0.00    +0.144 HD
ENDBRANCH  33  36
ENDBRANCH  30  33
ENDBRANCH  26  27
ENDBRANCH  25  26
ENDBRANCH  23  25
ENDBRANCH   2  21
TORSDOF 9
