REMARK  Name = ZINC62062197
REMARK  4 active torsions:
REMARK  status: ('A' for Active; 'I' for Inactive)
REMARK    1  A    between atoms: C_1  and  C_2
REMARK    2  A    between atoms: C_3  and  S_9
REMARK    3  A    between atoms: C_4  and  C_8
REMARK    4  A    between atoms: S_9  and  N_12
REMARK                            x       y       z     vdW  Elec       q    Type
REMARK                         _______ _______ _______ _____ _____    ______ ____
ROOT
ATOM      1  N   UNL     1       1.832  -0.149  -3.071  0.00  0.00    -0.202 N 
ATOM      2  C   UNL     1       2.449   1.147  -2.762  0.00  0.00    +0.139 C 
ATOM      3  C   UNL     1       3.279   1.601  -3.971  0.00  0.00    +0.100 C 
ATOM      4  C   UNL     1       4.295   0.517  -4.269  0.00  0.00    +0.167 C 
ATOM      5  O   UNL     1       5.445   0.791  -4.543  0.00  0.00    -0.292 OA
ATOM      6  C   UNL     1       3.836  -0.879  -4.215  0.00  0.00    +0.041 A 
ATOM      7  C   UNL     1       2.603  -1.173  -3.602  0.00  0.00    +0.062 A 
ATOM      8  C   UNL     1       2.166  -2.489  -3.538  0.00  0.00    +0.027 A 
ATOM      9  C   UNL     1       2.941  -3.499  -4.073  0.00  0.00    +0.022 A 
ATOM     10  C   UNL     1       4.157  -3.214  -4.676  0.00  0.00    +0.042 A 
ATOM     11  C   UNL     1       4.608  -1.908  -4.757  0.00  0.00    +0.033 A 
ATOM     12 CL   UNL     1       5.114  -4.500  -5.342  0.00  0.00    -0.084 Cl
ENDROOT
BRANCH   1  13
ATOM     13  S   UNL     1       0.219  -0.389  -2.781  0.00  0.00    +0.078 S 
ATOM     14  O   UNL     1      -0.197  -1.437  -3.646  0.00  0.00    -0.150 OA
ATOM     15  O   UNL     1      -0.391   0.894  -2.789  0.00  0.00    -0.150 OA
BRANCH  13  18
ATOM     16  C   UNL     1       0.384   1.213   0.082  0.00  0.00    +0.067 C 
ATOM     17  C   UNL     1       0.152  -0.273  -0.002  0.00  0.00    +0.060 A 
ATOM     18  C   UNL     1       0.072  -1.006  -1.137  0.00  0.00    +0.151 A 
ATOM     19  C   UNL     1      -0.148  -2.338  -0.774  0.00  0.00    +0.087 A 
ATOM     20  N   UNL     1      -0.199  -2.404   0.531  0.00  0.00    -0.177 NA
ATOM     21  N   UNL     1      -0.006  -1.114   1.042  0.00  0.00    -0.280 N 
ATOM     22  H   UNL     1       0.008  -0.868   1.980  0.00  0.00    +0.189 HD
ATOM     23  C   UNL     1      -0.302  -3.499  -1.724  0.00  0.00    +0.069 C 
ENDBRANCH  13  18
ENDBRANCH   1  13
TORSDOF 2
