REMARK  Name = ZINC35455862
REMARK  6 active torsions:
REMARK  status: ('A' for Active; 'I' for Inactive)
REMARK    1  A    between atoms: C_1  and  C_2
REMARK    2  A    between atoms: C_7  and  C_8
REMARK    3  A    between atoms: C_8  and  N_9
REMARK    4  A    between atoms: C_13  and  C_14
REMARK    5  A    between atoms: C_15  and  C_27
REMARK    6  A    between atoms: N_17  and  C_20
REMARK                            x       y       z     vdW  Elec       q    Type
REMARK                         _______ _______ _______ _____ _____    ______ ____
ROOT
ATOM      1  C   UNL     1      -5.708   1.537   3.897  0.00  0.00    +0.071 A 
ATOM      2  C   UNL     1      -6.477   2.418   4.786  0.00  0.00    +0.104 A 
ATOM      3  N   UNL     1      -7.527   1.741   5.189  0.00  0.00    -0.162 NA
ATOM      4  N   UNL     1      -7.502   0.464   4.621  0.00  0.00    -0.196 N 
ATOM      5  C   UNL     1      -6.411   0.337   3.837  0.00  0.00    +0.281 A 
ATOM      6  O   UNL     1      -6.062  -0.760   3.124  0.00  0.00    -0.265 OA
ENDROOT
BRANCH   1  11
ATOM      7  N   UNL     1      -1.388   0.091   3.019  0.00  0.00    -0.216 N 
ATOM      8  C   UNL     1      -2.126   1.167   2.682  0.00  0.00    +0.269 C 
ATOM      9  O   UNL     1      -1.767   2.102   1.988  0.00  0.00    -0.268 OA
ATOM     10  C   UNL     1      -3.400   1.005   3.287  0.00  0.00    +0.099 C 
ATOM     11  C   UNL     1      -4.459   1.858   3.209  0.00  0.00    +0.044 C 
ATOM     12  N   UNL     1      -3.346  -0.214   3.981  0.00  0.00    -0.265 N 
ATOM     13  C   UNL     1      -2.119  -0.733   3.788  0.00  0.00    +0.313 C 
ATOM     14  O   UNL     1      -1.728  -1.791   4.246  0.00  0.00    -0.252 OA
ATOM     15  H   UNL     1      -4.062  -0.611   4.500  0.00  0.00    +0.157 HD
BRANCH   7  16
ATOM     16  C   UNL     1      -0.004  -0.147   2.604  0.00  0.00    +0.153 C 
BRANCH  16  23
ATOM     17  C   UNL     1       2.506  -0.983   1.444  0.00  0.00    +0.044 C 
ATOM     18  C   UNL     1       1.208  -1.326   0.759  0.00  0.00    -0.046 A 
ATOM     19  C   UNL     1       1.218  -2.046  -0.421  0.00  0.00    +0.003 A 
ATOM     20  C   UNL     1       0.028  -2.360  -1.049  0.00  0.00    +0.000 A 
ATOM     21  C   UNL     1      -1.173  -1.956  -0.496  0.00  0.00    +0.000 A 
ATOM     22  C   UNL     1      -1.183  -1.237   0.684  0.00  0.00    +0.005 A 
ATOM     23  C   UNL     1       0.008  -0.926   1.314  0.00  0.00    -0.027 A 
ENDBRANCH  16  23
ENDBRANCH   7  16
ENDBRANCH   1  11
BRANCH   4  24
ATOM     24  C   UNL     1      -8.466  -0.531   4.830  0.00  0.00    +0.069 A 
ATOM     25  C   UNL     1      -8.799  -1.403   3.802  0.00  0.00    +0.029 A 
ATOM     26  C   UNL     1      -9.750  -2.383   4.011  0.00  0.00    +0.022 A 
ATOM     27  C   UNL     1     -10.370  -2.496   5.243  0.00  0.00    +0.041 A 
ATOM     28  C   UNL     1     -10.040  -1.628   6.268  0.00  0.00    +0.022 A 
ATOM     29  C   UNL     1      -9.086  -0.650   6.067  0.00  0.00    +0.029 A 
ATOM     30 CL   UNL     1     -11.565  -3.729   5.501  0.00  0.00    -0.084 Cl
ENDBRANCH   4  24
BRANCH   2  31
ATOM     31  C   UNL     1      -6.131   3.810   5.159  0.00  0.00    +0.003 A 
ATOM     32  C   UNL     1      -4.797   4.183   5.312  0.00  0.00    +0.010 A 
ATOM     33  C   UNL     1      -4.481   5.481   5.659  0.00  0.00    +0.001 A 
ATOM     34  C   UNL     1      -5.487   6.412   5.854  0.00  0.00    +0.000 A 
ATOM     35  C   UNL     1      -6.813   6.047   5.703  0.00  0.00    +0.001 A 
ATOM     36  C   UNL     1      -7.140   4.754   5.351  0.00  0.00    +0.010 A 
ENDBRANCH   2  31
TORSDOF 5
