REMARK  Name = ZINC63775700
REMARK  11 active torsions:
REMARK  status: ('A' for Active; 'I' for Inactive)
REMARK    1  A    between atoms: C_1  and  C_2
REMARK    2  A    between atoms: C_2  and  C_3
REMARK    3  A    between atoms: C_6  and  N_9
REMARK    4  A    between atoms: C_10  and  C_12
REMARK    5  A    between atoms: C_12  and  C_14
REMARK    6  A    between atoms: C_12  and  O_15
REMARK    7  A    between atoms: O_15  and  C_16
REMARK    8  A    between atoms: C_16  and  C_18
REMARK    9  A    between atoms: C_18  and  C_20
REMARK   10  A    between atoms: C_18  and  N_30
REMARK   11  A    between atoms: C_20  and  C_21
REMARK                            x       y       z     vdW  Elec       q    Type
REMARK                         _______ _______ _______ _____ _____    ______ ____
ROOT
ATOM      1  C   UNL     1      -9.409  -3.866  -4.014  0.00  0.00    +0.187 C 
ENDROOT
BRANCH   1   2
ATOM      2  N   UNL     1     -10.073  -5.172  -4.051  0.00  0.00    -0.286 N 
ATOM      3  C   UNL     1     -11.126  -5.415  -3.247  0.00  0.00    +0.298 C 
ATOM      4  O   UNL     1     -11.526  -4.552  -2.490  0.00  0.00    -0.253 OA
ATOM      5  N   UNL     1     -11.737  -6.617  -3.281  0.00  0.00    -0.313 N 
ATOM      6  H   UNL     1      -9.754  -5.861  -4.655  0.00  0.00    +0.151 HD
ATOM      7  H   UNL     1     -11.418  -7.306  -3.885  0.00  0.00    +0.146 HD
ATOM      8  H   UNL     1     -12.495  -6.792  -2.702  0.00  0.00    +0.146 HD
ENDBRANCH   1   2
BRANCH   1   9
ATOM      9  C   UNL     1      -8.875  -3.614  -2.627  0.00  0.00    +0.329 C 
ATOM     10  O   UNL     1      -9.319  -4.229  -1.687  0.00  0.00    -0.249 OA
BRANCH   9  11
ATOM     11  O   UNL     1      -7.905  -2.706  -2.437  0.00  0.00    -0.451 OA
BRANCH  11  12
ATOM     12  C   UNL     1      -7.446  -2.518  -1.097  0.00  0.00    +0.259 C 
ATOM     13  C   UNL     1      -8.279  -1.428  -0.420  0.00  0.00    +0.062 C 
BRANCH  12  15
ATOM     14  N   UNL     1      -5.320  -1.968   0.042  0.00  0.00    -0.282 N 
ATOM     15  C   UNL     1      -5.997  -2.104  -1.115  0.00  0.00    +0.258 C 
ATOM     16  O   UNL     1      -5.440  -1.894  -2.172  0.00  0.00    -0.271 OA
ATOM     17  H   UNL     1      -5.742  -2.209   0.882  0.00  0.00    +0.155 HD
BRANCH  14  21
ATOM     18  C   UNL     1      -1.419  -0.507   0.015  0.00  0.00    -0.048 A 
ATOM     19  C   UNL     1      -2.333  -0.050  -0.916  0.00  0.00    +0.005 A 
ATOM     20  C   UNL     1      -3.627  -0.533  -0.910  0.00  0.00    +0.023 A 
ATOM     21  C   UNL     1      -4.010  -1.478   0.033  0.00  0.00    +0.034 A 
ATOM     22  C   UNL     1      -3.089  -1.934   0.967  0.00  0.00    +0.023 A 
ATOM     23  C   UNL     1      -1.795  -1.452   0.952  0.00  0.00    +0.005 A 
BRANCH  18  25
ATOM     24  C   UNL     1       0.858  -0.853  -0.904  0.00  0.00    +0.009 C 
ATOM     25  C   UNL     1      -0.007   0.021   0.005  0.00  0.00    +0.032 C 
ENDBRANCH  18  25
ENDBRANCH  14  21
ENDBRANCH  12  15
ENDBRANCH  11  12
ENDBRANCH   9  11
ENDBRANCH   1   9
BRANCH   1  26
ATOM     26  C   UNL     1     -10.414  -2.772  -4.380  0.00  0.00    +0.067 C 
BRANCH  26  27
ATOM     27  C   UNL     1     -10.856  -2.954  -5.809  0.00  0.00    -0.039 C 
ATOM     28  C   UNL     1     -11.961  -3.603  -6.242  0.00  0.00    -0.001 A 
ATOM     29  C   UNL     1     -13.039  -4.309  -5.539  0.00  0.00    +0.010 A 
ATOM     30  C   UNL     1     -14.034  -4.873  -6.262  0.00  0.00    +0.001 A 
ATOM     31  C   UNL     1     -14.060  -4.802  -7.662  0.00  0.00    +0.002 A 
ATOM     32  C   UNL     1     -13.105  -4.171  -8.377  0.00  0.00    +0.026 A 
ATOM     33  C   UNL     1     -12.012  -3.542  -7.720  0.00  0.00    +0.043 A 
ATOM     34  N   UNL     1     -10.979  -2.880  -8.183  0.00  0.00    -0.380 N 
ATOM     35  C   UNL     1     -10.158  -2.442  -7.048  0.00  0.00    +0.144 C 
ATOM     36  H   UNL     1     -10.791  -2.706  -9.118  0.00  0.00    +0.160 HD
ENDBRANCH  26  27
ENDBRANCH   1  26
TORSDOF 9
