REMARK  Name = ZINC44819087
REMARK  6 active torsions:
REMARK  status: ('A' for Active; 'I' for Inactive)
REMARK    1  A    between atoms: C_1  and  C_2
REMARK    2  A    between atoms: C_2  and  C_4
REMARK    3  A    between atoms: C_2  and  N_18
REMARK    4  A    between atoms: N_6  and  N_7
REMARK    5  A    between atoms: C_8  and  C_10
REMARK    6  A    between atoms: C_19  and  C_21
REMARK                            x       y       z     vdW  Elec       q    Type
REMARK                         _______ _______ _______ _____ _____    ______ ____
ROOT
ATOM      1  C   UNL     1      -1.412  -0.526   0.013  0.00  0.00    +0.249 C 
ATOM      2  O   UNL     1      -1.790  -1.233   0.922  0.00  0.00    -0.272 OA
ATOM      3  N   UNL     1      -2.256  -0.206  -0.988  0.00  0.00    -0.233 N 
ATOM      4  H   UNL     1      -1.953   0.360  -1.716  0.00  0.00    +0.173 HD
ENDROOT
BRANCH   3   5
ATOM      5  N   UNL     1      -3.570  -0.691  -0.978  0.00  0.00    -0.230 N 
ATOM      6  C   UNL     1      -4.414  -0.371  -1.980  0.00  0.00    +0.262 C 
ATOM      7  O   UNL     1      -4.034   0.338  -2.891  0.00  0.00    -0.269 OA
ATOM      8  H   UNL     1      -3.873  -1.257  -0.251  0.00  0.00    +0.173 HD
BRANCH   6   9
ATOM      9  C   UNL     1      -5.800  -0.883  -1.969  0.00  0.00    +0.058 A 
ATOM     10  C   UNL     1      -6.241  -1.693  -0.921  0.00  0.00    +0.034 A 
ATOM     11  C   UNL     1      -7.537  -2.167  -0.917  0.00  0.00    +0.042 A 
ATOM     12  C   UNL     1      -8.400  -1.842  -1.951  0.00  0.00    +0.021 A 
ATOM     13  C   UNL     1      -7.970  -1.040  -2.992  0.00  0.00    +0.022 A 
ATOM     14  C   UNL     1      -6.677  -0.553  -3.005  0.00  0.00    +0.053 A 
ATOM     15 CL   UNL     1      -6.142   0.459  -4.310  0.00  0.00    -0.083 Cl
ATOM     16 CL   UNL     1      -8.087  -3.174   0.386  0.00  0.00    -0.084 Cl
ENDBRANCH   6   9
ENDBRANCH   3   5
BRANCH   1  18
ATOM     17  C   UNL     1      -0.019   1.526   0.010  0.00  0.00    +0.038 C 
ATOM     18  C   UNL     1       0.002  -0.004   0.002  0.00  0.00    +0.158 C 
BRANCH  18  19
ATOM     19  N   UNL     1       0.711  -0.489   1.189  0.00  0.00    -0.300 N 
ATOM     20  C   UNL     1       2.054  -0.600   1.174  0.00  0.00    +0.245 C 
ATOM     21  O   UNL     1       2.677  -0.297   0.175  0.00  0.00    -0.270 OA
ATOM     22  H   UNL     1       0.213  -0.731   1.986  0.00  0.00    +0.150 HD
BRANCH  20  23
ATOM     23  C   UNL     1       2.768  -1.089   2.371  0.00  0.00    +0.037 A 
ATOM     24  C   UNL     1       2.055  -1.444   3.517  0.00  0.00    +0.014 A 
ATOM     25  C   UNL     1       2.727  -1.900   4.631  0.00  0.00    +0.021 A 
ATOM     26  C   UNL     1       4.108  -2.007   4.614  0.00  0.00    +0.041 A 
ATOM     27  C   UNL     1       4.822  -1.657   3.480  0.00  0.00    +0.021 A 
ATOM     28  C   UNL     1       4.160  -1.205   2.358  0.00  0.00    +0.014 A 
ATOM     29 CL   UNL     1       4.948  -2.582   6.021  0.00  0.00    -0.084 Cl
ENDBRANCH  20  23
ENDBRANCH  18  19
ENDBRANCH   1  18
TORSDOF 5
