REMARK  Name = ZINC64664535
REMARK  7 active torsions:
REMARK  status: ('A' for Active; 'I' for Inactive)
REMARK    1  A    between atoms: C_1  and  C_2
REMARK    2  A    between atoms: C_2  and  C_3
REMARK    3  A    between atoms: C_6  and  C_9
REMARK    4  A    between atoms: C_12  and  C_14
REMARK    5  A    between atoms: C_15  and  N_27
REMARK    6  A    between atoms: N_16  and  C_19
REMARK    7  A    between atoms: C_22  and  C_26
REMARK                            x       y       z     vdW  Elec       q    Type
REMARK                         _______ _______ _______ _____ _____    ______ ____
ROOT
ATOM      1  C   UNL     1      -8.111  -3.000   2.384  0.00  0.00    +0.159 A 
ATOM      2  C   UNL     1      -9.407  -3.485   2.334  0.00  0.00    +0.150 A 
ATOM      3  N   UNL     1      -9.811  -3.632   3.629  0.00  0.00    -0.198 N 
ATOM      4  N   UNL     1      -8.736  -3.227   4.433  0.00  0.00    -0.058 NA
ATOM      5  N   UNL     1      -7.761  -2.870   3.674  0.00  0.00    -0.125 NA
ENDROOT
BRANCH   3   6
ATOM      6  C   UNL     1     -11.058  -4.097   4.070  0.00  0.00    +0.072 A 
ATOM      7  C   UNL     1     -12.206  -3.797   3.349  0.00  0.00    +0.028 A 
ATOM      8  C   UNL     1     -13.434  -4.256   3.785  0.00  0.00    +0.008 A 
ATOM      9  C   UNL     1     -13.522  -5.013   4.938  0.00  0.00    -0.015 A 
ATOM     10  C   UNL     1     -12.379  -5.313   5.661  0.00  0.00    +0.128 A 
ATOM     11  C   UNL     1     -11.146  -4.861   5.225  0.00  0.00    +0.066 A 
ATOM     12  F   UNL     1     -12.467  -6.052   6.788  0.00  0.00    -0.205 F 
ATOM     13  C   UNL     1     -14.863  -5.512   5.411  0.00  0.00    +0.047 C 
ENDBRANCH   3   6
BRANCH   1  17
ATOM     14  C   UNL     1      -5.400  -1.999   0.043  0.00  0.00    +0.079 A 
ATOM     15  C   UNL     1      -6.055  -2.241  -1.134  0.00  0.00    +0.075 A 
ATOM     16  S   UNL     1      -7.632  -2.824  -0.523  0.00  0.00    -0.073 S 
ATOM     17  C   UNL     1      -7.260  -2.686   1.220  0.00  0.00    +0.132 A 
ATOM     18  N   UNL     1      -6.016  -2.232   1.189  0.00  0.00    -0.237 NA
BRANCH  14  22
ATOM     19  C   UNL     1      -1.412  -0.526   0.013  0.00  0.00    -0.048 A 
ATOM     20  C   UNL     1      -2.049  -0.765   1.217  0.00  0.00    +0.004 A 
ATOM     21  C   UNL     1      -3.343  -1.243   1.233  0.00  0.00    +0.010 A 
ATOM     22  C   UNL     1      -4.009  -1.484   0.032  0.00  0.00    +0.001 A 
ATOM     23  C   UNL     1      -3.362  -1.241  -1.178  0.00  0.00    +0.010 A 
ATOM     24  C   UNL     1      -2.070  -0.758  -1.182  0.00  0.00    +0.004 A 
BRANCH  19  26
ATOM     25  C   UNL     1      -0.019   1.526   0.010  0.00  0.00    +0.009 C 
ATOM     26  C   UNL     1       0.002  -0.004   0.002  0.00  0.00    +0.032 C 
ENDBRANCH  19  26
ENDBRANCH  14  22
ENDBRANCH   1  17
BRANCH   2  27
ATOM     27  N   UNL     1     -10.147  -3.767   1.196  0.00  0.00    -0.341 N 
ATOM     28  H   UNL     1      -9.759  -3.625   0.318  0.00  0.00    +0.144 HD
ATOM     29  H   UNL     1     -11.052  -4.105   1.277  0.00  0.00    +0.144 HD
ENDBRANCH   2  27
TORSDOF 5
