REMARK  Name = ZINC13173522
REMARK  7 active torsions:
REMARK  status: ('A' for Active; 'I' for Inactive)
REMARK    1  A    between atoms: C_5  and  C_7
REMARK    2  A    between atoms: C_7  and  C_9
REMARK    3  A    between atoms: C_7  and  N_12
REMARK    4  A    between atoms: C_9  and  C_10
REMARK    5  A    between atoms: C_13  and  C_15
REMARK    6  A    between atoms: C_15  and  O_16
REMARK    7  A    between atoms: O_16  and  C_17
REMARK                            x       y       z     vdW  Elec       q    Type
REMARK                         _______ _______ _______ _____ _____    ______ ____
ROOT
ATOM      1  N   UNL     1      -0.080   1.663   2.435  0.00  0.00    -0.305 N 
ATOM      2  C   UNL     1      -0.019   0.416   2.944  0.00  0.00    +0.251 C 
ATOM      3  O   UNL     1      -0.671  -0.476   2.444  0.00  0.00    -0.272 OA
ATOM      4  H   UNL     1       0.383   2.391   2.878  0.00  0.00    +0.149 HD
ENDROOT
BRANCH   1   5
ATOM      5  C   UNL     1      -0.846   1.918   1.212  0.00  0.00    +0.115 C 
BRANCH   5  10
ATOM      6  C   UNL     1      -0.684   5.660   1.688  0.00  0.00    +0.000 A 
ATOM      7  C   UNL     1      -1.783   6.079   0.963  0.00  0.00    +0.001 A 
ATOM      8  C   UNL     1      -2.580   5.152   0.317  0.00  0.00    +0.020 A 
ATOM      9  C   UNL     1      -2.277   3.804   0.398  0.00  0.00    +0.046 A 
ATOM     10  C   UNL     1      -1.177   3.386   1.124  0.00  0.00    -0.008 A 
ATOM     11  C   UNL     1      -0.383   4.313   1.773  0.00  0.00    +0.007 A 
ATOM     12 CL   UNL     1      -3.278   2.640  -0.412  0.00  0.00    -0.083 Cl
ENDBRANCH   5  10
BRANCH   5  13
ATOM     13  C   UNL     1      -0.015   1.508  -0.005  0.00  0.00    +0.152 C 
BRANCH  13  14
ATOM     14  C   UNL     1       1.324   2.197   0.046  0.00  0.00    +0.358 C 
ATOM     15  O   UNL     1       1.558   2.999   0.918  0.00  0.00    -0.246 OA
ATOM     16  O   UNL     1       2.257   1.920  -0.878  0.00  0.00    -0.246 OA
ENDBRANCH  13  14
ENDBRANCH   5  13
ENDBRANCH   1   5
BRANCH   2  17
ATOM     17  C   UNL     1       0.859   0.131   4.135  0.00  0.00    +0.324 C 
BRANCH  17  18
ATOM     18  O   UNL     1       0.753  -1.251   4.484  0.00  0.00    -0.482 OA
BRANCH  18  19
ATOM     19  C   UNL     1       1.488  -1.677   5.545  0.00  0.00    +0.135 A 
ATOM     20  C   UNL     1       2.294  -0.783   6.236  0.00  0.00    +0.048 A 
ATOM     21  C   UNL     1       3.040  -1.218   7.314  0.00  0.00    +0.019 A 
ATOM     22  C   UNL     1       2.984  -2.544   7.706  0.00  0.00    +0.019 A 
ATOM     23  C   UNL     1       2.182  -3.437   7.019  0.00  0.00    +0.034 A 
ATOM     24  C   UNL     1       1.429  -3.005   5.943  0.00  0.00    +0.061 A 
ATOM     25 BR   UNL     1       0.326  -4.225   5.010  0.00  0.00    -0.046 Br
ATOM     26 BR   UNL     1       4.006  -3.136   9.183  0.00  0.00    -0.050 Br
ENDBRANCH  18  19
ENDBRANCH  17  18
ENDBRANCH   2  17
TORSDOF 7
