REMARK  Name = ZINC11996515
REMARK  10 active torsions:
REMARK  status: ('A' for Active; 'I' for Inactive)
REMARK    1  A    between atoms: C_1  and  C_2
REMARK    2  A    between atoms: C_2  and  C_3
REMARK    3  A    between atoms: C_2  and  C_6
REMARK    4  A    between atoms: C_2  and  O_29
REMARK    5  A    between atoms: C_3  and  N_59
REMARK    6  A    between atoms: C_4  and  N_59
REMARK    7  A    between atoms: C_5  and  N_59
REMARK    8  A    between atoms: C_16  and  C_17
REMARK    9  A    between atoms: C_16  and  N_61
REMARK   10  A    between atoms: N_20  and  C_22
REMARK                            x       y       z     vdW  Elec       q    Type
REMARK                         _______ _______ _______ _____ _____    ______ ____
ROOT
ATOM      1  C   UNL     1       4.563  -1.869  -1.263  0.00  0.00    -0.018 A 
ATOM      2  C   UNL     1       5.391  -0.763  -1.194  0.00  0.00    +0.010 A 
ATOM      3  C   UNL     1       4.857   0.510  -1.256  0.00  0.00    +0.046 A 
ATOM      4  C   UNL     1       3.486   0.674  -1.388  0.00  0.00    +0.122 A 
ATOM      5  C   UNL     1       2.664  -0.434  -1.474  0.00  0.00    -0.022 A 
ATOM      6  C   UNL     1       3.196  -1.705  -1.405  0.00  0.00    +0.011 A 
ATOM      7  C   UNL     1       1.171  -0.240  -1.650  0.00  0.00    -0.039 C 
ATOM      8  C   UNL     1       0.749   1.793  -0.378  0.00  0.00    -0.036 C 
ATOM      9  C   UNL     1       2.179   2.271  -0.240  0.00  0.00    +0.210 C 
ATOM     10  O   UNL     1       2.945   1.923  -1.401  0.00  0.00    -0.494 OA
ATOM     11  N   UNL     1       0.633   0.319  -0.387  0.00  0.00    +0.387 N 
ATOM     12  H   UNL     1       1.176  -0.060   0.398  0.00  0.00    -0.081 HD
ENDROOT
BRANCH   1  14
ATOM     13  C   UNL     1       5.202  -3.704   0.277  0.00  0.00    +0.044 C 
ATOM     14  C   UNL     1       5.150  -3.255  -1.185  0.00  0.00    +0.074 C 
BRANCH  14  15
ATOM     15  O   UNL     1       4.336  -4.160  -1.933  0.00  0.00    -0.386 OA
ATOM     16  H   UNL     1       3.999  -3.793  -2.762  0.00  0.00    +0.211 HD
ENDBRANCH  14  15
BRANCH  14  17
ATOM     17  C   UNL     1       6.565  -3.242  -1.766  0.00  0.00    -0.040 C 
BRANCH  17  20
ATOM     18  C   UNL     1       7.870  -2.201  -3.520  0.00  0.00    -0.096 C 
ATOM     19  C   UNL     1       5.995  -3.625  -4.088  0.00  0.00    -0.096 C 
ATOM     20  N   UNL     1       6.518  -2.642  -3.115  0.00  0.00    +0.378 N 
ATOM     21  H   UNL     1       5.893  -1.827  -3.096  0.00  0.00    -0.083 HD
ENDBRANCH  17  20
ENDBRANCH  14  17
ENDBRANCH   1  14
BRANCH  11  22
ATOM     22  C   UNL     1      -0.776  -0.072  -0.223  0.00  0.00    -0.039 C 
BRANCH  22  23
ATOM     23  C   UNL     1      -1.214   0.287   1.174  0.00  0.00    -0.026 A 
ATOM     24  C   UNL     1      -1.109  -0.530   2.304  0.00  0.00    +0.136 A 
ATOM     25  N   UNL     1      -1.588   0.126   3.330  0.00  0.00    -0.175 NA
ATOM     26  N   UNL     1      -2.024   1.380   2.883  0.00  0.00    -0.240 N 
ATOM     27  C   UNL     1      -1.782   1.454   1.554  0.00  0.00    +0.116 A 
BRANCH  26  28
ATOM     28  C   UNL     1      -2.606   2.382   3.673  0.00  0.00    +0.066 A 
ATOM     29  C   UNL     1      -2.988   3.586   3.098  0.00  0.00    +0.030 A 
ATOM     30  C   UNL     1      -3.566   4.569   3.877  0.00  0.00    +0.040 A 
ATOM     31  C   UNL     1      -3.756   4.358   5.232  0.00  0.00    +0.124 A 
ATOM     32  C   UNL     1      -3.371   3.159   5.809  0.00  0.00    +0.040 A 
ATOM     33  C   UNL     1      -2.797   2.172   5.032  0.00  0.00    +0.030 A 
ATOM     34  F   UNL     1      -4.317   5.323   5.994  0.00  0.00    -0.205 F 
ENDBRANCH  26  28
ENDBRANCH  22  23
ENDBRANCH  11  22
TORSDOF 7
