REMARK  Name = ZINC20704120
REMARK  4 active torsions:
REMARK  status: ('A' for Active; 'I' for Inactive)
REMARK    1  A    between atoms: C_1  and  C_2
REMARK    2  A    between atoms: C_4  and  N_28
REMARK    3  A    between atoms: C_9  and  C_18
REMARK    4  A    between atoms: C_22  and  N_24
REMARK                            x       y       z     vdW  Elec       q    Type
REMARK                         _______ _______ _______ _____ _____    ______ ____
ROOT
ATOM      1  C   UNL     1       1.121  -2.573   0.450  0.00  0.00    +0.046 C 
ATOM      2  C   UNL     1       0.323  -1.452  -0.166  0.00  0.00    -0.027 A 
ATOM      3  C   UNL     1      -0.721  -1.747  -1.014  0.00  0.00    +0.038 A 
ATOM      4  C   UNL     1      -1.463  -0.730  -1.586  0.00  0.00    +0.127 A 
ATOM      5  C   UNL     1      -1.155   0.586  -1.296  0.00  0.00    +0.038 A 
ATOM      6  C   UNL     1      -0.115   0.890  -0.444  0.00  0.00    -0.017 A 
ATOM      7  C   UNL     1       0.651  -0.129   0.131  0.00  0.00    +0.034 A 
ATOM      8  N   UNL     1       1.743   0.092   0.967  0.00  0.00    -0.336 N 
ATOM      9  C   UNL     1       2.025   1.490   1.333  0.00  0.00    +0.105 C 
ATOM     10  C   UNL     1       1.776   2.332   0.099  0.00  0.00    +0.029 C 
ATOM     11  C   UNL     1       0.229   2.288  -0.103  0.00  0.00    +0.049 C 
ATOM     12  C   UNL     1      -0.021   3.421  -1.026  0.00  0.00    -0.023 C 
ATOM     13  C   UNL     1       0.922   4.338  -0.835  0.00  0.00    -0.030 C 
ATOM     14  C   UNL     1       1.912   3.854   0.227  0.00  0.00    +0.033 C 
ATOM     15  H   UNL     1       2.382  -0.716   1.351  0.00  0.00    +0.147 HD
ENDROOT
BRANCH   9  16
ATOM     16  C   UNL     1       1.105   1.925   2.445  0.00  0.00    -0.025 A 
ATOM     17  C   UNL     1      -0.112   1.293   2.622  0.00  0.00    +0.007 A 
ATOM     18  C   UNL     1      -0.955   1.692   3.642  0.00  0.00    +0.022 A 
ATOM     19  C   UNL     1      -0.581   2.722   4.486  0.00  0.00    +0.071 A 
ATOM     20  C   UNL     1       0.637   3.354   4.308  0.00  0.00    +0.145 A 
ATOM     21  C   UNL     1       1.482   2.951   3.292  0.00  0.00    +0.039 A 
ATOM     22 CL   UNL     1      -1.640   3.223   5.768  0.00  0.00    -0.081 Cl
BRANCH  20  23
ATOM     23  N   UNL     1       1.038   4.456   5.211  0.00  0.00    +0.058 N 
ATOM     24  O   UNL     1       2.110   5.012   5.054  0.00  0.00    -0.126 OA
ATOM     25  O   UNL     1       0.295   4.807   6.110  0.00  0.00    -0.126 OA
ENDBRANCH  20  23
ENDBRANCH   9  16
BRANCH   4  26
ATOM     26  N   UNL     1      -2.580  -1.048  -2.503  0.00  0.00    +0.056 N 
ATOM     27  O   UNL     1      -2.849  -2.209  -2.756  0.00  0.00    -0.126 OA
ATOM     28  O   UNL     1      -3.231  -0.149  -3.005  0.00  0.00    -0.126 OA
ENDBRANCH   4  26
TORSDOF 3
