REMARK  Name = ZINC39668907
REMARK  5 active torsions:
REMARK  status: ('A' for Active; 'I' for Inactive)
REMARK    1  A    between atoms: C_10  and  C_12
REMARK    2  A    between atoms: C_12  and  N_13
REMARK    3  A    between atoms: C_14  and  C_16
REMARK    4  A    between atoms: C_27  and  C_29
REMARK    5  A    between atoms: C_34  and  C_35
REMARK                            x       y       z     vdW  Elec       q    Type
REMARK                         _______ _______ _______ _____ _____    ______ ____
ROOT
ATOM      1  C   UNL     1       7.846  -0.510  -2.212  0.00  0.00    +0.100 C 
ATOM      2  C   UNL     1       7.788  -2.048  -2.348  0.00  0.00    +0.121 C 
ATOM      3  N   UNL     1       8.188  -2.315  -3.750  0.00  0.00    -0.296 N 
ATOM      4  C   UNL     1       9.279  -1.346  -4.013  0.00  0.00    +0.115 C 
ATOM      5  C   UNL     1       8.828  -0.054  -3.304  0.00  0.00    -0.004 C 
ATOM      6  C   UNL     1      10.027   0.649  -2.675  0.00  0.00    -0.010 C 
ATOM      7  C   UNL     1      10.961   1.146  -3.783  0.00  0.00    -0.082 C 
ATOM      8  N   UNL     1      10.233   2.068  -4.662  0.00  0.00    +0.379 N 
ATOM      9  C   UNL     1       9.137   1.360  -5.334  0.00  0.00    -0.082 C 
ATOM     10  C   UNL     1       8.126   0.873  -4.292  0.00  0.00    -0.010 C 
ATOM     11  C   UNL     1       7.676  -3.232  -4.595  0.00  0.00    +0.247 C 
ATOM     12  O   UNL     1       8.180  -3.400  -5.688  0.00  0.00    -0.270 OA
ATOM     13  H   UNL     1       9.855   2.826  -4.113  0.00  0.00    -0.086 HD
ATOM     14  H   UNL     1      10.865   2.441  -5.354  0.00  0.00    -0.086 HD
ENDROOT
BRANCH  11  15
ATOM     15  C   UNL     1       6.500  -4.033  -4.192  0.00  0.00    +0.049 A 
ATOM     16  C   UNL     1       6.362  -4.459  -2.870  0.00  0.00    +0.013 A 
ATOM     17  C   UNL     1       5.263  -5.207  -2.501  0.00  0.00    +0.001 A 
ATOM     18  C   UNL     1       4.299  -5.534  -3.438  0.00  0.00    +0.001 A 
ATOM     19  C   UNL     1       4.430  -5.115  -4.750  0.00  0.00    +0.013 A 
ATOM     20  C   UNL     1       5.522  -4.363  -5.131  0.00  0.00    +0.067 A 
BRANCH  20  21
ATOM     21  C   UNL     1       5.660  -3.902  -6.559  0.00  0.00    +0.418 C 
ATOM     22  F   UNL     1       4.564  -4.353  -7.302  0.00  0.00    -0.166 F 
ATOM     23  F   UNL     1       5.706  -2.504  -6.596  0.00  0.00    -0.166 F 
ATOM     24  F   UNL     1       6.838  -4.422  -7.105  0.00  0.00    -0.166 F 
ENDBRANCH  20  21
ENDBRANCH  11  15
BRANCH   1  26
ATOM     25  N   UNL     1       6.157   1.265  -1.876  0.00  0.00    -0.312 N 
ATOM     26  C   UNL     1       6.484   0.089  -2.448  0.00  0.00    +0.218 C 
ATOM     27  O   UNL     1       5.681  -0.486  -3.152  0.00  0.00    -0.275 OA
ATOM     28  H   UNL     1       6.798   1.726  -1.313  0.00  0.00    +0.149 HD
BRANCH  25  29
ATOM     29  C   UNL     1       4.832   1.848  -2.105  0.00  0.00    +0.140 C 
BRANCH  29  39
ATOM     30  C   UNL     1       0.864   4.860  -2.098  0.00  0.00    +0.000 A 
ATOM     31  C   UNL     1       1.596   4.299  -3.128  0.00  0.00    +0.000 A 
ATOM     32  C   UNL     1       2.840   3.757  -2.872  0.00  0.00    +0.006 A 
ATOM     33  C   UNL     1       3.357   3.770  -1.586  0.00  0.00    -0.014 A 
ATOM     34  C   UNL     1       2.625   4.325  -0.558  0.00  0.00    -0.040 A 
ATOM     35  C   UNL     1       1.378   4.873  -0.817  0.00  0.00    +0.004 A 
ATOM     36  C   UNL     1       3.148   4.347   0.855  0.00  0.00    +0.063 C 
ATOM     37  C   UNL     1       4.656   4.092   0.853  0.00  0.00    +0.165 C 
ATOM     38  O   UNL     1       4.921   2.940   0.045  0.00  0.00    -0.370 OA
ATOM     39  C   UNL     1       4.720   3.173  -1.348  0.00  0.00    +0.165 C 
ENDBRANCH  29  39
ENDBRANCH  25  29
ENDBRANCH   1  26
TORSDOF 5
