REMARK  Name = ZINC66859883
REMARK  6 active torsions:
REMARK  status: ('A' for Active; 'I' for Inactive)
REMARK    1  A    between atoms: C_10  and  C_11
REMARK    2  A    between atoms: C_10  and  O_24
REMARK    3  A    between atoms: C_11  and  N_12
REMARK    4  A    between atoms: N_12  and  C_13
REMARK    5  A    between atoms: C_16  and  N_21
REMARK    6  A    between atoms: C_18  and  C_19
REMARK                            x       y       z     vdW  Elec       q    Type
REMARK                         _______ _______ _______ _____ _____    ______ ____
ROOT
ATOM      1  C   UNL     1       4.689   0.049   0.901  0.00  0.00    +0.141 C 
ENDROOT
BRANCH   1  11
ATOM      2  C   UNL     1       0.027   1.454  -0.092  0.00  0.00    +0.000 A 
ATOM      3  C   UNL     1       1.234   2.129  -0.107  0.00  0.00    +0.000 A 
ATOM      4  C   UNL     1       2.416   1.418  -0.088  0.00  0.00    +0.007 A 
ATOM      5  C   UNL     1       2.404   0.029  -0.053  0.00  0.00    -0.011 A 
ATOM      6  C   UNL     1       1.202  -0.642  -0.033  0.00  0.00    -0.041 A 
ATOM      7  C   UNL     1       0.013   0.076  -0.056  0.00  0.00    +0.004 A 
ATOM      8  C   UNL     1       1.114  -2.145   0.022  0.00  0.00    +0.035 C 
ATOM      9  C   UNL     1       2.443  -2.776  -0.388  0.00  0.00    +0.008 C 
ATOM     10  C   UNL     1       3.562  -2.125   0.433  0.00  0.00    +0.041 C 
ATOM     11  C   UNL     1       3.731  -0.683  -0.041  0.00  0.00    +0.106 C 
BRANCH  11  12
ATOM     12  O   UNL     1       4.278  -0.682  -1.362  0.00  0.00    -0.382 OA
ATOM     13  H   UNL     1       4.429   0.202  -1.724  0.00  0.00    +0.211 HD
ENDBRANCH  11  12
ENDBRANCH   1  11
BRANCH   1  14
ATOM     14  N   UNL     1       5.959  -0.679   0.968  0.00  0.00    -0.340 N 
ATOM     15  H   UNL     1       6.109  -1.447   0.395  0.00  0.00    +0.146 HD
BRANCH  14  16
ATOM     16  C   UNL     1       6.949  -0.268   1.854  0.00  0.00    +0.045 A 
ATOM     17  C   UNL     1       6.736   0.827   2.680  0.00  0.00    +0.026 A 
ATOM     18  C   UNL     1       7.720   1.233   3.559  0.00  0.00    +0.034 A 
ATOM     19  C   UNL     1       8.926   0.553   3.624  0.00  0.00    +0.128 A 
ATOM     20  C   UNL     1       9.155  -0.536   2.812  0.00  0.00    +0.053 A 
ATOM     21  C   UNL     1       8.167  -0.963   1.922  0.00  0.00    +0.075 A 
BRANCH  19  22
ATOM     22  N   UNL     1       9.972   1.000   4.571  0.00  0.00    +0.056 N 
ATOM     23  O   UNL     1       9.774   1.955   5.284  0.00  0.00    -0.126 OA
ATOM     24  O   UNL     1      11.025   0.409   4.630  0.00  0.00    -0.126 OA
ENDBRANCH  19  22
BRANCH  21  25
ATOM     25  C   UNL     1       8.397  -2.098   1.079  0.00  0.00    +0.101 C 
ATOM     26  N   UNL     1       8.579  -2.998   0.411  0.00  0.00    -0.191 NA
ENDBRANCH  21  25
ENDBRANCH  14  16
ENDBRANCH   1  14
TORSDOF 6
