REMARK  Name = ZINC17029136
REMARK  8 active torsions:
REMARK  status: ('A' for Active; 'I' for Inactive)
REMARK    1  A    between atoms: C_1  and  C_2
REMARK    2  A    between atoms: C_2  and  C_3
REMARK    3  A    between atoms: C_3  and  C_4
REMARK    4  A    between atoms: C_4  and  C_5
REMARK    5  A    between atoms: C_5  and  C_6
REMARK    6  A    between atoms: C_6  and  N_7
REMARK    7  A    between atoms: C_15  and  C_18
REMARK    8  A    between atoms: C_23  and  C_26
REMARK                            x       y       z     vdW  Elec       q    Type
REMARK                         _______ _______ _______ _____ _____    ______ ____
ROOT
ATOM      1  N   UNL     1      -4.192  -4.655   0.017  0.00  0.00    -0.307 N 
ATOM      2  C   UNL     1      -4.816  -4.875   1.229  0.00  0.00    +0.056 A 
ATOM      3  C   UNL     1      -4.145  -4.637   2.425  0.00  0.00    +0.026 A 
ATOM      4  C   UNL     1      -4.782  -4.861   3.626  0.00  0.00    +0.002 A 
ATOM      5  C   UNL     1      -6.090  -5.323   3.659  0.00  0.00    +0.001 A 
ATOM      6  C   UNL     1      -6.771  -5.565   2.487  0.00  0.00    +0.014 A 
ATOM      7  C   UNL     1      -6.139  -5.342   1.263  0.00  0.00    +0.046 A 
ATOM      8  C   UNL     1      -6.840  -5.590  -0.011  0.00  0.00    +0.205 A 
ATOM      9  C   UNL     1      -6.131  -5.341  -1.219  0.00  0.00    +0.148 A 
ATOM     10  C   UNL     1      -4.821  -4.872  -1.161  0.00  0.00    +0.268 A 
ATOM     11  O   UNL     1      -4.159  -4.633  -2.310  0.00  0.00    -0.267 OA
ATOM     12  O   UNL     1      -7.989  -5.997  -0.029  0.00  0.00    -0.286 OA
ENDROOT
BRANCH   9  13
ATOM     13  C   UNL     1      -6.776  -5.570  -2.516  0.00  0.00    +0.259 C 
ATOM     14  O   UNL     1      -6.208  -5.250  -3.543  0.00  0.00    -0.269 OA
ATOM     15  N   UNL     1      -7.999  -6.135  -2.570  0.00  0.00    -0.260 N 
ATOM     16  C   UNL     1      -8.564  -6.450  -3.798  0.00  0.00    +0.165 A 
ATOM     17  N   UNL     1      -9.737  -6.996  -4.062  0.00  0.00    -0.225 NA
ATOM     18  C   UNL     1     -10.122  -7.229  -5.308  0.00  0.00    +0.080 A 
ATOM     19  C   UNL     1      -9.289  -6.899  -6.340  0.00  0.00    +0.076 A 
ATOM     20  S   UNL     1      -7.902  -6.218  -5.441  0.00  0.00    -0.060 S 
ATOM     21  H   UNL     1      -8.483  -6.321  -1.750  0.00  0.00    +0.157 HD
BRANCH  18  22
ATOM     22  C   UNL     1     -11.444  -7.844  -5.580  0.00  0.00    +0.001 A 
ATOM     23  C   UNL     1     -11.843  -8.093  -6.892  0.00  0.00    +0.011 A 
ATOM     24  C   UNL     1     -13.074  -8.665  -7.140  0.00  0.00    +0.020 A 
ATOM     25  C   UNL     1     -13.913  -8.991  -6.088  0.00  0.00    +0.041 A 
ATOM     26  C   UNL     1     -13.522  -8.745  -4.783  0.00  0.00    +0.020 A 
ATOM     27  C   UNL     1     -12.290  -8.179  -4.524  0.00  0.00    +0.011 A 
ATOM     28 CL   UNL     1     -15.460  -9.710  -6.407  0.00  0.00    -0.084 Cl
ENDBRANCH  18  22
ENDBRANCH   9  13
BRANCH   1  29
ATOM     29  C   UNL     1      -2.811  -4.167   0.006  0.00  0.00    +0.125 C 
BRANCH  29  30
ATOM     30  C   UNL     1      -2.810  -2.637   0.008  0.00  0.00    +0.022 C 
BRANCH  30  31
ATOM     31  C   UNL     1      -1.368  -2.127  -0.003  0.00  0.00    +0.002 C 
BRANCH  31  32
ATOM     32  C   UNL     1      -1.368  -0.597  -0.001  0.00  0.00    -0.000 C 
BRANCH  32  34
ATOM     33  C   UNL     1       0.075   1.443  -0.010  0.00  0.00    +0.004 C 
ATOM     34  C   UNL     1       0.075  -0.087  -0.013  0.00  0.00    -0.003 C 
ENDBRANCH  32  34
ENDBRANCH  31  32
ENDBRANCH  30  31
ENDBRANCH  29  30
ENDBRANCH   1  29
TORSDOF 7
