REMARK  Name = ZINC12551775
REMARK  8 active torsions:
REMARK  status: ('A' for Active; 'I' for Inactive)
REMARK    1  A    between atoms: C_1  and  C_2
REMARK    2  A    between atoms: N_5  and  C_8
REMARK    3  A    between atoms: C_11  and  N_14
REMARK    4  A    between atoms: N_14  and  C_15
REMARK    5  A    between atoms: C_15  and  C_17
REMARK    6  A    between atoms: C_15  and  C_18
REMARK    7  A    between atoms: N_20  and  C_21
REMARK    8  A    between atoms: C_24  and  N_27
REMARK                            x       y       z     vdW  Elec       q    Type
REMARK                         _______ _______ _______ _____ _____    ______ ____
ROOT
ATOM      1  N   UNL     1      -0.867  -8.034   1.709  0.00  0.00    -0.333 N 
ATOM      2  H   UNL     1      -0.477  -8.580   1.010  0.00  0.00    +0.147 HD
ENDROOT
BRANCH   1   6
ATOM      3  C   UNL     1      -0.730  -3.881   1.429  0.00  0.00    +0.014 A 
ATOM      4  C   UNL     1      -0.172  -4.659   0.431  0.00  0.00    +0.023 A 
ATOM      5  C   UNL     1      -0.216  -6.037   0.521  0.00  0.00    +0.025 A 
ATOM      6  C   UNL     1      -0.821  -6.641   1.615  0.00  0.00    +0.028 A 
ATOM      7  C   UNL     1      -1.380  -5.857   2.616  0.00  0.00    +0.025 A 
ATOM      8  C   UNL     1      -1.328  -4.480   2.523  0.00  0.00    +0.023 A 
BRANCH   3  13
ATOM      9  C   UNL     1       0.015   1.527   0.042  0.00  0.00    +0.007 C 
ATOM     10  C   UNL     1       0.029  -0.003   0.028  0.00  0.00    -0.011 C 
ATOM     11  C   UNL     1      -1.409  -0.528   0.054  0.00  0.00    +0.020 C 
ATOM     12  C   UNL     1      -1.386  -2.057   0.120  0.00  0.00    +0.085 C 
ATOM     13  N   UNL     1      -0.684  -2.487   1.335  0.00  0.00    -0.393 NA
ATOM     14  C   UNL     1       0.716  -2.048   1.284  0.00  0.00    +0.085 C 
ATOM     15  C   UNL     1       0.774  -0.519   1.262  0.00  0.00    +0.020 C 
ATOM     16  H   UNL     1      -1.133  -2.083   2.143  0.00  0.00    +0.126 HD
ENDBRANCH   3  13
ENDBRANCH   1   6
BRANCH   1  17
ATOM     17  C   UNL     1      -1.506  -8.669   2.864  0.00  0.00    +0.154 C 
ATOM     18  C   UNL     1      -0.499  -8.772   4.011  0.00  0.00    +0.038 C 
BRANCH  17  19
ATOM     19  C   UNL     1      -1.975 -10.049   2.482  0.00  0.00    +0.237 C 
ATOM     20  O   UNL     1      -1.794 -10.462   1.356  0.00  0.00    -0.273 OA
ATOM     21  N   UNL     1      -2.596 -10.826   3.393  0.00  0.00    -0.284 N 
ATOM     22  H   UNL     1      -2.682 -10.523   4.310  0.00  0.00    +0.155 HD
BRANCH  21  23
ATOM     23  C   UNL     1      -3.118 -12.068   3.013  0.00  0.00    +0.034 A 
ATOM     24  C   UNL     1      -4.294 -12.532   3.586  0.00  0.00    +0.025 A 
ATOM     25  C   UNL     1      -4.806 -13.759   3.210  0.00  0.00    +0.034 A 
ATOM     26  C   UNL     1      -4.149 -14.523   2.264  0.00  0.00    +0.126 A 
ATOM     27  C   UNL     1      -2.977 -14.063   1.692  0.00  0.00    +0.034 A 
ATOM     28  C   UNL     1      -2.463 -12.835   2.059  0.00  0.00    +0.025 A 
BRANCH  26  29
ATOM     29  N   UNL     1      -4.700 -15.837   1.863  0.00  0.00    +0.056 N 
ATOM     30  O   UNL     1      -5.725 -16.241   2.362  0.00  0.00    -0.126 OA
ATOM     31  O   UNL     1      -4.126 -16.507   1.036  0.00  0.00    -0.126 OA
ENDBRANCH  26  29
ENDBRANCH  21  23
ENDBRANCH  17  19
ENDBRANCH   1  17
TORSDOF 6
