REMARK  Name = ZINC40055014
REMARK  13 active torsions:
REMARK  status: ('A' for Active; 'I' for Inactive)
REMARK    1  A    between atoms: C_2  and  C_3
REMARK    2  A    between atoms: C_3  and  O_4
REMARK    3  A    between atoms: O_4  and  C_5
REMARK    4  A    between atoms: C_8  and  C_11
REMARK    5  A    between atoms: C_13  and  C_23
REMARK    6  A    between atoms: N_17  and  C_18
REMARK    7  A    between atoms: C_18  and  C_19
REMARK    8  A    between atoms: C_19  and  C_20
REMARK    9  A    between atoms: C_20  and  O_21
REMARK   10  A    between atoms: C_23  and  C_25
REMARK   11  A    between atoms: C_29  and  O_31
REMARK   12  A    between atoms: O_31  and  C_32
REMARK   13  A    between atoms: C_32  and  C_33
REMARK                            x       y       z     vdW  Elec       q    Type
REMARK                         _______ _______ _______ _____ _____    ______ ____
ROOT
ATOM      1  C   UNL     1      -5.725  -5.116  -1.440  0.00  0.00    +0.145 C 
ATOM      2  C   UNL     1      -5.480  -6.478  -0.834  0.00  0.00    +0.076 C 
ATOM      3  C   UNL     1      -5.634  -7.382  -1.829  0.00  0.00    +0.249 C 
ATOM      4  C   UNL     1      -5.973  -6.673  -3.081  0.00  0.00    +0.288 C 
ATOM      5  O   UNL     1      -6.174  -7.208  -4.153  0.00  0.00    -0.266 OA
ATOM      6  N   UNL     1      -6.028  -5.346  -2.858  0.00  0.00    -0.283 N 
ATOM      7  O   UNL     1      -5.498  -8.722  -1.700  0.00  0.00    -0.282 OA
ENDROOT
BRANCH   1  11
ATOM      8  C   UNL     1      -2.228  -2.689  -1.061  0.00  0.00    +0.121 A 
ATOM      9  C   UNL     1      -3.370  -2.380  -0.337  0.00  0.00    +0.046 A 
ATOM     10  C   UNL     1      -4.499  -3.166  -0.461  0.00  0.00    +0.009 A 
ATOM     11  C   UNL     1      -4.492  -4.260  -1.307  0.00  0.00    -0.022 A 
ATOM     12  C   UNL     1      -3.354  -4.571  -2.029  0.00  0.00    +0.009 A 
ATOM     13  C   UNL     1      -2.224  -3.784  -1.913  0.00  0.00    +0.046 A 
BRANCH   8  14
ATOM     14  O   UNL     1      -1.115  -1.917  -0.940  0.00  0.00    -0.488 OA
BRANCH  14  15
ATOM     15  C   UNL     1      -1.191  -0.806  -0.045  0.00  0.00    +0.256 C 
BRANCH  15  17
ATOM     16  C   UNL     1       0.147   1.235  -0.109  0.00  0.00    +0.007 C 
ATOM     17  C   UNL     1       0.126  -0.073  -0.043  0.00  0.00    +0.006 C 
ENDBRANCH  15  17
ENDBRANCH  14  15
ENDBRANCH   8  14
ENDBRANCH   1  11
BRANCH   2  18
ATOM     18  C   UNL     1      -5.141  -6.765   0.563  0.00  0.00    +0.195 C 
ATOM     19  O   UNL     1      -4.051  -7.230   0.841  0.00  0.00    -0.287 OA
BRANCH  18  20
ATOM     20  C   UNL     1      -6.122  -6.489   1.634  0.00  0.00    +0.026 A 
ATOM     21  C   UNL     1      -7.415  -6.071   1.309  0.00  0.00    +0.012 A 
ATOM     22  C   UNL     1      -8.328  -5.815   2.311  0.00  0.00    +0.004 A 
ATOM     23  C   UNL     1      -7.968  -5.971   3.637  0.00  0.00    +0.046 A 
ATOM     24  C   UNL     1      -6.686  -6.386   3.970  0.00  0.00    +0.122 A 
ATOM     25  C   UNL     1      -5.763  -6.651   2.973  0.00  0.00    +0.057 A 
BRANCH  24  26
ATOM     26  O   UNL     1      -6.338  -6.537   5.275  0.00  0.00    -0.487 OA
BRANCH  26  27
ATOM     27  C   UNL     1      -7.341  -6.252   6.251  0.00  0.00    +0.264 C 
BRANCH  27  28
ATOM     28  C   UNL     1      -6.778  -6.474   7.631  0.00  0.00    -0.010 A 
ATOM     29  C   UNL     1      -6.874  -7.718   8.225  0.00  0.00    +0.010 A 
ATOM     30  C   UNL     1      -6.357  -7.923   9.490  0.00  0.00    +0.039 A 
ATOM     31  C   UNL     1      -5.742  -6.881  10.163  0.00  0.00    +0.123 A 
ATOM     32  C   UNL     1      -5.646  -5.635   9.567  0.00  0.00    +0.039 A 
ATOM     33  C   UNL     1      -6.159  -5.434   8.300  0.00  0.00    +0.010 A 
ATOM     34  F   UNL     1      -5.237  -7.080  11.400  0.00  0.00    -0.205 F 
ENDBRANCH  27  28
ENDBRANCH  26  27
ENDBRANCH  24  26
ENDBRANCH  18  20
ENDBRANCH   2  18
BRANCH   6  35
ATOM     35  C   UNL     1      -6.335  -4.315  -3.852  0.00  0.00    +0.111 C 
BRANCH  35  36
ATOM     36  C   UNL     1      -5.040  -3.845  -4.516  0.00  0.00    +0.047 C 
BRANCH  36  37
ATOM     37  C   UNL     1      -5.361  -2.768  -5.554  0.00  0.00    +0.157 C 
BRANCH  37  38
ATOM     38  O   UNL     1      -4.151  -2.328  -6.175  0.00  0.00    -0.395 OA
ATOM     39  H   UNL     1      -4.279  -1.644  -6.846  0.00  0.00    +0.209 HD
ENDBRANCH  37  38
ENDBRANCH  36  37
ENDBRANCH  35  36
ENDBRANCH   6  35
TORSDOF 13
