REMARK  Name = ZINC36483294
REMARK  11 active torsions:
REMARK  status: ('A' for Active; 'I' for Inactive)
REMARK    1  A    between atoms: C_1  and  C_2
REMARK    2  A    between atoms: C_3  and  C_4
REMARK    3  A    between atoms: C_4  and  C_6
REMARK    4  A    between atoms: C_4  and  N_20
REMARK    5  A    between atoms: N_8  and  C_9
REMARK    6  A    between atoms: C_9  and  S_10
REMARK    7  A    between atoms: S_10  and  C_13
REMARK    8  A    between atoms: C_16  and  C_19
REMARK    9  A    between atoms: N_20  and  C_21
REMARK   10  A    between atoms: C_28  and  C_30
REMARK   11  A    between atoms: C_35  and  O_36
REMARK                            x       y       z     vdW  Elec       q    Type
REMARK                         _______ _______ _______ _____ _____    ______ ____
ROOT
ATOM      1  C   UNL     1       1.753   0.205  -2.797  0.00  0.00    +0.190 C 
ENDROOT
BRANCH   1   2
ATOM      2  C   UNL     1       2.776  -0.053  -3.874  0.00  0.00    +0.239 C 
ATOM      3  O   UNL     1       3.513   0.839  -4.235  0.00  0.00    -0.273 OA
ATOM      4  N   UNL     1       2.871  -1.275  -4.434  0.00  0.00    -0.294 N 
ATOM      5  H   UNL     1       2.281  -1.989  -4.145  0.00  0.00    +0.150 HD
BRANCH   4   6
ATOM      6  C   UNL     1       3.865  -1.526  -5.480  0.00  0.00    +0.278 C 
BRANCH   6   7
ATOM      7  S   UNL     1       5.364  -2.226  -4.735  0.00  0.00    +0.013 S 
ATOM      8  O   UNL     1       6.314  -2.534  -5.745  0.00  0.00    -0.168 OA
ATOM      9  O   UNL     1       5.740  -1.472  -3.591  0.00  0.00    -0.168 OA
BRANCH   7  10
ATOM     10  C   UNL     1       4.863  -3.791  -4.098  0.00  0.00    +0.090 A 
ATOM     11  C   UNL     1       4.383  -3.889  -2.805  0.00  0.00    +0.027 A 
ATOM     12  C   UNL     1       3.990  -5.116  -2.305  0.00  0.00    +0.005 A 
ATOM     13  C   UNL     1       4.077  -6.245  -3.098  0.00  0.00    -0.050 A 
ATOM     14  C   UNL     1       4.557  -6.147  -4.390  0.00  0.00    +0.005 A 
ATOM     15  C   UNL     1       4.945  -4.919  -4.892  0.00  0.00    +0.027 A 
ATOM     16  C   UNL     1       3.650  -7.584  -2.552  0.00  0.00    +0.044 C 
ENDBRANCH   7  10
ENDBRANCH   6   7
ENDBRANCH   4   6
ENDBRANCH   1   2
BRANCH   1  19
ATOM     17  C   UNL     1      -0.287  -1.503  -1.866  0.00  0.00    +0.035 C 
ATOM     18  C   UNL     1       1.047  -1.469  -1.166  0.00  0.00    -0.032 C 
ATOM     19  C   UNL     1       2.010  -0.712  -1.630  0.00  0.00    +0.000 C 
ENDBRANCH   1  19
BRANCH   1  20
ATOM     20  N   UNL     1       1.850   1.598  -2.355  0.00  0.00    -0.252 N 
ATOM     21  C   UNL     1       0.801   2.429  -2.511  0.00  0.00    +0.255 C 
ATOM     22  O   UNL     1      -0.262   1.998  -2.916  0.00  0.00    -0.269 OA
BRANCH  20  23
ATOM     23  C   UNL     1       3.031   2.065  -1.770  0.00  0.00    +0.039 A 
ATOM     24  C   UNL     1       3.527   1.458  -0.623  0.00  0.00    +0.023 A 
ATOM     25  C   UNL     1       4.694   1.922  -0.048  0.00  0.00    +0.003 A 
ATOM     26  C   UNL     1       5.369   2.989  -0.612  0.00  0.00    +0.020 A 
ATOM     27  C   UNL     1       4.877   3.596  -1.754  0.00  0.00    +0.043 A 
ATOM     28  C   UNL     1       3.713   3.133  -2.338  0.00  0.00    +0.043 A 
ATOM     29 CL   UNL     1       5.728   4.936  -2.458  0.00  0.00    -0.083 Cl
ENDBRANCH  20  23
BRANCH  21  30
ATOM     30  C   UNL     1       0.941   3.862  -2.192  0.00  0.00    +0.079 A 
ATOM     31  C   UNL     1       1.786   4.272  -1.157  0.00  0.00    +0.017 A 
ATOM     32  C   UNL     1       1.913   5.612  -0.863  0.00  0.00    +0.001 A 
ATOM     33  C   UNL     1       1.206   6.557  -1.590  0.00  0.00    +0.004 A 
ATOM     34  C   UNL     1       0.368   6.166  -2.615  0.00  0.00    +0.046 A 
ATOM     35  C   UNL     1       0.233   4.822  -2.928  0.00  0.00    +0.129 A 
BRANCH  35  36
ATOM     36  O   UNL     1      -0.586   4.436  -3.939  0.00  0.00    -0.506 OA
ATOM     37  H   UNL     1      -1.497   4.264  -3.664  0.00  0.00    +0.292 HD
ENDBRANCH  35  36
ENDBRANCH  21  30
ENDBRANCH   1  20
TORSDOF 9
