REMARK  Name = ZINC18153278
REMARK  4 active torsions:
REMARK  status: ('A' for Active; 'I' for Inactive)
REMARK    1  A    between atoms: C_4  and  N_10
REMARK    2  A    between atoms: C_5  and  C_7
REMARK    3  A    between atoms: C_11  and  C_13
REMARK    4  A    between atoms: C_22  and  O_25
REMARK                            x       y       z     vdW  Elec       q    Type
REMARK                         _______ _______ _______ _____ _____    ______ ____
ROOT
ATOM      1  N   UNL     1       1.237   1.450  -2.694  0.00  0.00    -0.284 N 
ATOM      2  C   UNL     1      -0.048   1.109  -2.473  0.00  0.00    +0.224 C 
ATOM      3  O   UNL     1      -0.639   0.420  -3.276  0.00  0.00    -0.275 OA
ATOM      4  H   UNL     1       1.746   2.149  -2.014  0.00  0.00    +0.155 HD
ENDROOT
BRANCH   2   5
ATOM      5  C   UNL     1      -0.749   1.585  -1.226  0.00  0.00    +0.050 C 
ATOM      6  C   UNL     1      -0.010   1.061   0.006  0.00  0.00    +0.020 C 
ATOM      7  C   UNL     1      -0.722   1.543   1.272  0.00  0.00    -0.007 C 
ATOM      8  C   UNL     1      -0.736   3.073   1.297  0.00  0.00    +0.007 C 
ATOM      9  C   UNL     1      -1.475   3.597   0.064  0.00  0.00    -0.007 C 
ATOM     10  C   UNL     1      -0.763   3.114  -1.201  0.00  0.00    +0.020 C 
ATOM     11  C   UNL     1      -2.913   3.074   0.071  0.00  0.00    +0.038 C 
ATOM     12  C   UNL     1      -2.899   1.544   0.046  0.00  0.00    +0.068 C 
ATOM     13  C   UNL     1      -2.160   1.020   1.279  0.00  0.00    +0.038 C 
ATOM     14  C   UNL     1      -2.187   1.061  -1.219  0.00  0.00    +0.051 C 
BRANCH  12  15
ATOM     15  O   UNL     1      -4.242   1.055   0.052  0.00  0.00    -0.389 OA
ATOM     16  H   UNL     1      -4.433  -0.028   0.037  0.00  0.00    +0.210 HD
ENDBRANCH  12  15
ENDBRANCH   2   5
BRANCH   1  20
ATOM     17  C   UNL     1       3.283  -0.145  -5.960  0.00  0.00    +0.001 A 
ATOM     18  C   UNL     1       2.205  -0.822  -5.411  0.00  0.00    +0.002 A 
ATOM     19  C   UNL     1       1.530  -0.299  -4.327  0.00  0.00    +0.024 A 
ATOM     20  C   UNL     1       1.921   0.918  -3.785  0.00  0.00    +0.048 A 
ATOM     21  C   UNL     1       3.012   1.606  -4.337  0.00  0.00    +0.084 A 
ATOM     22  C   UNL     1       3.689   1.061  -5.431  0.00  0.00    +0.017 A 
BRANCH  21  23
ATOM     23  C   UNL     1       3.441   2.896  -3.767  0.00  0.00    +0.388 C 
ATOM     24  O   UNL     1       2.909   3.322  -2.761  0.00  0.00    -0.241 OA
ATOM     25  O   UNL     1       4.424   3.601  -4.360  0.00  0.00    -0.241 OA
ENDBRANCH  21  23
ENDBRANCH   1  20
TORSDOF 4
