REMARK  Name = ZINC21315730
REMARK  8 active torsions:
REMARK  status: ('A' for Active; 'I' for Inactive)
REMARK    1  A    between atoms: C_1  and  C_2
REMARK    2  A    between atoms: C_2  and  C_3
REMARK    3  A    between atoms: C_2  and  C_4
REMARK    4  A    between atoms: C_4  and  C_6
REMARK    5  A    between atoms: C_4  and  N_11
REMARK    6  A    between atoms: N_11  and  C_12
REMARK    7  A    between atoms: C_12  and  C_13
REMARK    8  A    between atoms: C_26  and  C_28
REMARK                            x       y       z     vdW  Elec       q    Type
REMARK                         _______ _______ _______ _____ _____    ______ ____
ROOT
ATOM      1  C   UNL     1      -0.286  -3.333   1.763  0.00  0.00    +0.203 C 
ATOM      2  O   UNL     1      -0.574  -4.122   0.888  0.00  0.00    -0.277 OA
ATOM      3  N   UNL     1       0.223  -3.776   2.929  0.00  0.00    -0.259 N 
ATOM      4  C   UNL     1       0.556  -2.876   3.951  0.00  0.00    +0.058 A 
ATOM      5  C   UNL     1      -0.434  -2.233   4.676  0.00  0.00    +0.025 A 
ATOM      6  C   UNL     1      -0.087  -1.366   5.695  0.00  0.00    +0.002 A 
ATOM      7  C   UNL     1       1.244  -1.139   5.995  0.00  0.00    +0.002 A 
ATOM      8  C   UNL     1       2.238  -1.769   5.270  0.00  0.00    +0.025 A 
ATOM      9  C   UNL     1       1.899  -2.631   4.240  0.00  0.00    +0.055 A 
ATOM     10  N   UNL     1       2.887  -3.237   3.456  0.00  0.00    -0.284 N 
ATOM     11  C   UNL     1       2.842  -4.563   3.202  0.00  0.00    +0.219 C 
ATOM     12  O   UNL     1       3.657  -5.061   2.454  0.00  0.00    -0.275 OA
ATOM     13  C   UNL     1       1.787  -5.427   3.841  0.00  0.00    +0.128 C 
ATOM     14  C   UNL     1       0.433  -5.207   3.155  0.00  0.00    +0.194 C 
ATOM     15  H   UNL     1       3.610  -2.702   3.093  0.00  0.00    +0.155 HD
ENDROOT
BRANCH  14  16
ATOM     16  C   UNL     1      -0.687  -5.752   4.043  0.00  0.00    +0.409 C 
ATOM     17  F   UNL     1      -1.920  -5.555   3.413  0.00  0.00    -0.169 F 
ATOM     18  F   UNL     1      -0.487  -7.120   4.260  0.00  0.00    -0.169 F 
ATOM     19  F   UNL     1      -0.677  -5.080   5.270  0.00  0.00    -0.169 F 
ENDBRANCH  14  16
BRANCH   1  20
ATOM     20  C   UNL     1      -0.496  -1.857   1.545  0.00  0.00    +0.016 C 
BRANCH  20  21
ATOM     21  N   UNL     1      -1.057  -1.634   0.205  0.00  0.00    +0.390 N 
ATOM     22  H   UNL     1      -1.937  -2.121   0.124  0.00  0.00    -0.084 HD
ATOM     23  H   UNL     1      -0.415  -1.983  -0.490  0.00  0.00    -0.084 HD
BRANCH  21  24
ATOM     24  C   UNL     1      -1.272  -0.196  -0.003  0.00  0.00    -0.031 C 
BRANCH  24  25
ATOM     25  C   UNL     1      -2.334   0.296   0.946  0.00  0.00    -0.024 A 
ATOM     26  C   UNL     1      -2.386   1.460   1.639  0.00  0.00    +0.009 A 
ATOM     27  C   UNL     1      -3.472   1.703   2.460  0.00  0.00    +0.008 A 
ATOM     28  C   UNL     1      -4.451   0.770   2.547  0.00  0.00    +0.045 A 
ATOM     29  S   UNL     1      -3.853  -0.498   1.442  0.00  0.00    -0.103 S 
ENDBRANCH  24  25
BRANCH  24  31
ATOM     30  C   UNL     1      -1.989   1.542  -1.649  0.00  0.00    +0.006 C 
ATOM     31  C   UNL     1      -1.722   0.049  -1.444  0.00  0.00    -0.027 C 
ATOM     32  C   UNL     1      -0.624  -0.409  -2.407  0.00  0.00    +0.006 C 
ENDBRANCH  24  31
ENDBRANCH  21  24
ENDBRANCH  20  21
ENDBRANCH   1  20
TORSDOF 6
