REMARK  Name = ZINC54201158
REMARK  5 active torsions:
REMARK  status: ('A' for Active; 'I' for Inactive)
REMARK    1  A    between atoms: C_4  and  C_7
REMARK    2  A    between atoms: C_10  and  C_13
REMARK    3  A    between atoms: C_18  and  O_19
REMARK    4  A    between atoms: C_26  and  C_27
REMARK    5  A    between atoms: C_32  and  O_33
REMARK                            x       y       z     vdW  Elec       q    Type
REMARK                         _______ _______ _______ _____ _____    ______ ____
ROOT
ATOM      1  C   UNL     1       3.666  -0.646  -0.080  0.00  0.00    +0.069 C 
ATOM      2  N   UNL     1       4.832  -0.099  -0.042  0.00  0.00    -0.182 NA
ATOM      3  N   UNL     1       5.882  -1.006   0.086  0.00  0.00    -0.200 N 
ATOM      4  C   UNL     1       5.329  -2.369   0.142  0.00  0.00    +0.139 C 
ATOM      5  C   UNL     1       3.808  -2.147   0.036  0.00  0.00    +0.087 C 
ATOM      6  C   UNL     1       7.216  -0.682   0.150  0.00  0.00    +0.149 C 
ATOM      7  N   UNL     1       8.134  -1.596   0.264  0.00  0.00    -0.153 NA
ATOM      8  C   UNL     1       9.437  -1.295   0.327  0.00  0.00    +0.302 C 
ATOM      9  O   UNL     1      10.388  -2.051   0.433  0.00  0.00    -0.260 OA
ATOM     10  S   UNL     1       9.441   0.488   0.215  0.00  0.00    -0.026 S 
ATOM     11  C   UNL     1       7.672   0.718   0.085  0.00  0.00    +0.057 C 
ATOM     12  C   UNL     1       6.949   1.865  -0.038  0.00  0.00    +0.030 C 
ENDROOT
BRANCH  12  13
ATOM     13  C   UNL     1       7.614   3.167   0.080  0.00  0.00    +0.019 A 
ATOM     14  C   UNL     1       8.876   3.262   0.682  0.00  0.00    +0.031 A 
ATOM     15  C   UNL     1       9.493   4.489   0.789  0.00  0.00    +0.042 A 
ATOM     16  C   UNL     1       8.872   5.631   0.305  0.00  0.00    +0.023 A 
ATOM     17  C   UNL     1       7.628   5.551  -0.291  0.00  0.00    +0.047 A 
ATOM     18  C   UNL     1       6.992   4.326  -0.414  0.00  0.00    +0.124 A 
ATOM     19 CL   UNL     1      11.056   4.607   1.535  0.00  0.00    -0.084 Cl
BRANCH  18  20
ATOM     20  O   UNL     1       5.773   4.247  -1.004  0.00  0.00    -0.506 OA
ATOM     21  H   UNL     1       5.032   4.350  -0.391  0.00  0.00    +0.292 HD
ENDBRANCH  18  20
ENDBRANCH  12  13
BRANCH   1  25
ATOM     22  C   UNL     1      -0.008   1.444  -0.458  0.00  0.00    +0.000 A 
ATOM     23  C   UNL     1       1.184   2.146  -0.434  0.00  0.00    +0.001 A 
ATOM     24  C   UNL     1       2.382   1.474  -0.311  0.00  0.00    +0.010 A 
ATOM     25  C   UNL     1       2.389   0.080  -0.211  0.00  0.00    -0.002 A 
ATOM     26  C   UNL     1       1.181  -0.622  -0.235  0.00  0.00    +0.010 A 
ATOM     27  C   UNL     1      -0.009   0.064  -0.359  0.00  0.00    +0.001 A 
ENDBRANCH   1  25
BRANCH   4  28
ATOM     28  C   UNL     1       5.835  -3.194  -1.013  0.00  0.00    +0.017 A 
ATOM     29  C   UNL     1       6.374  -2.573  -2.123  0.00  0.00    +0.009 A 
ATOM     30  C   UNL     1       6.837  -3.329  -3.183  0.00  0.00    +0.001 A 
ATOM     31  C   UNL     1       6.764  -4.710  -3.135  0.00  0.00    +0.004 A 
ATOM     32  C   UNL     1       6.227  -5.336  -2.027  0.00  0.00    +0.046 A 
ATOM     33  C   UNL     1       5.766  -4.579  -0.960  0.00  0.00    +0.122 A 
BRANCH  33  34
ATOM     34  O   UNL     1       5.242  -5.193   0.134  0.00  0.00    -0.506 OA
ATOM     35  H   UNL     1       4.289  -5.344   0.081  0.00  0.00    +0.292 HD
ENDBRANCH  33  34
ENDBRANCH   4  28
TORSDOF 5
