REMARK  Name = ZINC39232511
REMARK  6 active torsions:
REMARK  status: ('A' for Active; 'I' for Inactive)
REMARK    1  A    between atoms: C_12  and  C_14
REMARK    2  A    between atoms: C_19  and  O_20
REMARK    3  A    between atoms: O_20  and  C_21
REMARK    4  A    between atoms: N_22  and  C_23
REMARK    5  A    between atoms: C_23  and  C_24
REMARK    6  A    between atoms: C_24  and  C_25
REMARK                            x       y       z     vdW  Elec       q    Type
REMARK                         _______ _______ _______ _____ _____    ______ ____
ROOT
ATOM      1  C   UNL     1      -0.016   1.337   0.009  0.00  0.00    +0.033 C 
ATOM      2  C   UNL     1       0.002  -0.004   0.002  0.00  0.00    +0.031 C 
ATOM      3  C   UNL     1      -1.248  -0.784   0.004  0.00  0.00    +0.090 C 
ATOM      4  C   UNL     1      -1.184  -2.116  -0.216  0.00  0.00    +0.249 C 
ATOM      5  O   UNL     1      -2.323  -2.848  -0.251  0.00  0.00    -0.270 OA
ATOM      6  N   UNL     1       0.035  -2.733  -0.405  0.00  0.00    -0.214 N 
ATOM      7  C   UNL     1       1.191  -2.001  -0.483  0.00  0.00    +0.199 C 
ATOM      8  N   UNL     1       1.214  -0.716  -0.013  0.00  0.00    -0.287 N 
ATOM      9  N   UNL     1       2.257  -2.522  -1.054  0.00  0.00    -0.186 NA
ATOM     10  C   UNL     1       2.216  -3.752  -1.594  0.00  0.00    +0.193 C 
ATOM     11  N   UNL     1       1.215  -4.564  -1.389  0.00  0.00    -0.335 N 
ATOM     12  C   UNL     1       0.120  -4.196  -0.487  0.00  0.00    +0.215 C 
ATOM     13  N   UNL     1       3.263  -4.170  -2.390  0.00  0.00    -0.315 N 
ATOM     14  H   UNL     1       3.248  -5.054  -2.788  0.00  0.00    +0.149 HD
ATOM     15  H   UNL     1       2.038  -0.311   0.300  0.00  0.00    +0.155 HD
ATOM     16  H   UNL     1       1.195  -5.423  -1.839  0.00  0.00    +0.164 HD
ENDROOT
BRANCH  12  17
ATOM     17  C   UNL     1       0.385  -4.763   0.884  0.00  0.00    +0.035 A 
ATOM     18  C   UNL     1       0.005  -4.057   2.009  0.00  0.00    +0.011 A 
ATOM     19  C   UNL     1       0.248  -4.577   3.267  0.00  0.00    +0.001 A 
ATOM     20  C   UNL     1       0.872  -5.804   3.402  0.00  0.00    +0.004 A 
ATOM     21  C   UNL     1       1.254  -6.513   2.281  0.00  0.00    +0.046 A 
ATOM     22  C   UNL     1       1.006  -5.997   1.017  0.00  0.00    +0.127 A 
BRANCH  22  23
ATOM     23  O   UNL     1       1.375  -6.695  -0.089  0.00  0.00    -0.495 OA
ATOM     24  C   UNL     1       2.009  -7.958   0.124  0.00  0.00    +0.277 C 
ENDBRANCH  22  23
ENDBRANCH  12  17
BRANCH  13  25
ATOM     25  C   UNL     1       4.398  -3.276  -2.635  0.00  0.00    +0.109 C 
BRANCH  25  26
ATOM     26  C   UNL     1       5.412  -3.976  -3.542  0.00  0.00    +0.056 C 
BRANCH  26  27
ATOM     27  C   UNL     1       6.580  -3.057  -3.793  0.00  0.00    -0.021 A 
ATOM     28  C   UNL     1       6.737  -2.235  -4.843  0.00  0.00    +0.087 A 
ATOM     29  N   UNL     1       7.920  -1.556  -4.731  0.00  0.00    -0.360 N 
ATOM     30  H   UNL     1       8.251  -0.905  -5.369  0.00  0.00    +0.165 HD
ATOM     31  C   UNL     1       8.569  -1.935  -3.577  0.00  0.00    +0.047 A 
ATOM     32  C   UNL     1       7.756  -2.887  -2.936  0.00  0.00    +0.003 A 
ATOM     33  C   UNL     1       8.164  -3.450  -1.726  0.00  0.00    +0.010 A 
ATOM     34  C   UNL     1       9.351  -3.070  -1.167  0.00  0.00    +0.001 A 
ATOM     35  C   UNL     1      10.156  -2.128  -1.793  0.00  0.00    +0.002 A 
ATOM     36  C   UNL     1       9.777  -1.567  -2.993  0.00  0.00    +0.026 A 
ENDBRANCH  26  27
ENDBRANCH  25  26
ENDBRANCH  13  25
TORSDOF 5
