REMARK  Name = ZINC13500987
REMARK  16 active torsions:
REMARK  status: ('A' for Active; 'I' for Inactive)
REMARK    1  A    between atoms: C_1  and  C_2
REMARK    2  A    between atoms: C_2  and  C_3
REMARK    3  A    between atoms: C_3  and  C_4
REMARK    4  A    between atoms: C_4  and  C_6
REMARK    5  A    between atoms: C_4  and  N_74
REMARK    6  A    between atoms: N_10  and  C_11
REMARK    7  A    between atoms: C_11  and  C_12
REMARK    8  A    between atoms: C_11  and  C_13
REMARK    9  A    between atoms: C_11  and  C_14
REMARK   10  A    between atoms: C_14  and  C_15
REMARK   11  A    between atoms: C_16  and  C_17
REMARK   12  A    between atoms: C_16  and  N_74
REMARK   13  A    between atoms: C_17  and  C_18
REMARK   14  A    between atoms: C_24  and  C_25
REMARK   15  A    between atoms: C_24  and  N_74
REMARK   16  A    between atoms: C_29  and  C_37
REMARK                            x       y       z     vdW  Elec       q    Type
REMARK                         _______ _______ _______ _____ _____    ______ ____
ROOT
ATOM      1  N   UNL     1      -0.485   1.899  -0.694  0.00  0.00    +0.389 N 
ATOM      2  H   UNL     1      -0.275   2.902  -0.638  0.00  0.00    -0.080 HD
ENDROOT
BRANCH   1   3
ATOM      3  C   UNL     1      -0.148   1.265   0.598  0.00  0.00    +0.003 C 
BRANCH   3   4
ATOM      4  C   UNL     1      -1.083   1.784   1.659  0.00  0.00    +0.139 A 
ATOM      5  N   UNL     1      -1.480   3.024   1.814  0.00  0.00    -0.115 NA
ATOM      6  N   UNL     1      -2.274   3.064   2.828  0.00  0.00    -0.023 NA
ATOM      7  N   UNL     1      -2.388   1.884   3.329  0.00  0.00    -0.043 NA
ATOM      8  N   UNL     1      -1.669   1.067   2.636  0.00  0.00    -0.225 N 
BRANCH   8   9
ATOM      9  C   UNL     1      -1.518  -0.372   2.869  0.00  0.00    +0.061 C 
ATOM     10  C   UNL     1      -2.082  -1.144   1.674  0.00  0.00    +0.036 C 
ATOM     11  C   UNL     1      -0.035  -0.708   3.039  0.00  0.00    +0.036 C 
BRANCH   9  12
ATOM     12  C   UNL     1      -2.279  -0.766   4.136  0.00  0.00    +0.026 C 
ATOM     13  C   UNL     1      -2.121  -2.268   4.379  0.00  0.00    +0.006 C 
ENDBRANCH   9  12
ENDBRANCH   8   9
ENDBRANCH   3   4
BRANCH   3  14
ATOM     14  C   UNL     1       1.292   1.627   0.965  0.00  0.00    -0.008 C 
BRANCH  14  16
ATOM     15  C   UNL     1       2.837   3.506   1.535  0.00  0.00    +0.004 C 
ATOM     16  C   UNL     1       1.429   3.148   1.055  0.00  0.00    -0.005 C 
ENDBRANCH  14  16
ENDBRANCH   3  14
ENDBRANCH   1   3
BRANCH   1  17
ATOM     17  C   UNL     1      -1.924   1.724  -0.983  0.00  0.00    -0.073 C 
BRANCH  17  18
ATOM     18  C   UNL     1      -2.271   2.502  -2.254  0.00  0.00    +0.016 C 
BRANCH  18  19
ATOM     19  C   UNL     1      -3.761   2.458  -2.478  0.00  0.00    -0.049 A 
ATOM     20  C   UNL     1      -4.328   1.388  -3.144  0.00  0.00    +0.003 A 
ATOM     21  C   UNL     1      -5.695   1.345  -3.346  0.00  0.00    +0.000 A 
ATOM     22  C   UNL     1      -6.494   2.377  -2.890  0.00  0.00    +0.000 A 
ATOM     23  C   UNL     1      -5.926   3.450  -2.228  0.00  0.00    +0.000 A 
ATOM     24  C   UNL     1      -4.559   3.490  -2.022  0.00  0.00    +0.003 A 
ENDBRANCH  18  19
ENDBRANCH  17  18
ENDBRANCH   1  17
BRANCH   1  25
ATOM     25  C   UNL     1       0.324   1.300  -1.777  0.00  0.00    -0.037 C 
BRANCH  25  26
ATOM     26  C   UNL     1      -0.028  -0.154  -1.957  0.00  0.00    +0.001 A 
ATOM     27  C   UNL     1      -0.948  -0.517  -2.885  0.00  0.00    +0.017 A 
ATOM     28  C   UNL     1      -1.268  -1.938  -3.035  0.00  0.00    -0.001 A 
ATOM     29  C   UNL     1      -2.207  -2.373  -3.975  0.00  0.00    +0.013 A 
ATOM     30  C   UNL     1      -2.483  -3.706  -4.090  0.00  0.00    -0.050 A 
ATOM     31  C   UNL     1      -1.838  -4.633  -3.283  0.00  0.00    +0.005 A 
ATOM     32  C   UNL     1      -0.909  -4.227  -2.350  0.00  0.00    +0.026 A 
ATOM     33  C   UNL     1      -0.612  -2.875  -2.214  0.00  0.00    +0.049 A 
ATOM     34  N   UNL     1       0.314  -2.441  -1.290  0.00  0.00    -0.322 N 
ATOM     35  H   UNL     1       0.765  -3.088  -0.725  0.00  0.00    +0.169 HD
ATOM     36  C   UNL     1       0.605  -1.135  -1.163  0.00  0.00    +0.251 A 
ATOM     37  O   UNL     1       1.433  -0.788  -0.338  0.00  0.00    -0.268 OA
ATOM     38  C   UNL     1      -3.496  -4.174  -5.103  0.00  0.00    +0.044 C 
ENDBRANCH  25  26
ENDBRANCH   1  25
TORSDOF 11
