REMARK  Name = ZINC13151217
REMARK  14 active torsions:
REMARK  status: ('A' for Active; 'I' for Inactive)
REMARK    1  A    between atoms: C_1  and  C_2
REMARK    2  A    between atoms: C_2  and  C_3
REMARK    3  A    between atoms: C_3  and  C_5
REMARK    4  A    between atoms: C_3  and  N_19
REMARK    5  A    between atoms: N_9  and  C_10
REMARK    6  A    between atoms: C_10  and  C_11
REMARK    7  A    between atoms: C_14  and  O_17
REMARK    8  A    between atoms: O_17  and  C_18
REMARK    9  A    between atoms: N_19  and  C_20
REMARK   10  A    between atoms: N_19  and  C_24
REMARK   11  A    between atoms: C_20  and  C_21
REMARK   12  A    between atoms: C_21  and  C_22
REMARK   13  A    between atoms: C_22  and  O_23
REMARK   14  A    between atoms: C_24  and  C_25
REMARK                            x       y       z     vdW  Elec       q    Type
REMARK                         _______ _______ _______ _____ _____    ______ ____
ROOT
ATOM      1  N   UNL     1      -2.224  -0.256   1.316  0.00  0.00    +0.389 N 
ATOM      2  H   UNL     1      -1.677  -0.470   2.136  0.00  0.00    -0.080 HD
ENDROOT
BRANCH   1   3
ATOM      3  C   UNL     1      -1.458  -0.603   0.112  0.00  0.00    +0.003 C 
BRANCH   3   4
ATOM      4  C   UNL     1      -2.254  -0.235  -1.114  0.00  0.00    +0.138 A 
ATOM      5  N   UNL     1      -3.528  -0.466  -1.317  0.00  0.00    -0.115 NA
ATOM      6  N   UNL     1      -3.836  -0.003  -2.480  0.00  0.00    -0.023 NA
ATOM      7  N   UNL     1      -2.791   0.517  -3.023  0.00  0.00    -0.044 NA
ATOM      8  N   UNL     1      -1.796   0.398  -2.210  0.00  0.00    -0.226 N 
BRANCH   8   9
ATOM      9  C   UNL     1      -0.425   0.862  -2.437  0.00  0.00    +0.182 C 
BRANCH   9  10
ATOM     10  C   UNL     1       0.371  -0.230  -3.103  0.00  0.00    -0.026 A 
ATOM     11  C   UNL     1       1.052  -1.155  -2.333  0.00  0.00    +0.009 A 
ATOM     12  C   UNL     1       1.783  -2.157  -2.941  0.00  0.00    +0.046 A 
ATOM     13  C   UNL     1       1.833  -2.236  -4.325  0.00  0.00    +0.120 A 
ATOM     14  C   UNL     1       1.148  -1.307  -5.095  0.00  0.00    +0.046 A 
ATOM     15  C   UNL     1       0.414  -0.310  -4.483  0.00  0.00    +0.009 A 
BRANCH  13  16
ATOM     16  O   UNL     1       2.552  -3.221  -4.925  0.00  0.00    -0.495 OA
ATOM     17  C   UNL     1       2.558  -3.240  -6.354  0.00  0.00    +0.277 C 
ENDBRANCH  13  16
ENDBRANCH   9  10
ENDBRANCH   8   9
ENDBRANCH   3   4
BRANCH   3  19
ATOM     18  C   UNL     1      -0.296  -2.466   1.305  0.00  0.00    +0.002 C 
ATOM     19  C   UNL     1      -1.173  -2.106   0.103  0.00  0.00    -0.011 C 
ENDBRANCH   3  19
ENDBRANCH   1   3
BRANCH   1  20
ATOM     20  C   UNL     1      -2.542   1.178   1.298  0.00  0.00    -0.075 C 
BRANCH  20  21
ATOM     21  C   UNL     1      -1.247   1.988   1.386  0.00  0.00    +0.009 C 
BRANCH  21  22
ATOM     22  C   UNL     1      -1.583   3.476   1.499  0.00  0.00    +0.154 C 
BRANCH  22  23
ATOM     23  O   UNL     1      -0.374   4.233   1.581  0.00  0.00    -0.395 OA
ATOM     24  H   UNL     1      -0.511   5.187   1.655  0.00  0.00    +0.209 HD
ENDBRANCH  22  23
ENDBRANCH  21  22
ENDBRANCH  20  21
ENDBRANCH   1  20
BRANCH   1  25
ATOM     25  C   UNL     1      -3.471  -1.033   1.343  0.00  0.00    -0.037 C 
BRANCH  25  26
ATOM     26  C   UNL     1      -4.181  -0.797   2.651  0.00  0.00    +0.001 A 
ATOM     27  C   UNL     1      -5.165   0.135   2.728  0.00  0.00    +0.017 A 
ATOM     28  C   UNL     1      -5.835   0.341   4.011  0.00  0.00    +0.002 A 
ATOM     29  C   UNL     1      -6.856   1.290   4.148  0.00  0.00    +0.059 A 
ATOM     30  C   UNL     1      -7.468   1.462   5.370  0.00  0.00    +0.167 A 
ATOM     31  C   UNL     1      -7.075   0.691   6.471  0.00  0.00    +0.168 A 
ATOM     32  C   UNL     1      -6.068  -0.248   6.344  0.00  0.00    +0.075 A 
ATOM     33  C   UNL     1      -5.440  -0.433   5.119  0.00  0.00    +0.053 A 
ATOM     34  N   UNL     1      -4.433  -1.366   4.974  0.00  0.00    -0.322 N 
ATOM     35  H   UNL     1      -4.162  -1.899   5.737  0.00  0.00    +0.169 HD
ATOM     36  C   UNL     1      -3.827  -1.550   3.788  0.00  0.00    +0.251 A 
ATOM     37  O   UNL     1      -2.944  -2.386   3.696  0.00  0.00    -0.268 OA
ATOM     38  O   UNL     1      -7.832   1.056   7.546  0.00  0.00    -0.453 OA
ATOM     39  C   UNL     1      -8.402   2.332   7.203  0.00  0.00    +0.466 C 
ATOM     40  O   UNL     1      -8.469   2.304   5.765  0.00  0.00    -0.453 OA
ENDBRANCH  25  26
ENDBRANCH   1  25
TORSDOF 12
