REMARK  Name = ZINC10101896
REMARK  9 active torsions:
REMARK  status: ('A' for Active; 'I' for Inactive)
REMARK    1  A    between atoms: C_1  and  C_2
REMARK    2  A    between atoms: C_5  and  C_33
REMARK    3  A    between atoms: C_6  and  N_8
REMARK    4  A    between atoms: C_9  and  C_27
REMARK    5  A    between atoms: N_18  and  C_23
REMARK    6  A    between atoms: N_21  and  C_22
REMARK    7  A    between atoms: C_23  and  C_24
REMARK    8  A    between atoms: C_24  and  C_25
REMARK    9  A    between atoms: C_25  and  O_26
REMARK                            x       y       z     vdW  Elec       q    Type
REMARK                         _______ _______ _______ _____ _____    ______ ____
ROOT
ATOM      1  N   UNL     1       2.451   2.175   4.931  0.00  0.00    -0.278 N 
ATOM      2  C   UNL     1       1.820   2.624   6.085  0.00  0.00    +0.074 A 
ATOM      3  C   UNL     1       0.509   2.753   5.816  0.00  0.00    +0.121 A 
ATOM      4  N   UNL     1       0.299   2.390   4.501  0.00  0.00    -0.277 N 
ATOM      5  C   UNL     1       1.494   2.035   3.958  0.00  0.00    +0.223 A 
ATOM      6  N   UNL     1       1.310   1.683   2.694  0.00  0.00    -0.193 NA
ATOM      7  C   UNL     1       0.023   1.793   2.374  0.00  0.00    +0.170 A 
ATOM      8  C   UNL     1      -0.656   2.242   3.506  0.00  0.00    +0.157 A 
ATOM      9  C   UNL     1      -2.044   2.443   3.438  0.00  0.00    +0.283 A 
ATOM     10  O   UNL     1      -2.658   2.836   4.415  0.00  0.00    -0.265 OA
ATOM     11  N   UNL     1      -2.691   2.198   2.280  0.00  0.00    -0.259 N 
ATOM     12  C   UNL     1      -2.028   1.770   1.192  0.00  0.00    +0.333 A 
ATOM     13  O   UNL     1      -2.644   1.564   0.164  0.00  0.00    -0.246 OA
ATOM     14  N   UNL     1      -0.698   1.558   1.213  0.00  0.00    -0.279 N 
ATOM     15  C   UNL     1      -0.013   1.086   0.008  0.00  0.00    +0.155 C 
ENDROOT
BRANCH   1  21
ATOM     16  C   UNL     1       6.965   3.749   3.780  0.00  0.00    +0.044 C 
ATOM     17  C   UNL     1       6.029   2.658   4.231  0.00  0.00    -0.048 A 
ATOM     18  C   UNL     1       6.522   1.394   4.502  0.00  0.00    +0.004 A 
ATOM     19  C   UNL     1       5.667   0.390   4.916  0.00  0.00    +0.005 A 
ATOM     20  C   UNL     1       4.317   0.645   5.059  0.00  0.00    -0.026 A 
ATOM     21  C   UNL     1       3.819   1.913   4.788  0.00  0.00    +0.053 A 
ATOM     22  C   UNL     1       4.680   2.918   4.367  0.00  0.00    +0.030 A 
ATOM     23  C   UNL     1       3.385  -0.450   5.511  0.00  0.00    +0.046 C 
ENDBRANCH   1  21
BRANCH   2  24
ATOM     24  C   UNL     1       2.475   2.909   7.381  0.00  0.00    +0.000 A 
ATOM     25  C   UNL     1       3.863   2.828   7.497  0.00  0.00    +0.010 A 
ATOM     26  C   UNL     1       4.468   3.100   8.707  0.00  0.00    +0.001 A 
ATOM     27  C   UNL     1       3.700   3.443   9.806  0.00  0.00    +0.000 A 
ATOM     28  C   UNL     1       2.323   3.521   9.698  0.00  0.00    +0.001 A 
ATOM     29  C   UNL     1       1.707   3.256   8.493  0.00  0.00    +0.010 A 
ENDBRANCH   2  24
BRANCH  11  30
ATOM     30  C   UNL     1      -4.139   2.406   2.205  0.00  0.00    +0.132 C 
BRANCH  30  31
ATOM     31  C   UNL     1      -4.426   3.844   1.767  0.00  0.00    +0.049 C 
BRANCH  31  32
ATOM     32  C   UNL     1      -5.938   4.062   1.689  0.00  0.00    +0.157 C 
BRANCH  32  33
ATOM     33  O   UNL     1      -6.205   5.405   1.280  0.00  0.00    -0.395 OA
ATOM     34  H   UNL     1      -7.147   5.615   1.210  0.00  0.00    +0.209 HD
ENDBRANCH  32  33
ENDBRANCH  31  32
ENDBRANCH  30  31
ENDBRANCH  11  30
TORSDOF 6
