REMARK  Name = ZINC34730411
REMARK  6 active torsions:
REMARK  status: ('A' for Active; 'I' for Inactive)
REMARK    1  A    between atoms: C_1  and  C_2
REMARK    2  A    between atoms: C_6  and  C_8
REMARK    3  A    between atoms: C_8  and  N_9
REMARK    4  A    between atoms: N_13  and  C_16
REMARK    5  A    between atoms: C_19  and  C_23
REMARK    6  A    between atoms: C_21  and  N_22
REMARK                            x       y       z     vdW  Elec       q    Type
REMARK                         _______ _______ _______ _____ _____    ______ ____
ROOT
ATOM      1  N   UNL     1       1.440  -3.073   2.903  0.00  0.00    -0.281 N 
ATOM      2  C   UNL     1       2.132  -4.284   2.457  0.00  0.00    +0.111 C 
ATOM      3  C   UNL     1       3.634  -3.998   2.359  0.00  0.00    +0.038 C 
ATOM      4  C   UNL     1       4.120  -3.473   3.715  0.00  0.00    +0.117 C 
ATOM      5  N   UNL     1       3.320  -2.306   4.092  0.00  0.00    -0.254 N 
ATOM      6  C   UNL     1       2.052  -2.166   3.679  0.00  0.00    +0.309 C 
ATOM      7  O   UNL     1       1.430  -1.180   4.026  0.00  0.00    -0.252 OA
ENDROOT
BRANCH   5   8
ATOM      8  C   UNL     1       3.894  -1.312   4.898  0.00  0.00    +0.058 A 
ATOM      9  C   UNL     1       4.552  -0.239   4.316  0.00  0.00    +0.025 A 
ATOM     10  C   UNL     1       5.117   0.739   5.112  0.00  0.00    +0.005 A 
ATOM     11  C   UNL     1       5.029   0.652   6.489  0.00  0.00    -0.049 A 
ATOM     12  C   UNL     1       4.375  -0.414   7.078  0.00  0.00    +0.028 A 
ATOM     13  C   UNL     1       3.800  -1.397   6.287  0.00  0.00    +0.047 A 
ATOM     14  C   UNL     1       5.648   1.723   7.351  0.00  0.00    +0.044 C 
BRANCH  13  15
ATOM     15  N   UNL     1       3.132  -2.474   6.880  0.00  0.00    -0.357 N 
ATOM     16  H   UNL     1       2.734  -3.163   6.325  0.00  0.00    +0.142 HD
ATOM     17  H   UNL     1       3.067  -2.532   7.846  0.00  0.00    +0.142 HD
ENDBRANCH  13  15
ENDBRANCH   5   8
BRANCH   1  18
ATOM     18  C   UNL     1       0.054  -2.845   2.489  0.00  0.00    +0.144 C 
BRANCH  18  24
ATOM     19  C   UNL     1      -0.018   1.503   0.010  0.00  0.00    +0.044 C 
ATOM     20  C   UNL     1       0.002  -0.004   0.002  0.00  0.00    -0.050 A 
ATOM     21  C   UNL     1       0.006  -0.689  -1.199  0.00  0.00    +0.003 A 
ATOM     22  C   UNL     1       0.025  -2.071  -1.207  0.00  0.00    +0.001 A 
ATOM     23  C   UNL     1       0.040  -2.768  -0.013  0.00  0.00    +0.005 A 
ATOM     24  C   UNL     1       0.037  -2.084   1.188  0.00  0.00    -0.030 A 
ATOM     25  C   UNL     1       0.023  -0.702   1.195  0.00  0.00    +0.008 A 
ENDBRANCH  18  24
ENDBRANCH   1  18
TORSDOF 4
