REMARK  Name = ZINC21222502
REMARK  13 active torsions:
REMARK  status: ('A' for Active; 'I' for Inactive)
REMARK    1  A    between atoms: C_1  and  C_2
REMARK    2  A    between atoms: C_2  and  O_3
REMARK    3  A    between atoms: O_3  and  C_4
REMARK    4  A    between atoms: C_5  and  C_12
REMARK    5  A    between atoms: C_9  and  O_10
REMARK    6  A    between atoms: O_10  and  C_11
REMARK    7  A    between atoms: C_17  and  C_22
REMARK    8  A    between atoms: C_25  and  O_30
REMARK    9  A    between atoms: C_26  and  O_28
REMARK   10  A    between atoms: O_28  and  C_29
REMARK   11  A    between atoms: O_30  and  C_31
REMARK   12  A    between atoms: C_31  and  C_32
REMARK   13  A    between atoms: C_31  and  C_33
REMARK                            x       y       z     vdW  Elec       q    Type
REMARK                         _______ _______ _______ _____ _____    ______ ____
ROOT
ATOM      1  C   UNL     1      -8.799   5.516  -0.975  0.00  0.00    +0.140 C 
ATOM      2  C   UNL     1      -7.797   4.532  -0.417  0.00  0.00    +0.037 C 
ATOM      3  C   UNL     1      -7.731   4.111   0.855  0.00  0.00    +0.017 C 
ATOM      4  C   UNL     1      -6.687   3.087   1.272  0.00  0.00    +0.059 C 
ATOM      5  C   UNL     1      -5.416   3.276   0.447  0.00  0.00    +0.032 C 
ATOM      6  C   UNL     1      -5.784   3.085  -1.029  0.00  0.00    +0.088 C 
ATOM      7  C   UNL     1      -6.876   4.051  -1.378  0.00  0.00    +0.163 C 
ATOM      8  O   UNL     1      -6.975   4.434  -2.527  0.00  0.00    -0.292 OA
ATOM      9  N   UNL     1      -8.544   4.526   1.861  0.00  0.00    -0.316 N 
ATOM     10  C   UNL     1      -9.930   4.615   1.775  0.00  0.00    +0.052 A 
ATOM     11  C   UNL     1     -10.771   3.845   2.557  0.00  0.00    +0.025 A 
ATOM     12  C   UNL     1     -12.141   4.019   2.454  0.00  0.00    +0.002 A 
ATOM     13  C   UNL     1     -12.660   4.956   1.579  0.00  0.00    +0.002 A 
ATOM     14  C   UNL     1     -11.819   5.714   0.783  0.00  0.00    +0.025 A 
ATOM     15  C   UNL     1     -10.448   5.527   0.867  0.00  0.00    +0.049 A 
ATOM     16  N   UNL     1      -9.571   6.213   0.031  0.00  0.00    -0.331 N 
ATOM     17  H   UNL     1      -8.113   4.822   2.829  0.00  0.00    +0.152 HD
ATOM     18  H   UNL     1      -9.471   7.302   0.145  0.00  0.00    +0.147 HD
ENDROOT
BRANCH   1  20
ATOM     19  C   UNL     1     -10.536   5.470  -2.781  0.00  0.00    +0.167 A 
ATOM     20  C   UNL     1      -9.749   4.773  -1.878  0.00  0.00    +0.023 A 
ATOM     21  C   UNL     1      -9.840   3.395  -1.802  0.00  0.00    +0.009 A 
ATOM     22  C   UNL     1     -10.710   2.710  -2.630  0.00  0.00    +0.004 A 
ATOM     23  C   UNL     1     -11.494   3.399  -3.536  0.00  0.00    +0.049 A 
ATOM     24  C   UNL     1     -11.408   4.780  -3.618  0.00  0.00    +0.162 A 
BRANCH  24  25
ATOM     25  O   UNL     1     -12.178   5.459  -4.509  0.00  0.00    -0.491 OA
ATOM     26  C   UNL     1     -13.055   4.686  -5.330  0.00  0.00    +0.277 C 
ENDBRANCH  24  25
BRANCH  19  27
ATOM     27  O   UNL     1     -10.451   6.825  -2.853  0.00  0.00    -0.488 OA
BRANCH  27  29
ATOM     28  C   UNL     1      -9.533   8.892  -3.705  0.00  0.00    +0.048 C 
ATOM     29  C   UNL     1      -9.579   7.369  -3.845  0.00  0.00    +0.226 C 
ENDBRANCH  27  29
ENDBRANCH  19  27
ENDBRANCH   1  20
BRANCH   5  30
ATOM     30  C   UNL     1      -4.386   2.254   0.853  0.00  0.00    -0.040 A 
ATOM     31  C   UNL     1      -4.678   0.906   0.758  0.00  0.00    +0.008 A 
ATOM     32  C   UNL     1      -3.735  -0.036   1.124  0.00  0.00    +0.050 A 
ATOM     33  C   UNL     1      -2.494   0.370   1.588  0.00  0.00    +0.162 A 
ATOM     34  C   UNL     1      -2.200   1.726   1.683  0.00  0.00    +0.162 A 
ATOM     35  C   UNL     1      -3.150   2.666   1.315  0.00  0.00    +0.053 A 
BRANCH  34  36
ATOM     36  O   UNL     1      -0.983   2.130   2.138  0.00  0.00    -0.491 OA
ATOM     37  C   UNL     1      -0.752   3.538   2.209  0.00  0.00    +0.277 C 
ENDBRANCH  34  36
BRANCH  33  38
ATOM     38  O   UNL     1      -1.565  -0.556   1.948  0.00  0.00    -0.486 OA
BRANCH  38  39
ATOM     39  C   UNL     1      -1.974  -1.925   1.934  0.00  0.00    +0.167 C 
ATOM     40  C   UNL     1      -1.800  -2.495   0.525  0.00  0.00    +0.051 C 
ATOM     41  C   UNL     1      -1.115  -2.724   2.917  0.00  0.00    +0.051 C 
ENDBRANCH  38  39
ENDBRANCH  33  38
ENDBRANCH   5  30
TORSDOF 8
