REMARK  Name = ZINC04844646
REMARK  9 active torsions:
REMARK  status: ('A' for Active; 'I' for Inactive)
REMARK    1  A    between atoms: C_1  and  C_2
REMARK    2  A    between atoms: C_3  and  O_27
REMARK    3  A    between atoms: C_6  and  C_9
REMARK    4  A    between atoms: C_7  and  O_8
REMARK    5  A    between atoms: C_10  and  C_19
REMARK    6  A    between atoms: C_11  and  C_15
REMARK    7  A    between atoms: C_22  and  O_25
REMARK    8  A    between atoms: O_25  and  C_26
REMARK    9  A    between atoms: O_27  and  C_28
REMARK                            x       y       z     vdW  Elec       q    Type
REMARK                         _______ _______ _______ _____ _____    ______ ____
ROOT
ATOM      1  C   UNL     1       0.202  -2.871   2.461  0.00  0.00    +0.104 A 
ATOM      2  C   UNL     1      -0.022  -4.264   2.600  0.00  0.00    +0.039 A 
ATOM      3  C   UNL     1      -0.119  -4.533   3.932  0.00  0.00    +0.147 A 
ATOM      4  N   UNL     1       0.035  -3.371   4.600  0.00  0.00    -0.272 N 
ATOM      5  H   UNL     1       0.012  -3.263   5.564  0.00  0.00    +0.189 HD
ATOM      6  N   UNL     1       0.240  -2.348   3.667  0.00  0.00    -0.173 NA
ENDROOT
BRANCH   1  12
ATOM      7  C   UNL     1      -0.921   1.018  -0.475  0.00  0.00    +0.051 C 
ATOM      8  C   UNL     1      -0.170  -0.265  -0.232  0.00  0.00    +0.033 A 
ATOM      9  C   UNL     1       0.684  -0.764  -1.206  0.00  0.00    +0.126 A 
ATOM     10  C   UNL     1       1.379  -1.946  -0.986  0.00  0.00    +0.047 A 
ATOM     11  C   UNL     1       1.225  -2.631   0.201  0.00  0.00    +0.017 A 
ATOM     12  C   UNL     1       0.370  -2.137   1.184  0.00  0.00    +0.045 A 
ATOM     13  C   UNL     1      -0.326  -0.943   0.964  0.00  0.00    +0.132 A 
BRANCH  13  14
ATOM     14  O   UNL     1      -1.158  -0.454   1.921  0.00  0.00    -0.506 OA
ATOM     15  H   UNL     1      -2.068  -0.771   1.850  0.00  0.00    +0.292 HD
ENDBRANCH  13  14
BRANCH   9  16
ATOM     16  O   UNL     1       0.840  -0.093  -2.377  0.00  0.00    -0.495 OA
ATOM     17  C   UNL     1       1.734  -0.662  -3.336  0.00  0.00    +0.277 C 
ENDBRANCH   9  16
ENDBRANCH   1  12
BRANCH   2  18
ATOM     18  C   UNL     1      -0.131  -5.250   1.496  0.00  0.00    -0.014 A 
ATOM     19  C   UNL     1      -1.214  -5.200   0.620  0.00  0.00    +0.012 A 
ATOM     20  C   UNL     1      -1.313  -6.118  -0.405  0.00  0.00    +0.046 A 
ATOM     21  C   UNL     1      -0.335  -7.090  -0.565  0.00  0.00    +0.120 A 
ATOM     22  C   UNL     1       0.745  -7.141   0.305  0.00  0.00    +0.046 A 
ATOM     23  C   UNL     1       0.852  -6.223   1.329  0.00  0.00    +0.012 A 
BRANCH  21  24
ATOM     24  O   UNL     1      -0.435  -7.993  -1.576  0.00  0.00    -0.495 OA
ATOM     25  C   UNL     1       0.606  -8.965  -1.683  0.00  0.00    +0.277 C 
ENDBRANCH  21  24
ENDBRANCH   2  18
BRANCH   3  26
ATOM     26  C   UNL     1      -0.357  -5.887   4.550  0.00  0.00    +0.434 C 
ATOM     27  F   UNL     1      -0.396  -5.763   5.942  0.00  0.00    -0.164 F 
ATOM     28  F   UNL     1      -1.576  -6.400   4.093  0.00  0.00    -0.164 F 
ATOM     29  F   UNL     1       0.679  -6.753   4.186  0.00  0.00    -0.164 F 
ENDBRANCH   3  26
TORSDOF 6
