REMARK  Name = ZINC01077303
REMARK  7 active torsions:
REMARK  status: ('A' for Active; 'I' for Inactive)
REMARK    1  A    between atoms: C_1  and  C_2
REMARK    2  A    between atoms: C_2  and  O_3
REMARK    3  A    between atoms: O_3  and  C_4
REMARK    4  A    between atoms: C_7  and  C_12
REMARK    5  A    between atoms: C_9  and  O_10
REMARK    6  A    between atoms: O_10  and  C_11
REMARK    7  A    between atoms: C_17  and  C_27
REMARK                            x       y       z     vdW  Elec       q    Type
REMARK                         _______ _______ _______ _____ _____    ______ ____
ROOT
ATOM      1  C   UNL     1      -0.352   1.231   0.921  0.00  0.00    +0.032 C 
ATOM      2  C   UNL     1      -0.459   2.753   1.011  0.00  0.00    +0.059 C 
ATOM      3  C   UNL     1      -1.343   3.280  -0.107  0.00  0.00    +0.017 C 
ATOM      4  C   UNL     1      -1.377   2.658  -1.299  0.00  0.00    +0.036 C 
ATOM      5  C   UNL     1      -2.202   3.076  -2.492  0.00  0.00    +0.136 C 
ATOM      6  N   UNL     1      -2.800   4.389  -2.379  0.00  0.00    -0.331 N 
ATOM      7  C   UNL     1      -3.766   4.658  -1.410  0.00  0.00    +0.049 A 
ATOM      8  C   UNL     1      -5.082   4.918  -1.753  0.00  0.00    +0.025 A 
ATOM      9  C   UNL     1      -6.029   5.067  -0.754  0.00  0.00    +0.002 A 
ATOM     10  C   UNL     1      -5.665   4.960   0.576  0.00  0.00    +0.002 A 
ATOM     11  C   UNL     1      -4.346   4.722   0.923  0.00  0.00    +0.025 A 
ATOM     12  C   UNL     1      -3.396   4.590  -0.075  0.00  0.00    +0.052 A 
ATOM     13  N   UNL     1      -2.047   4.398   0.202  0.00  0.00    -0.316 N 
ATOM     14  C   UNL     1      -0.604   1.494  -1.516  0.00  0.00    +0.163 C 
ATOM     15  O   UNL     1      -0.634   0.967  -2.611  0.00  0.00    -0.292 OA
ATOM     16  C   UNL     1       0.252   0.887  -0.445  0.00  0.00    +0.088 C 
ATOM     17  H   UNL     1      -2.526   5.093  -2.987  0.00  0.00    +0.147 HD
ATOM     18  H   UNL     1      -1.575   5.116   0.651  0.00  0.00    +0.152 HD
ENDROOT
BRANCH   5  19
ATOM     19  C   UNL     1      -3.302   2.066  -2.690  0.00  0.00    -0.019 A 
ATOM     20  C   UNL     1      -4.264   1.893  -1.712  0.00  0.00    +0.009 A 
ATOM     21  C   UNL     1      -5.278   0.971  -1.891  0.00  0.00    +0.050 A 
ATOM     22  C   UNL     1      -5.326   0.209  -3.047  0.00  0.00    +0.166 A 
ATOM     23  C   UNL     1      -4.354   0.379  -4.030  0.00  0.00    +0.167 A 
ATOM     24  C   UNL     1      -3.344   1.309  -3.846  0.00  0.00    +0.055 A 
ATOM     25  O   UNL     1      -4.618  -0.479  -5.058  0.00  0.00    -0.453 OA
ATOM     26  C   UNL     1      -5.523  -1.460  -4.518  0.00  0.00    +0.466 C 
ATOM     27  O   UNL     1      -6.200  -0.755  -3.460  0.00  0.00    -0.453 OA
ENDBRANCH   5  19
BRANCH   1  31
ATOM     28  C   UNL     1       2.185  -0.236   4.036  0.00  0.00    +0.162 A 
ATOM     29  C   UNL     1       2.669   0.685   3.121  0.00  0.00    +0.050 A 
ATOM     30  C   UNL     1       1.846   1.157   2.115  0.00  0.00    +0.008 A 
ATOM     31  C   UNL     1       0.540   0.713   2.020  0.00  0.00    -0.040 A 
ATOM     32  C   UNL     1       0.050  -0.202   2.933  0.00  0.00    +0.053 A 
ATOM     33  C   UNL     1       0.870  -0.683   3.941  0.00  0.00    +0.162 A 
BRANCH  33  34
ATOM     34  O   UNL     1       0.391  -1.586   4.837  0.00  0.00    -0.491 OA
ATOM     35  C   UNL     1      -0.968  -2.000   4.677  0.00  0.00    +0.277 C 
ENDBRANCH  33  34
BRANCH  28  36
ATOM     36  O   UNL     1       2.992  -0.701   5.027  0.00  0.00    -0.489 OA
BRANCH  36  38
ATOM     37  C   UNL     1       5.080  -0.830   6.237  0.00  0.00    +0.048 C 
ATOM     38  C   UNL     1       4.329  -0.197   5.064  0.00  0.00    +0.226 C 
ENDBRANCH  36  38
ENDBRANCH  28  36
ENDBRANCH   1  31
TORSDOF 5
