REMARK  Name = ZINC28054649
REMARK  4 active torsions:
REMARK  status: ('A' for Active; 'I' for Inactive)
REMARK    1  A    between atoms: C_1  and  C_2
REMARK    2  A    between atoms: C_5  and  C_8
REMARK    3  A    between atoms: C_14  and  C_26
REMARK    4  A    between atoms: C_19  and  C_21
REMARK                            x       y       z     vdW  Elec       q    Type
REMARK                         _______ _______ _______ _____ _____    ______ ____
ROOT
ATOM      1  C   UNL     1      -1.134   2.324   0.031  0.00  0.00    +0.174 C 
ATOM      2  C   UNL     1      -0.651   3.718  -0.286  0.00  0.00    +0.026 C 
ATOM      3  C   UNL     1       0.644   4.040  -0.298  0.00  0.00    +0.050 C 
ATOM      4  C   UNL     1       1.023   5.431  -0.642  0.00  0.00    +0.038 A 
ATOM      5  C   UNL     1       2.285   5.934  -0.354  0.00  0.00    +0.016 A 
ATOM      6  C   UNL     1       2.594   7.236  -0.696  0.00  0.00    -0.050 A 
ATOM      7  C   UNL     1       1.654   8.036  -1.323  0.00  0.00    +0.007 A 
ATOM      8  C   UNL     1       0.394   7.544  -1.611  0.00  0.00    +0.046 A 
ATOM      9  C   UNL     1       0.071   6.243  -1.273  0.00  0.00    +0.131 A 
ATOM     10  O   UNL     1      -1.156   5.724  -1.534  0.00  0.00    -0.479 OA
ATOM     11  C   UNL     1      -1.677   4.784  -0.595  0.00  0.00    +0.241 C 
ATOM     12  C   UNL     1       3.962   7.789  -0.386  0.00  0.00    +0.044 C 
ATOM     13  N   UNL     1       1.649   3.107  -0.013  0.00  0.00    -0.282 N 
ATOM     14  C   UNL     1       1.288   1.770  -0.001  0.00  0.00    +0.240 A 
ATOM     15  N   UNL     1      -0.017   1.390   0.010  0.00  0.00    -0.201 N 
ATOM     16  N   UNL     1       0.002  -0.004   0.002  0.00  0.00    -0.042 NA
ATOM     17  N   UNL     1       1.247  -0.356  -0.005  0.00  0.00    -0.021 NA
ATOM     18  N   UNL     1       2.008   0.685  -0.005  0.00  0.00    -0.092 NA
ATOM     19  H   UNL     1       2.675   3.448   0.189  0.00  0.00    +0.155 HD
ENDROOT
BRANCH   1  24
ATOM     20  C   UNL     1      -3.567   2.281   5.272  0.00  0.00    +0.044 C 
ATOM     21  C   UNL     1      -2.933   2.292   3.905  0.00  0.00    -0.050 A 
ATOM     22  C   UNL     1      -3.679   1.948   2.794  0.00  0.00    +0.004 A 
ATOM     23  C   UNL     1      -3.097   1.959   1.540  0.00  0.00    +0.006 A 
ATOM     24  C   UNL     1      -1.768   2.313   1.397  0.00  0.00    -0.019 A 
ATOM     25  C   UNL     1      -1.020   2.652   2.510  0.00  0.00    +0.006 A 
ATOM     26  C   UNL     1      -1.604   2.647   3.763  0.00  0.00    +0.004 A 
ENDBRANCH   1  24
BRANCH  11  27
ATOM     27  C   UNL     1      -2.045   5.504   0.676  0.00  0.00    +0.034 A 
ATOM     28  C   UNL     1      -3.070   5.260   1.529  0.00  0.00    +0.015 A 
ATOM     29  C   UNL     1      -3.215   6.059   2.648  0.00  0.00    +0.008 A 
ATOM     30  C   UNL     1      -2.328   7.062   2.860  0.00  0.00    +0.045 A 
ATOM     31  S   UNL     1      -1.239   6.894   1.455  0.00  0.00    -0.098 S 
ENDBRANCH  11  27
TORSDOF 2
