REMARK  Name = ZINC15523731
REMARK  12 active torsions:
REMARK  status: ('A' for Active; 'I' for Inactive)
REMARK    1  A    between atoms: C_1  and  C_2
REMARK    2  A    between atoms: C_2  and  C_3
REMARK    3  A    between atoms: C_2  and  C_4
REMARK    4  A    between atoms: C_4  and  C_6
REMARK    5  A    between atoms: C_4  and  N_18
REMARK    6  A    between atoms: C_9  and  C_12
REMARK    7  A    between atoms: N_18  and  C_19
REMARK    8  A    between atoms: C_19  and  C_20
REMARK    9  A    between atoms: N_22  and  C_23
REMARK   10  A    between atoms: C_23  and  C_24
REMARK   11  A    between atoms: C_27  and  S_30
REMARK   12  A    between atoms: S_30  and  N_33
REMARK                            x       y       z     vdW  Elec       q    Type
REMARK                         _______ _______ _______ _____ _____    ______ ____
ROOT
ATOM      1  N   UNL     1      -1.383  -2.003   0.120  0.00  0.00    -0.301 NA
ATOM      2  H   UNL     1      -2.228  -2.277  -0.358  0.00  0.00    +0.123 HD
ENDROOT
BRANCH   1   3
ATOM      3  C   UNL     1      -1.159  -0.555   0.004  0.00  0.00    +0.087 C 
BRANCH   3   4
ATOM      4  C   UNL     1      -1.717  -0.065  -1.308  0.00  0.00    -0.030 A 
ATOM      5  C   UNL     1      -1.567  -0.827  -2.451  0.00  0.00    +0.005 A 
ATOM      6  C   UNL     1      -2.078  -0.377  -3.654  0.00  0.00    +0.004 A 
ATOM      7  C   UNL     1      -2.740   0.836  -3.713  0.00  0.00    -0.044 A 
ATOM      8  C   UNL     1      -2.890   1.597  -2.570  0.00  0.00    +0.004 A 
ATOM      9  C   UNL     1      -2.383   1.145  -1.366  0.00  0.00    +0.005 A 
BRANCH   7  10
ATOM     10  C   UNL     1      -3.296   1.327  -5.025  0.00  0.00    +0.019 C 
ATOM     11  C   UNL     1      -2.649   2.666  -5.384  0.00  0.00    +0.008 C 
ATOM     12  C   UNL     1      -3.214   3.164  -6.715  0.00  0.00    +0.001 C 
ATOM     13  C   UNL     1      -4.728   3.347  -6.591  0.00  0.00    +0.000 C 
ATOM     14  C   UNL     1      -5.375   2.008  -6.231  0.00  0.00    +0.001 C 
ATOM     15  C   UNL     1      -4.810   1.510  -4.900  0.00  0.00    +0.008 C 
ENDBRANCH   7  10
ENDBRANCH   3   4
BRANCH   3  17
ATOM     16  C   UNL     1       1.046  -0.994  -1.087  0.00  0.00    +0.009 C 
ATOM     17  C   UNL     1       0.342  -0.266   0.060  0.00  0.00    +0.004 C 
ATOM     18  C   UNL     1       0.576   1.241  -0.073  0.00  0.00    +0.009 C 
ENDBRANCH   3  17
ENDBRANCH   1   3
BRANCH   1  19
ATOM     19  C   UNL     1      -1.417  -2.419   1.528  0.00  0.00    +0.178 C 
BRANCH  19  20
ATOM     20  C   UNL     1      -1.519  -3.920   1.606  0.00  0.00    +0.227 C 
ATOM     21  O   UNL     1      -1.560  -4.579   0.589  0.00  0.00    -0.274 OA
ATOM     22  N   UNL     1      -1.564  -4.531   2.807  0.00  0.00    -0.310 N 
ATOM     23  H   UNL     1      -1.532  -4.005   3.621  0.00  0.00    +0.149 HD
BRANCH  22  24
ATOM     24  C   UNL     1      -1.664  -5.991   2.882  0.00  0.00    +0.139 C 
BRANCH  24  25
ATOM     25  C   UNL     1      -1.698  -6.418   4.327  0.00  0.00    -0.030 A 
ATOM     26  C   UNL     1      -0.519  -6.689   4.996  0.00  0.00    +0.007 A 
ATOM     27  C   UNL     1      -0.550  -7.081   6.321  0.00  0.00    +0.029 A 
ATOM     28  C   UNL     1      -1.760  -7.200   6.978  0.00  0.00    +0.105 A 
ATOM     29  C   UNL     1      -2.939  -6.928   6.310  0.00  0.00    +0.029 A 
ATOM     30  C   UNL     1      -2.908  -6.532   4.986  0.00  0.00    +0.007 A 
BRANCH  28  31
ATOM     31  S   UNL     1      -1.800  -7.701   8.667  0.00  0.00    +0.056 S 
ATOM     32  O   UNL     1      -3.086  -8.263   8.894  0.00  0.00    -0.153 OA
ATOM     33  O   UNL     1      -0.600  -8.422   8.906  0.00  0.00    -0.153 OA
BRANCH  31  34
ATOM     34  N   UNL     1      -1.717  -6.326   9.587  0.00  0.00    -0.204 NA
ATOM     35  H   UNL     1      -2.140  -6.300  10.459  0.00  0.00    +0.144 HD
ATOM     36  H   UNL     1      -1.245  -5.547   9.254  0.00  0.00    +0.144 HD
ENDBRANCH  31  34
ENDBRANCH  28  31
ENDBRANCH  24  25
ENDBRANCH  22  24
ENDBRANCH  19  20
ENDBRANCH   1  19
TORSDOF 10
