REMARK  Name = ZINC08568277
REMARK  9 active torsions:
REMARK  status: ('A' for Active; 'I' for Inactive)
REMARK    1  A    between atoms: C_1  and  C_2
REMARK    2  A    between atoms: C_2  and  C_3
REMARK    3  A    between atoms: C_3  and  C_4
REMARK    4  A    between atoms: C_11  and  N_35
REMARK    5  A    between atoms: C_12  and  C_31
REMARK    6  A    between atoms: N_20  and  C_23
REMARK    7  A    between atoms: C_23  and  C_24
REMARK    8  A    between atoms: C_31  and  O_33
REMARK    9  A    between atoms: O_33  and  C_34
REMARK                            x       y       z     vdW  Elec       q    Type
REMARK                         _______ _______ _______ _____ _____    ______ ____
ROOT
ATOM      1  C   UNL     1      -1.433  -2.668  -0.180  0.00  0.00    +0.045 A 
ATOM      2  C   UNL     1      -1.163  -3.201   1.021  0.00  0.00    +0.061 A 
ATOM      3  C   UNL     1      -0.920  -4.583   0.843  0.00  0.00    +0.245 A 
ATOM      4  N   UNL     1      -1.043  -4.852  -0.424  0.00  0.00    -0.135 NA
ATOM      5  N   UNL     1      -1.372  -3.663  -1.094  0.00  0.00    -0.278 N 
ATOM      6  H   UNL     1      -1.527  -3.571  -2.047  0.00  0.00    +0.189 HD
ATOM      7  O   UNL     1      -0.618  -5.401   1.886  0.00  0.00    -0.422 OA
ATOM      8  C   UNL     1      -0.810  -4.927   3.132  0.00  0.00    +0.198 C 
ATOM      9  C   UNL     1      -1.038  -3.625   3.428  0.00  0.00    +0.117 C 
ATOM     10  C   UNL     1      -1.100  -2.553   2.376  0.00  0.00    +0.142 C 
ATOM     11  C   UNL     1       0.064  -1.621   2.478  0.00  0.00    -0.002 A 
ATOM     12  C   UNL     1       1.421  -1.837   2.373  0.00  0.00    +0.007 A 
ATOM     13  C   UNL     1       2.250  -0.730   2.522  0.00  0.00    +0.000 A 
ATOM     14  C   UNL     1       1.734   0.527   2.764  0.00  0.00    +0.002 A 
ATOM     15  C   UNL     1       0.370   0.752   2.872  0.00  0.00    +0.024 A 
ATOM     16  C   UNL     1      -0.473  -0.351   2.725  0.00  0.00    +0.041 A 
ATOM     17  N   UNL     1      -1.854  -0.416   2.786  0.00  0.00    -0.265 N 
ATOM     18  C   UNL     1      -2.310  -1.672   2.593  0.00  0.00    +0.240 C 
ATOM     19  O   UNL     1      -3.470  -2.026   2.594  0.00  0.00    -0.274 OA
ENDROOT
BRANCH   8  20
ATOM     20  N   UNL     1      -0.772  -5.821   4.168  0.00  0.00    -0.329 N 
ATOM     21  H   UNL     1      -0.694  -6.771   3.987  0.00  0.00    +0.145 HD
ATOM     22  H   UNL     1      -0.823  -5.504   5.084  0.00  0.00    +0.145 HD
ENDBRANCH   8  20
BRANCH   9  23
ATOM     23  C   UNL     1      -1.224  -3.262   4.770  0.00  0.00    +0.341 C 
ATOM     24  O   UNL     1      -0.329  -2.706   5.380  0.00  0.00    -0.245 OA
BRANCH  23  25
ATOM     25  O   UNL     1      -2.396  -3.530   5.386  0.00  0.00    -0.465 OA
ATOM     26  C   UNL     1      -2.516  -3.133   6.753  0.00  0.00    +0.280 C 
ENDBRANCH  23  25
ENDBRANCH   9  23
BRANCH   1  27
ATOM     27  C   UNL     1      -1.754  -1.222  -0.459  0.00  0.00    +0.055 C 
BRANCH  27  29
ATOM     28  C   UNL     1      -2.029   0.490  -2.257  0.00  0.00    +0.004 C 
ATOM     29  C   UNL     1      -1.835  -1.000  -1.970  0.00  0.00    +0.003 C 
ENDBRANCH  27  29
ENDBRANCH   1  27
BRANCH  17  30
ATOM     30  C   UNL     1      -2.718   0.741   3.030  0.00  0.00    +0.148 C 
BRANCH  30  31
ATOM     31  C   UNL     1      -3.042   1.412   1.720  0.00  0.00    -0.030 A 
ATOM     32  C   UNL     1      -2.177   2.354   1.194  0.00  0.00    +0.006 A 
ATOM     33  C   UNL     1      -2.473   2.970  -0.007  0.00  0.00    +0.020 A 
ATOM     34  C   UNL     1      -3.635   2.644  -0.683  0.00  0.00    +0.041 A 
ATOM     35  C   UNL     1      -4.500   1.702  -0.156  0.00  0.00    +0.020 A 
ATOM     36  C   UNL     1      -4.200   1.082   1.043  0.00  0.00    +0.006 A 
ATOM     37 CL   UNL     1      -4.008   3.417  -2.192  0.00  0.00    -0.084 Cl
ENDBRANCH  30  31
ENDBRANCH  17  30
TORSDOF 7
