REMARK  Name = ZINC09432362
REMARK  5 active torsions:
REMARK  status: ('A' for Active; 'I' for Inactive)
REMARK    1  A    between atoms: C_1  and  C_2
REMARK    2  A    between atoms: C_8  and  N_10
REMARK    3  A    between atoms: C_11  and  C_13
REMARK    4  A    between atoms: N_16  and  S_19
REMARK    5  A    between atoms: S_19  and  C_22
REMARK                            x       y       z     vdW  Elec       q    Type
REMARK                         _______ _______ _______ _____ _____    ______ ____
ROOT
ATOM      1  C   UNL     1      -1.771  -0.201  -4.150  0.00  0.00    +0.077 C 
ATOM      2  C   UNL     1      -2.338   1.193  -3.871  0.00  0.00    +0.030 C 
ATOM      3  C   UNL     1      -3.048   1.711  -5.125  0.00  0.00    +0.110 C 
ATOM      4  N   UNL     1      -4.053   0.724  -5.542  0.00  0.00    -0.177 NA
ATOM      5  C   UNL     1      -3.632  -0.668  -5.749  0.00  0.00    +0.110 C 
ATOM      6  C   UNL     1      -2.915  -1.160  -4.488  0.00  0.00    +0.030 C 
ENDROOT
BRANCH   1   8
ATOM      7  N   UNL     1       0.010  -0.012  -2.444  0.00  0.00    -0.312 N 
ATOM      8  C   UNL     1      -1.042  -0.701  -2.929  0.00  0.00    +0.216 C 
ATOM      9  O   UNL     1      -1.403  -1.722  -2.383  0.00  0.00    -0.276 OA
ATOM     10  H   UNL     1       0.298   0.805  -2.880  0.00  0.00    +0.149 HD
BRANCH   7  17
ATOM     11  C   UNL     1       2.870  -0.461  -2.526  0.00  0.00    +0.009 C 
ATOM     12  C   UNL     1       2.154   0.032  -1.268  0.00  0.00    +0.006 C 
ATOM     13  C   UNL     1       2.133   1.562  -1.259  0.00  0.00    +0.005 C 
ATOM     14  C   UNL     1       1.417   2.055  -0.000  0.00  0.00    +0.000 C 
ATOM     15  C   UNL     1      -0.019   1.526   0.010  0.00  0.00    +0.002 C 
ATOM     16  C   UNL     1       0.002  -0.004   0.002  0.00  0.00    +0.022 C 
ATOM     17  C   UNL     1       0.718  -0.497  -1.257  0.00  0.00    +0.076 C 
ENDBRANCH   7  17
ENDBRANCH   1   8
BRANCH   4  18
ATOM     18  S   UNL     1      -5.630   1.172  -5.773  0.00  0.00    +0.061 S 
ATOM     19  O   UNL     1      -5.620   2.566  -6.050  0.00  0.00    -0.153 OA
ATOM     20  O   UNL     1      -6.196   0.222  -6.665  0.00  0.00    -0.153 OA
BRANCH  18  21
ATOM     21  C   UNL     1      -6.460   0.972  -4.232  0.00  0.00    +0.107 A 
ATOM     22  C   UNL     1      -6.508   2.021  -3.333  0.00  0.00    +0.032 A 
ATOM     23  C   UNL     1      -7.158   1.872  -2.121  0.00  0.00    +0.049 A 
ATOM     24  C   UNL     1      -7.764   0.668  -1.807  0.00  0.00    +0.142 A 
ATOM     25  C   UNL     1      -7.715  -0.391  -2.713  0.00  0.00    +0.078 A 
ATOM     26  C   UNL     1      -7.067  -0.233  -3.927  0.00  0.00    +0.055 A 
ATOM     27  N   UNL     1      -8.331  -1.606  -2.382  0.00  0.00    -0.280 N 
ATOM     28  C   UNL     1      -9.214  -1.635  -1.360  0.00  0.00    +0.255 C 
ATOM     29  O   UNL     1      -9.737  -2.680  -1.036  0.00  0.00    -0.272 OA
ATOM     30  C   UNL     1      -9.547  -0.362  -0.624  0.00  0.00    +0.325 C 
ATOM     31  O   UNL     1      -8.410   0.504  -0.622  0.00  0.00    -0.481 OA
ATOM     32  H   UNL     1      -8.127  -2.413  -2.879  0.00  0.00    +0.155 HD
ENDBRANCH  18  21
ENDBRANCH   4  18
TORSDOF 4
