REMARK  Name = ZINC09911188
REMARK  12 active torsions:
REMARK  status: ('A' for Active; 'I' for Inactive)
REMARK    1  A    between atoms: C_1  and  C_2
REMARK    2  A    between atoms: C_2  and  C_3
REMARK    3  A    between atoms: C_3  and  C_4
REMARK    4  A    between atoms: C_4  and  C_6
REMARK    5  A    between atoms: C_4  and  N_55
REMARK    6  A    between atoms: C_11  and  C_14
REMARK    7  A    between atoms: C_15  and  C_16
REMARK    8  A    between atoms: C_15  and  N_55
REMARK    9  A    between atoms: C_16  and  C_17
REMARK   10  A    between atoms: C_18  and  C_19
REMARK   11  A    between atoms: C_18  and  N_55
REMARK   12  A    between atoms: N_21  and  C_22
REMARK                            x       y       z     vdW  Elec       q    Type
REMARK                         _______ _______ _______ _____ _____    ______ ____
ROOT
ATOM      1  N   UNL     1       3.955  -4.521   0.035  0.00  0.00    +0.393 N 
ATOM      2  H   UNL     1       4.323  -4.074   0.883  0.00  0.00    -0.080 HD
ENDROOT
BRANCH   1   3
ATOM      3  C   UNL     1       3.942  -5.986   0.231  0.00  0.00    +0.020 C 
BRANCH   3   4
ATOM      4  C   UNL     1       5.145  -6.372   1.051  0.00  0.00    +0.205 C 
ATOM      5  O   UNL     1       5.928  -5.521   1.417  0.00  0.00    -0.277 OA
ATOM      6  N   UNL     1       5.351  -7.663   1.379  0.00  0.00    -0.269 N 
ATOM      7  C   UNL     1       6.465  -8.021   2.138  0.00  0.00    +0.168 A 
ATOM      8  C   UNL     1       7.470  -7.151   2.641  0.00  0.00    +0.091 A 
ATOM      9  C   UNL     1       8.314  -7.976   3.301  0.00  0.00    +0.136 A 
ATOM     10  O   UNL     1       7.817  -9.214   3.176  0.00  0.00    -0.358 OA
ATOM     11  N   UNL     1       6.792  -9.223   2.535  0.00  0.00    -0.063 NA
ATOM     12  C   UNL     1       9.569  -7.579   4.035  0.00  0.00    +0.089 C 
ATOM     13  H   UNL     1       4.725  -8.344   1.086  0.00  0.00    +0.156 HD
ENDBRANCH   3   4
BRANCH   3  14
ATOM     14  C   UNL     1       3.991  -6.705  -1.118  0.00  0.00    -0.006 C 
BRANCH  14  16
ATOM     15  C   UNL     1       2.698  -7.230  -3.190  0.00  0.00    +0.004 C 
ATOM     16  C   UNL     1       2.723  -6.388  -1.913  0.00  0.00    -0.004 C 
ENDBRANCH  14  16
ENDBRANCH   3  14
ENDBRANCH   1   3
BRANCH   1  17
ATOM     17  C   UNL     1       4.825  -4.172  -1.108  0.00  0.00    -0.077 C 
BRANCH  17  18
ATOM     18  C   UNL     1       5.195  -2.691  -1.008  0.00  0.00    -0.022 C 
ATOM     19  C   UNL     1       6.019  -2.287  -2.232  0.00  0.00    +0.002 C 
ENDBRANCH  17  18
ENDBRANCH   1  17
BRANCH   1  20
ATOM     20  C   UNL     1       2.582  -4.031  -0.208  0.00  0.00    +0.020 C 
BRANCH  20  21
ATOM     21  C   UNL     1       1.863  -3.937   1.113  0.00  0.00    +0.201 C 
ATOM     22  O   UNL     1       2.462  -4.147   2.146  0.00  0.00    -0.278 OA
ATOM     23  N   UNL     1       0.553  -3.618   1.147  0.00  0.00    -0.285 N 
ATOM     24  H   UNL     1       0.053  -3.535   0.320  0.00  0.00    +0.155 HD
BRANCH  23  25
ATOM     25  C   UNL     1      -0.085  -3.407   2.376  0.00  0.00    +0.072 A 
ATOM     26  C   UNL     1       0.663  -3.097   3.504  0.00  0.00    +0.029 A 
ATOM     27  C   UNL     1       0.033  -2.888   4.716  0.00  0.00    +0.043 A 
ATOM     28  C   UNL     1      -1.345  -2.988   4.808  0.00  0.00    +0.161 A 
ATOM     29  C   UNL     1      -2.096  -3.297   3.685  0.00  0.00    +0.195 A 
ATOM     30  C   UNL     1      -1.468  -3.507   2.469  0.00  0.00    +0.182 A 
ATOM     31  F   UNL     1      -2.199  -3.808   1.373  0.00  0.00    -0.200 F 
ATOM     32  F   UNL     1      -3.441  -3.389   3.776  0.00  0.00    -0.199 F 
ATOM     33  F   UNL     1      -1.958  -2.783   5.995  0.00  0.00    -0.202 F 
ENDBRANCH  23  25
ENDBRANCH  20  21
ENDBRANCH   1  20
TORSDOF 9
