REMARK  Name = ZINC61407197
REMARK  7 active torsions:
REMARK  status: ('A' for Active; 'I' for Inactive)
REMARK    1  A    between atoms: C_1  and  C_2
REMARK    2  A    between atoms: C_2  and  C_3
REMARK    3  A    between atoms: C_3  and  C_4
REMARK    4  A    between atoms: C_8  and  C_23
REMARK    5  A    between atoms: C_10  and  S_13
REMARK    6  A    between atoms: S_13  and  C_14
REMARK    7  A    between atoms: C_23  and  N_24
REMARK                            x       y       z     vdW  Elec       q    Type
REMARK                         _______ _______ _______ _____ _____    ______ ____
ROOT
ATOM      1  C   UNL     1       0.739  -2.027  -1.265  0.00  0.00    -0.010 C 
ATOM      2  C   UNL     1       1.584  -2.532  -0.094  0.00  0.00    +0.004 C 
ATOM      3  C   UNL     1       1.605  -4.062  -0.103  0.00  0.00    +0.003 C 
ATOM      4  C   UNL     1       2.209  -4.557  -1.419  0.00  0.00    -0.015 C 
ATOM      5  C   UNL     1       1.364  -4.052  -2.590  0.00  0.00    +0.056 C 
ATOM      6  C   UNL     1       1.343  -2.522  -2.581  0.00  0.00    +0.018 C 
ENDROOT
BRANCH   1   7
ATOM      7  C   UNL     1       0.718  -0.497  -1.257  0.00  0.00    +0.003 C 
BRANCH   7   9
ATOM      8  C   UNL     1      -0.019   1.526   0.010  0.00  0.00    +0.004 C 
ATOM      9  C   UNL     1       0.002  -0.004   0.002  0.00  0.00    -0.003 C 
ENDBRANCH   7   9
ENDBRANCH   1   7
BRANCH   5  10
ATOM     10  S   UNL     1       2.080  -4.638  -4.150  0.00  0.00    -0.082 S 
BRANCH  10  11
ATOM     11  C   UNL     1       0.928  -4.108  -5.373  0.00  0.00    +0.196 A 
ATOM     12  N   UNL     1      -0.181  -3.437  -5.160  0.00  0.00    -0.122 NA
ATOM     13  N   UNL     1      -0.787  -3.211  -6.272  0.00  0.00    -0.129 NA
ATOM     14  C   UNL     1      -0.095  -3.729  -7.269  0.00  0.00    +0.162 A 
ATOM     15  N   UNL     1       1.026  -4.313  -6.718  0.00  0.00    -0.278 N 
ATOM     16  C   UNL     1       1.946  -4.934  -7.516  0.00  0.00    +0.095 A 
ATOM     17  C   UNL     1       1.772  -4.980  -8.852  0.00  0.00    +0.018 A 
ATOM     18  C   UNL     1       0.639  -4.390  -9.444  0.00  0.00    +0.005 A 
ATOM     19  C   UNL     1      -0.289  -3.776  -8.664  0.00  0.00    +0.049 A 
ENDBRANCH  10  11
ENDBRANCH   5  10
BRANCH   4  20
ATOM     20  C   UNL     1       2.230  -6.087  -1.427  0.00  0.00    -0.082 C 
BRANCH  20  21
ATOM     21  N   UNL     1       3.137  -6.570  -0.377  0.00  0.00    +0.378 N 
ATOM     22  H   UNL     1       2.816  -6.243   0.522  0.00  0.00    -0.090 HD
ATOM     23  H   UNL     1       3.151  -7.579  -0.383  0.00  0.00    -0.090 HD
ATOM     24  H   UNL     1       4.067  -6.220  -0.549  0.00  0.00    -0.090 HD
ENDBRANCH  20  21
ENDBRANCH   4  20
TORSDOF 6
