REMARK  Name = ZINC22917911
REMARK  8 active torsions:
REMARK  status: ('A' for Active; 'I' for Inactive)
REMARK    1  A    between atoms: C_1  and  C_2
REMARK    2  A    between atoms: C_3  and  C_12
REMARK    3  A    between atoms: C_12  and  C_14
REMARK    4  A    between atoms: C_12  and  N_20
REMARK    5  A    between atoms: N_23  and  C_26
REMARK    6  A    between atoms: C_26  and  C_28
REMARK    7  A    between atoms: C_26  and  C_34
REMARK    8  A    between atoms: C_35  and  C_44
REMARK                            x       y       z     vdW  Elec       q    Type
REMARK                         _______ _______ _______ _____ _____    ______ ____
ROOT
ATOM      1  N   UNL     1       1.336   0.638  -2.729  0.00  0.00    +0.389 N 
ATOM      2  C   UNL     1       1.403   1.016  -4.147  0.00  0.00    -0.062 C 
ATOM      3  C   UNL     1       2.561   1.994  -4.360  0.00  0.00    +0.067 C 
ATOM      4  N   UNL     1       3.819   1.358  -3.945  0.00  0.00    -0.295 NA
ATOM      5  C   UNL     1       3.758   0.951  -2.534  0.00  0.00    +0.067 C 
ATOM      6  C   UNL     1       2.590  -0.018  -2.336  0.00  0.00    -0.062 C 
ATOM      7  H   UNL     1       1.199   1.465  -2.167  0.00  0.00    -0.080 HD
ENDROOT
BRANCH   1   8
ATOM      8  C   UNL     1       0.214  -0.286  -2.522  0.00  0.00    -0.003 C 
BRANCH   8  11
ATOM      9  C   UNL     1      -0.226  -3.151  -1.411  0.00  0.00    +0.063 C 
ATOM     10  C   UNL     1      -0.045  -1.909  -0.577  0.00  0.00    +0.016 A 
ATOM     11  C   UNL     1       0.144  -0.673  -1.067  0.00  0.00    -0.029 A 
ATOM     12  C   UNL     1       0.269   0.228   0.081  0.00  0.00    +0.002 A 
ATOM     13  C   UNL     1       0.474   1.602   0.219  0.00  0.00    +0.010 A 
ATOM     14  C   UNL     1       0.547   2.156   1.466  0.00  0.00    +0.001 A 
ATOM     15  C   UNL     1       0.418   1.363   2.598  0.00  0.00    +0.002 A 
ATOM     16  C   UNL     1       0.216   0.005   2.485  0.00  0.00    +0.026 A 
ATOM     17  C   UNL     1       0.139  -0.580   1.226  0.00  0.00    +0.047 A 
ATOM     18  N   UNL     1      -0.057  -1.872   0.790  0.00  0.00    -0.358 N 
ATOM     19  H   UNL     1      -0.181  -2.642   1.368  0.00  0.00    +0.166 HD
ENDBRANCH   8  11
BRANCH   8  20
ATOM     20  C   UNL     1      -1.073   0.387  -2.925  0.00  0.00    -0.039 A 
ATOM     21  C   UNL     1      -2.059  -0.326  -3.590  0.00  0.00    +0.005 A 
ATOM     22  C   UNL     1      -3.226   0.335  -3.942  0.00  0.00    +0.020 A 
ATOM     23  C   UNL     1      -3.367   1.672  -3.620  0.00  0.00    +0.111 A 
ATOM     24  N   UNL     1      -2.407   2.318  -2.987  0.00  0.00    -0.263 NA
ATOM     25  C   UNL     1      -1.286   1.720  -2.632  0.00  0.00    +0.113 A 
ENDBRANCH   8  20
ENDBRANCH   1   8
BRANCH   4  26
ATOM     26  C   UNL     1       4.963   2.246  -4.187  0.00  0.00    +0.121 C 
BRANCH  26  27
ATOM     27  C   UNL     1       6.233   1.561  -3.750  0.00  0.00    +0.002 A 
ATOM     28  C   UNL     1       6.586   0.292  -4.011  0.00  0.00    +0.019 A 
ATOM     29  N   UNL     1       7.806   0.024  -3.453  0.00  0.00    -0.358 N 
ATOM     30  H   UNL     1       8.268  -0.828  -3.507  0.00  0.00    +0.166 HD
ATOM     31  C   UNL     1       8.280   1.141  -2.803  0.00  0.00    +0.047 A 
ATOM     32  C   UNL     1       7.318   2.155  -2.966  0.00  0.00    +0.005 A 
ATOM     33  C   UNL     1       7.536   3.417  -2.411  0.00  0.00    +0.010 A 
ATOM     34  C   UNL     1       8.685   3.663  -1.713  0.00  0.00    +0.001 A 
ATOM     35  C   UNL     1       9.639   2.667  -1.553  0.00  0.00    +0.002 A 
ATOM     36  C   UNL     1       9.440   1.411  -2.085  0.00  0.00    +0.026 A 
ATOM     37  C   UNL     1       5.760  -0.690  -4.801  0.00  0.00    +0.063 C 
ENDBRANCH  26  27
BRANCH  26  38
ATOM     38  C   UNL     1       5.047   2.568  -5.657  0.00  0.00    -0.008 A 
ATOM     39  C   UNL     1       5.378   3.848  -6.078  0.00  0.00    +0.008 A 
ATOM     40  C   UNL     1       5.443   4.098  -7.439  0.00  0.00    +0.020 A 
ATOM     41  C   UNL     1       5.177   3.072  -8.326  0.00  0.00    +0.111 A 
ATOM     42  N   UNL     1       4.865   1.867  -7.890  0.00  0.00    -0.263 NA
ATOM     43  C   UNL     1       4.800   1.591  -6.602  0.00  0.00    +0.116 A 
ENDBRANCH  26  38
ENDBRANCH   4  26
TORSDOF 6
