REMARK  Name = ZINC10415296
REMARK  8 active torsions:
REMARK  status: ('A' for Active; 'I' for Inactive)
REMARK    1  A    between atoms: C_1  and  C_2
REMARK    2  A    between atoms: C_2  and  C_4
REMARK    3  A    between atoms: C_2  and  N_22
REMARK    4  A    between atoms: C_4  and  C_5
REMARK    5  A    between atoms: N_7  and  N_8
REMARK    6  A    between atoms: C_9  and  C_11
REMARK    7  A    between atoms: C_11  and  C_12
REMARK    8  A    between atoms: C_23  and  C_25
REMARK                            x       y       z     vdW  Elec       q    Type
REMARK                         _______ _______ _______ _____ _____    ______ ____
ROOT
ATOM      1  C   UNL     1       6.876   0.455  -2.124  0.00  0.00    +0.231 C 
ATOM      2  O   UNL     1       5.879  -0.030  -2.616  0.00  0.00    -0.274 OA
ATOM      3  N   UNL     1       7.689   1.227  -2.873  0.00  0.00    -0.234 N 
ATOM      4  H   UNL     1       8.486   1.615  -2.480  0.00  0.00    +0.173 HD
ENDROOT
BRANCH   3   5
ATOM      5  N   UNL     1       7.382   1.469  -4.218  0.00  0.00    -0.234 N 
ATOM      6  C   UNL     1       8.194   2.242  -4.966  0.00  0.00    +0.233 C 
ATOM      7  O   UNL     1       9.191   2.727  -4.475  0.00  0.00    -0.274 OA
ATOM      8  H   UNL     1       6.584   1.081  -4.611  0.00  0.00    +0.173 HD
BRANCH   6   9
ATOM      9  C   UNL     1       7.864   2.502  -6.414  0.00  0.00    +0.134 C 
BRANCH   9  10
ATOM     10  C   UNL     1       8.922   3.387  -7.019  0.00  0.00    -0.014 A 
ATOM     11  C   UNL     1       8.872   4.723  -7.143  0.00  0.00    +0.087 A 
ATOM     12  N   UNL     1      10.015   5.180  -7.739  0.00  0.00    -0.360 N 
ATOM     13  H   UNL     1      10.210   6.110  -7.932  0.00  0.00    +0.165 HD
ATOM     14  C   UNL     1      10.847   4.122  -8.029  0.00  0.00    +0.047 A 
ATOM     15  C   UNL     1      10.199   2.952  -7.591  0.00  0.00    +0.003 A 
ATOM     16  C   UNL     1      10.815   1.711  -7.756  0.00  0.00    +0.010 A 
ATOM     17  C   UNL     1      12.047   1.637  -8.344  0.00  0.00    +0.001 A 
ATOM     18  C   UNL     1      12.690   2.788  -8.778  0.00  0.00    +0.002 A 
ATOM     19  C   UNL     1      12.100   4.024  -8.624  0.00  0.00    +0.026 A 
ENDBRANCH   9  10
ENDBRANCH   6   9
ENDBRANCH   3   5
BRANCH   1  20
ATOM     20  C   UNL     1       7.207   0.195  -0.677  0.00  0.00    +0.119 C 
BRANCH  20  22
ATOM     21  C   UNL     1       6.531  -1.070   1.368  0.00  0.00    +0.028 C 
ATOM     22  C   UNL     1       6.132  -0.704  -0.063  0.00  0.00    +0.079 C 
BRANCH  22  23
ATOM     23  N   UNL     1       4.852   0.008  -0.046  0.00  0.00    -0.308 N 
ATOM     24  C   UNL     1       3.696  -0.685  -0.038  0.00  0.00    +0.244 C 
ATOM     25  O   UNL     1       3.715  -1.900  -0.046  0.00  0.00    -0.270 OA
ATOM     26  H   UNL     1       4.836   0.978  -0.040  0.00  0.00    +0.149 HD
BRANCH  24  27
ATOM     27  C   UNL     1       2.403   0.034  -0.021  0.00  0.00    +0.037 A 
ATOM     28  C   UNL     1       1.204  -0.681  -0.013  0.00  0.00    +0.013 A 
ATOM     29  C   UNL     1       0.002  -0.004   0.002  0.00  0.00    +0.001 A 
ATOM     30  C   UNL     1      -0.017   1.379   0.010  0.00  0.00    +0.000 A 
ATOM     31  C   UNL     1       1.168   2.094   0.002  0.00  0.00    +0.001 A 
ATOM     32  C   UNL     1       2.377   1.429  -0.013  0.00  0.00    +0.013 A 
ENDBRANCH  24  27
ENDBRANCH  22  23
ENDBRANCH  20  22
ENDBRANCH   1  20
TORSDOF 7
