REMARK  Name = ZINC11972087
REMARK  9 active torsions:
REMARK  status: ('A' for Active; 'I' for Inactive)
REMARK    1  A    between atoms: C_1  and  C_2
REMARK    2  A    between atoms: C_3  and  C_4
REMARK    3  A    between atoms: C_4  and  N_5
REMARK    4  A    between atoms: C_8  and  C_12
REMARK    5  A    between atoms: C_8  and  C_20
REMARK    6  A    between atoms: C_12  and  C_13
REMARK    7  A    between atoms: C_13  and  C_14
REMARK    8  A    between atoms: C_25  and  C_26
REMARK    9  A    between atoms: C_25  and  N_69
REMARK                            x       y       z     vdW  Elec       q    Type
REMARK                         _______ _______ _______ _____ _____    ______ ____
ROOT
ATOM      1  N   UNL     1      -3.829  -2.842   6.024  0.00  0.00    -0.212 N 
ATOM      2  C   UNL     1      -2.950  -1.876   5.680  0.00  0.00    +0.248 C 
ATOM      3  O   UNL     1      -1.742  -1.915   5.772  0.00  0.00    -0.273 OA
ATOM      4  C   UNL     1      -3.792  -0.732   5.151  0.00  0.00    +0.115 C 
ATOM      5  N   UNL     1      -5.173  -1.229   5.272  0.00  0.00    -0.285 N 
ATOM      6  C   UNL     1      -5.092  -2.468   5.791  0.00  0.00    +0.310 C 
ATOM      7  O   UNL     1      -6.059  -3.168   6.022  0.00  0.00    -0.252 OA
ATOM      8  H   UNL     1      -5.983  -0.755   5.026  0.00  0.00    +0.151 HD
ENDROOT
BRANCH   4   9
ATOM      9  C   UNL     1      -3.450  -0.444   3.688  0.00  0.00    +0.018 C 
ATOM     10  C   UNL     1      -3.535  -1.740   2.877  0.00  0.00    -0.013 C 
ATOM     11  C   UNL     1      -3.133  -1.457   1.428  0.00  0.00    -0.078 C 
ATOM     12  C   UNL     1      -1.669   0.344   2.125  0.00  0.00    -0.078 C 
ATOM     13  C   UNL     1      -2.027   0.114   3.595  0.00  0.00    -0.013 C 
ATOM     14  N   UNL     1      -1.746  -0.946   1.406  0.00  0.00    +0.383 N 
ATOM     15  H   UNL     1      -1.133  -1.625   1.873  0.00  0.00    -0.081 HD
BRANCH  14  16
ATOM     16  C   UNL     1      -1.294  -0.772   0.010  0.00  0.00    -0.038 C 
BRANCH  16  17
ATOM     17  C   UNL     1       0.002  -0.004   0.002  0.00  0.00    +0.001 A 
ATOM     18  C   UNL     1       1.183  -0.671  -0.013  0.00  0.00    +0.017 A 
ATOM     19  C   UNL     1       2.424   0.105  -0.021  0.00  0.00    -0.001 A 
ATOM     20  C   UNL     1       3.672  -0.527  -0.036  0.00  0.00    +0.010 A 
ATOM     21  C   UNL     1       4.812   0.226  -0.044  0.00  0.00    +0.001 A 
ATOM     22  C   UNL     1       4.743   1.613  -0.035  0.00  0.00    +0.002 A 
ATOM     23  C   UNL     1       3.525   2.256  -0.019  0.00  0.00    +0.026 A 
ATOM     24  C   UNL     1       2.350   1.511  -0.012  0.00  0.00    +0.049 A 
ATOM     25  N   UNL     1       1.118   2.128   0.003  0.00  0.00    -0.322 N 
ATOM     26  H   UNL     1       1.069   3.097   0.008  0.00  0.00    +0.169 HD
ATOM     27  C   UNL     1      -0.017   1.407   0.010  0.00  0.00    +0.251 A 
ATOM     28  O   UNL     1      -1.089   1.987   0.018  0.00  0.00    -0.268 OA
ENDBRANCH  16  17
ENDBRANCH  14  16
ENDBRANCH   4   9
BRANCH   1  29
ATOM     29  C   UNL     1      -3.447  -4.140   6.586  0.00  0.00    +0.206 C 
BRANCH  29  32
ATOM     30  C   UNL     1      -2.868  -6.840   3.531  0.00  0.00    +0.106 C 
ATOM     31  C   UNL     1      -3.075  -5.875   4.623  0.00  0.00    -0.104 C 
ATOM     32  C   UNL     1      -3.240  -5.106   5.494  0.00  0.00    -0.083 C 
ENDBRANCH  29  32
ENDBRANCH   1  29
BRANCH   4  33
ATOM     33  C   UNL     1      -3.594   0.522   6.005  0.00  0.00    +0.040 C 
BRANCH  33  34
ATOM     34  C   UNL     1      -3.942   0.206   7.462  0.00  0.00    +0.038 C 
BRANCH  34  35
ATOM     35  C   UNL     1      -3.747   1.441   8.303  0.00  0.00    -0.047 A 
ATOM     36  C   UNL     1      -2.523   1.687   8.897  0.00  0.00    +0.003 A 
ATOM     37  C   UNL     1      -2.344   2.822   9.665  0.00  0.00    +0.000 A 
ATOM     38  C   UNL     1      -3.390   3.706   9.848  0.00  0.00    +0.000 A 
ATOM     39  C   UNL     1      -4.616   3.458   9.258  0.00  0.00    +0.000 A 
ATOM     40  C   UNL     1      -4.794   2.325   8.486  0.00  0.00    +0.003 A 
ENDBRANCH  34  35
ENDBRANCH  33  34
ENDBRANCH   4  33
TORSDOF 8
