REMARK  Name = ZINC03877467
REMARK  10 active torsions:
REMARK  status: ('A' for Active; 'I' for Inactive)
REMARK    1  A    between atoms: C_4  and  N_7
REMARK    2  A    between atoms: N_7  and  C_8
REMARK    3  A    between atoms: C_8  and  N_10
REMARK    4  A    between atoms: N_10  and  C_11
REMARK    5  A    between atoms: C_14  and  C_17
REMARK    6  A    between atoms: C_17  and  C_18
REMARK    7  A    between atoms: C_21  and  N_24
REMARK    8  A    between atoms: N_24  and  C_25
REMARK    9  A    between atoms: C_25  and  N_27
REMARK   10  A    between atoms: N_27  and  C_28
REMARK                            x       y       z     vdW  Elec       q    Type
REMARK                         _______ _______ _______ _____ _____    ______ ____
ROOT
ATOM      1  C   UNL     1       2.349   4.665  -3.182  0.00  0.00    +0.070 C 
ENDROOT
BRANCH   1   5
ATOM      2  C   UNL     1       1.128   0.968  -1.420  0.00  0.00    +0.033 A 
ATOM      3  C   UNL     1       0.204   1.987  -1.609  0.00  0.00    +0.023 A 
ATOM      4  C   UNL     1       0.602   3.181  -2.179  0.00  0.00    +0.006 A 
ATOM      5  C   UNL     1       1.919   3.362  -2.561  0.00  0.00    -0.043 A 
ATOM      6  C   UNL     1       2.841   2.349  -2.374  0.00  0.00    +0.006 A 
ATOM      7  C   UNL     1       2.450   1.153  -1.805  0.00  0.00    +0.023 A 
BRANCH   2   8
ATOM      8  N   UNL     1       0.729  -0.242  -0.843  0.00  0.00    -0.297 N 
ATOM      9  H   UNL     1       0.197  -0.240  -0.032  0.00  0.00    +0.154 HD
BRANCH   8  10
ATOM     10  C   UNL     1       1.083  -1.411  -1.414  0.00  0.00    +0.139 C 
ATOM     11  S   UNL     1       2.118  -1.417  -2.778  0.00  0.00    -0.018 S 
BRANCH  10  12
ATOM     12  N   UNL     1       0.623  -2.573  -0.911  0.00  0.00    -0.297 N 
ATOM     13  H   UNL     1      -0.009  -2.567  -0.176  0.00  0.00    +0.154 HD
BRANCH  12  17
ATOM     14  C   UNL     1       1.918  -6.193  -2.515  0.00  0.00    +0.000 A 
ATOM     15  C   UNL     1       1.816  -6.043  -1.144  0.00  0.00    +0.002 A 
ATOM     16  C   UNL     1       1.387  -4.844  -0.609  0.00  0.00    +0.023 A 
ATOM     17  C   UNL     1       1.058  -3.789  -1.450  0.00  0.00    +0.033 A 
ATOM     18  C   UNL     1       1.156  -3.945  -2.826  0.00  0.00    +0.023 A 
ATOM     19  C   UNL     1       1.591  -5.144  -3.355  0.00  0.00    +0.002 A 
ENDBRANCH  12  17
ENDBRANCH  10  12
ENDBRANCH   8  10
ENDBRANCH   2   8
ENDBRANCH   1   5
BRANCH   1  20
ATOM     20  C   UNL     1       2.796   5.614  -2.100  0.00  0.00    -0.043 A 
ATOM     21  C   UNL     1       1.882   6.469  -1.511  0.00  0.00    +0.006 A 
ATOM     22  C   UNL     1       2.288   7.336  -0.515  0.00  0.00    +0.023 A 
ATOM     23  C   UNL     1       3.617   7.356  -0.113  0.00  0.00    +0.033 A 
ATOM     24  C   UNL     1       4.533   6.500  -0.710  0.00  0.00    +0.023 A 
ATOM     25  C   UNL     1       4.120   5.632  -1.702  0.00  0.00    +0.006 A 
BRANCH  23  26
ATOM     26  N   UNL     1       4.032   8.236   0.892  0.00  0.00    -0.297 N 
ATOM     27  H   UNL     1       4.636   7.930   1.586  0.00  0.00    +0.154 HD
BRANCH  26  28
ATOM     28  C   UNL     1       3.591   9.510   0.896  0.00  0.00    +0.139 C 
ATOM     29  S   UNL     1       2.444  10.023  -0.267  0.00  0.00    -0.018 S 
BRANCH  28  30
ATOM     30  N   UNL     1       4.054  10.380   1.815  0.00  0.00    -0.297 N 
ATOM     31  H   UNL     1       4.638  10.071   2.525  0.00  0.00    +0.154 HD
BRANCH  30  32
ATOM     32  C   UNL     1       3.692  11.730   1.746  0.00  0.00    +0.033 A 
ATOM     33  C   UNL     1       3.629  12.371   0.516  0.00  0.00    +0.023 A 
ATOM     34  C   UNL     1       3.266  13.702   0.450  0.00  0.00    +0.002 A 
ATOM     35  C   UNL     1       2.975  14.399   1.609  0.00  0.00    +0.000 A 
ATOM     36  C   UNL     1       3.042  13.764   2.836  0.00  0.00    +0.002 A 
ATOM     37  C   UNL     1       3.399  12.432   2.908  0.00  0.00    +0.023 A 
ENDBRANCH  30  32
ENDBRANCH  28  30
ENDBRANCH  26  28
ENDBRANCH  23  26
ENDBRANCH   1  20
TORSDOF 10
