REMARK  Name = ZINC14524429
REMARK  7 active torsions:
REMARK  status: ('A' for Active; 'I' for Inactive)
REMARK    1  A    between atoms: C_3  and  N_25
REMARK    2  A    between atoms: C_4  and  N_22
REMARK    3  A    between atoms: C_6  and  C_7
REMARK    4  A    between atoms: C_7  and  N_9
REMARK    5  A    between atoms: C_12  and  C_15
REMARK    6  A    between atoms: C_15  and  N_16
REMARK    7  A    between atoms: N_25  and  C_26
REMARK                            x       y       z     vdW  Elec       q    Type
REMARK                         _______ _______ _______ _____ _____    ______ ____
ROOT
ATOM      1  C   UNL     1      -1.109  -1.004   0.067  0.00  0.00    +0.270 C 
ATOM      2  O   UNL     1      -0.969  -2.216   0.071  0.00  0.00    -0.268 OA
ENDROOT
BRANCH   1   3
ATOM      3  N   UNL     1      -2.334  -0.474   0.096  0.00  0.00    -0.152 NA
ATOM      4  C   UNL     1      -3.403  -1.268   0.130  0.00  0.00    +0.163 A 
ATOM      5  N   UNL     1      -4.718  -0.916   0.157  0.00  0.00    -0.341 N 
ATOM      6  C   UNL     1      -5.659  -1.898   0.190  0.00  0.00    +0.008 A 
ATOM      7  C   UNL     1      -5.225  -3.163   0.193  0.00  0.00    +0.067 A 
ATOM      8  S   UNL     1      -3.456  -2.949   0.143  0.00  0.00    -0.061 S 
ATOM      9  H   UNL     1      -4.979   0.018   0.153  0.00  0.00    +0.167 HD
BRANCH   6  10
ATOM     10  C   UNL     1      -7.130  -1.573   0.221  0.00  0.00    -0.024 C 
BRANCH  10  11
ATOM     11  N   UNL     1      -7.452  -0.883   1.477  0.00  0.00    +0.383 N 
ATOM     12  C   UNL     1      -7.222  -1.792   2.606  0.00  0.00    -0.078 C 
ATOM     13  C   UNL     1      -7.479  -1.054   3.921  0.00  0.00    -0.019 C 
ATOM     14  C   UNL     1      -8.928  -0.559   3.949  0.00  0.00    -0.004 C 
ATOM     15  C   UNL     1      -9.177   0.329   2.726  0.00  0.00    -0.019 C 
ATOM     16  C   UNL     1      -8.858  -0.462   1.455  0.00  0.00    -0.078 C 
ATOM     17  H   UNL     1      -6.860  -0.072   1.575  0.00  0.00    -0.081 HD
ENDBRANCH  10  11
ENDBRANCH   6  10
ENDBRANCH   1   3
BRANCH   1  23
ATOM     18  C   UNL     1      -0.082   1.264   0.023  0.00  0.00    +0.015 A 
ATOM     19  C   UNL     1       1.025   2.083  -0.012  0.00  0.00    +0.026 A 
ATOM     20  C   UNL     1       2.301   1.529  -0.042  0.00  0.00    +0.058 A 
ATOM     21  C   UNL     1       2.463   0.147  -0.036  0.00  0.00    +0.148 A 
ATOM     22  C   UNL     1       1.360  -0.676  -0.001  0.00  0.00    +0.047 A 
ATOM     23  C   UNL     1       0.078  -0.123   0.029  0.00  0.00    +0.041 A 
BRANCH  21  24
ATOM     24  N   UNL     1       3.822  -0.439  -0.069  0.00  0.00    +0.058 N 
ATOM     25  O   UNL     1       3.962  -1.635  -0.176  0.00  0.00    -0.126 OA
ATOM     26  O   UNL     1       4.792   0.279   0.012  0.00  0.00    -0.126 OA
ENDBRANCH  21  24
BRANCH  20  27
ATOM     27  N   UNL     1       3.418   2.359  -0.078  0.00  0.00    -0.339 N 
ATOM     28  H   UNL     1       4.308   1.978  -0.015  0.00  0.00    +0.146 HD
BRANCH  27  29
ATOM     29  C   UNL     1       3.250   3.808  -0.210  0.00  0.00    +0.071 C 
ATOM     30  C   UNL     1       4.092   4.524  -1.268  0.00  0.00    +0.024 C 
ATOM     31  C   UNL     1       4.420   4.697   0.216  0.00  0.00    +0.024 C 
ENDBRANCH  27  29
ENDBRANCH  20  27
ENDBRANCH   1  23
TORSDOF 7
