REMARK  Name = ZINC18524623
REMARK  10 active torsions:
REMARK  status: ('A' for Active; 'I' for Inactive)
REMARK    1  A    between atoms: C_1  and  C_2
REMARK    2  A    between atoms: C_2  and  C_3
REMARK    3  A    between atoms: C_2  and  C_4
REMARK    4  A    between atoms: C_4  and  C_6
REMARK    5  A    between atoms: C_4  and  N_17
REMARK    6  A    between atoms: C_18  and  C_20
REMARK    7  A    between atoms: C_20  and  S_21
REMARK    8  A    between atoms: S_21  and  C_22
REMARK    9  A    between atoms: C_25  and  C_28
REMARK   10  A    between atoms: N_26  and  N_27
REMARK                            x       y       z     vdW  Elec       q    Type
REMARK                         _______ _______ _______ _____ _____    ______ ____
ROOT
ATOM      1  N   UNL     1       3.752   3.605   1.060  0.00  0.00    -0.308 N 
ATOM      2  C   UNL     1       2.458   3.272   0.880  0.00  0.00    +0.224 C 
ATOM      3  O   UNL     1       1.601   4.129   0.917  0.00  0.00    -0.275 OA
ATOM      4  H   UNL     1       4.437   2.919   1.030  0.00  0.00    +0.149 HD
ENDROOT
BRANCH   1   5
ATOM      5  C   UNL     1       4.122   5.002   1.299  0.00  0.00    +0.106 C 
BRANCH   5   6
ATOM      6  C   UNL     1       5.429   5.054   2.049  0.00  0.00    -0.023 A 
ATOM      7  C   UNL     1       6.444   4.173   1.726  0.00  0.00    +0.009 A 
ATOM      8  C   UNL     1       7.646   4.214   2.410  0.00  0.00    +0.050 A 
ATOM      9  C   UNL     1       7.828   5.142   3.421  0.00  0.00    +0.162 A 
ATOM     10  C   UNL     1       6.809   6.026   3.745  0.00  0.00    +0.162 A 
ATOM     11  C   UNL     1       5.610   5.986   3.055  0.00  0.00    +0.055 A 
ATOM     12  O   UNL     1       6.999   6.937   4.744  0.00  0.00    -0.488 OA
ATOM     13  C   UNL     1       7.952   7.968   4.476  0.00  0.00    +0.232 C 
ATOM     14  C   UNL     1       9.362   7.495   4.792  0.00  0.00    +0.082 C 
ATOM     15  C   UNL     1       9.807   6.357   3.886  0.00  0.00    +0.232 C 
ATOM     16  O   UNL     1       9.008   5.192   4.105  0.00  0.00    -0.488 OA
ENDBRANCH   5   6
BRANCH   5  18
ATOM     17  C   UNL     1       2.948   5.674  -0.801  0.00  0.00    +0.009 C 
ATOM     18  C   UNL     1       4.274   5.726  -0.040  0.00  0.00    +0.008 C 
ATOM     19  C   UNL     1       4.661   7.185   0.210  0.00  0.00    +0.009 C 
ENDBRANCH   5  18
ENDBRANCH   1   5
BRANCH   2  20
ATOM     20  C   UNL     1       2.077   1.835   0.634  0.00  0.00    +0.173 C 
BRANCH  20  21
ATOM     21  S   UNL     1       0.282   1.713   0.434  0.00  0.00    -0.075 S 
BRANCH  21  22
ATOM     22  C   UNL     1       0.121  -0.021   0.167  0.00  0.00    +0.209 A 
ATOM     23  N   UNL     1       1.099  -0.899   0.134  0.00  0.00    -0.121 NA
ATOM     24  N   UNL     1       0.629  -2.076  -0.079  0.00  0.00    -0.127 NA
ATOM     25  C   UNL     1      -0.677  -2.021  -0.203  0.00  0.00    +0.182 A 
ATOM     26  N   UNL     1      -1.042  -0.703  -0.049  0.00  0.00    -0.224 N 
BRANCH  25  27
ATOM     27  C   UNL     1      -1.584  -3.160  -0.460  0.00  0.00    +0.021 A 
ATOM     28  C   UNL     1      -1.143  -4.467  -0.251  0.00  0.00    +0.014 A 
ATOM     29  C   UNL     1      -1.994  -5.526  -0.488  0.00  0.00    +0.039 A 
ATOM     30  C   UNL     1      -3.282  -5.294  -0.944  0.00  0.00    +0.123 A 
ATOM     31  C   UNL     1      -3.724  -3.998  -1.158  0.00  0.00    +0.039 A 
ATOM     32  C   UNL     1      -2.882  -2.932  -0.919  0.00  0.00    +0.014 A 
ATOM     33  F   UNL     1      -4.111  -6.335  -1.180  0.00  0.00    -0.205 F 
ENDBRANCH  25  27
BRANCH  26  34
ATOM     34  N   UNL     1      -2.305  -0.185  -0.102  0.00  0.00    -0.295 N 
ATOM     35  H   UNL     1      -2.580   0.001  -1.054  0.00  0.00    +0.163 HD
ATOM     36  H   UNL     1      -2.966  -0.798   0.352  0.00  0.00    +0.163 HD
ENDBRANCH  26  34
ENDBRANCH  21  22
ENDBRANCH  20  21
ENDBRANCH   2  20
TORSDOF 8
