REMARK  Name = ZINC59892382
REMARK  12 active torsions:
REMARK  status: ('A' for Active; 'I' for Inactive)
REMARK    1  A    between atoms: C_1  and  C_2
REMARK    2  A    between atoms: C_2  and  C_3
REMARK    3  A    between atoms: C_2  and  C_4
REMARK    4  A    between atoms: C_4  and  C_5
REMARK    5  A    between atoms: C_5  and  C_34
REMARK    6  A    between atoms: N_6  and  N_7
REMARK    7  A    between atoms: C_10  and  S_13
REMARK    8  A    between atoms: S_13  and  C_14
REMARK    9  A    between atoms: C_14  and  C_15
REMARK   10  A    between atoms: N_17  and  C_18
REMARK   11  A    between atoms: C_21  and  S_24
REMARK   12  A    between atoms: S_24  and  N_27
REMARK                            x       y       z     vdW  Elec       q    Type
REMARK                         _______ _______ _______ _____ _____    ______ ____
ROOT
ATOM      1  C   UNL     1      -4.600  -7.257   7.165  0.00  0.00    +0.227 C 
ATOM      2  O   UNL     1      -4.826  -6.232   7.772  0.00  0.00    -0.275 OA
ATOM      3  N   UNL     1      -4.867  -8.450   7.734  0.00  0.00    -0.285 N 
ATOM      4  H   UNL     1      -4.750  -9.267   7.225  0.00  0.00    +0.155 HD
ENDROOT
BRANCH   3   5
ATOM      5  C   UNL     1      -5.312  -8.508   9.059  0.00  0.00    +0.034 A 
ATOM      6  C   UNL     1      -4.918  -9.557   9.880  0.00  0.00    +0.025 A 
ATOM      7  C   UNL     1      -5.360  -9.613  11.187  0.00  0.00    +0.030 A 
ATOM      8  C   UNL     1      -6.192  -8.625  11.680  0.00  0.00    +0.106 A 
ATOM      9  C   UNL     1      -6.586  -7.579  10.865  0.00  0.00    +0.030 A 
ATOM     10  C   UNL     1      -6.144  -7.515   9.559  0.00  0.00    +0.025 A 
BRANCH   8  11
ATOM     11  S   UNL     1      -6.753  -8.699  13.348  0.00  0.00    +0.061 S 
ATOM     12  O   UNL     1      -7.959  -7.949  13.405  0.00  0.00    -0.153 OA
ATOM     13  O   UNL     1      -6.685 -10.063  13.740  0.00  0.00    -0.153 OA
BRANCH  11  14
ATOM     14  N   UNL     1      -5.646  -7.885  14.273  0.00  0.00    -0.177 NA
ATOM     15  C   UNL     1      -4.531  -8.620  14.826  0.00  0.00    +0.109 C 
ATOM     16  C   UNL     1      -4.920  -9.191  16.212  0.00  0.00    +0.017 C 
ATOM     17  C   UNL     1      -5.016  -8.108  17.202  0.00  0.00    +0.001 C 
ATOM     18  C   UNL     1      -6.098  -7.076  16.902  0.00  0.00    +0.001 C 
ATOM     19  C   UNL     1      -5.549  -6.036  15.957  0.00  0.00    +0.017 C 
ATOM     20  C   UNL     1      -5.836  -6.438  14.495  0.00  0.00    +0.109 C 
ENDBRANCH  11  14
ENDBRANCH   8  11
ENDBRANCH   3   5
BRANCH   1  21
ATOM     21  C   UNL     1      -4.022  -7.198   5.774  0.00  0.00    +0.173 C 
BRANCH  21  22
ATOM     22  S   UNL     1      -3.779  -5.466   5.294  0.00  0.00    -0.075 S 
BRANCH  22  26
ATOM     23  N   UNL     1      -1.844  -4.163   0.710  0.00  0.00    -0.205 N 
ATOM     24  C   UNL     1      -2.296  -4.954   1.751  0.00  0.00    +0.232 A 
ATOM     25  N   UNL     1      -2.763  -4.523   2.904  0.00  0.00    -0.186 NA
ATOM     26  C   UNL     1      -3.107  -5.566   3.668  0.00  0.00    +0.211 A 
ATOM     27  N   UNL     1      -2.862  -6.674   3.010  0.00  0.00    -0.144 NA
ATOM     28  N   UNL     1      -2.341  -6.303   1.761  0.00  0.00    -0.245 N 
ATOM     29  H   UNL     1      -1.520  -4.574  -0.107  0.00  0.00    +0.177 HD
ATOM     30  H   UNL     1      -2.065  -6.898   1.047  0.00  0.00    +0.192 HD
BRANCH  23  32
ATOM     31  C   UNL     1      -1.435  -2.035  -0.128  0.00  0.00    +0.034 C 
ATOM     32  N   UNL     1      -1.853  -2.767   0.835  0.00  0.00    -0.189 NA
ATOM     33  C   UNL     1      -0.932  -2.674  -1.397  0.00  0.00    +0.062 C 
BRANCH  31  34
ATOM     34  C   UNL     1      -1.445  -0.534   0.007  0.00  0.00    +0.055 C 
BRANCH  34  36
ATOM     35  C   UNL     1      -0.022   1.519  -0.000  0.00  0.00    +0.007 C 
ATOM     36  C   UNL     1      -0.008  -0.011  -0.012  0.00  0.00    -0.012 C 
ATOM     37  C   UNL     1       0.737  -0.523   1.223  0.00  0.00    +0.007 C 
ENDBRANCH  34  36
ENDBRANCH  31  34
ENDBRANCH  23  32
ENDBRANCH  22  26
ENDBRANCH  21  22
ENDBRANCH   1  21
TORSDOF 9
