REMARK  Name = ZINC31057020
REMARK  7 active torsions:
REMARK  status: ('A' for Active; 'I' for Inactive)
REMARK    1  A    between atoms: C_4  and  C_7
REMARK    2  A    between atoms: C_7  and  C_8
REMARK    3  A    between atoms: C_7  and  N_14
REMARK    4  A    between atoms: C_15  and  C_17
REMARK    5  A    between atoms: N_22  and  C_24
REMARK    6  A    between atoms: C_24  and  C_25
REMARK    7  A    between atoms: C_27  and  C_30
REMARK                            x       y       z     vdW  Elec       q    Type
REMARK                         _______ _______ _______ _____ _____    ______ ____
ROOT
ATOM      1  C   UNL     1      -2.124   7.519   2.423  0.00  0.00    +0.058 C 
ATOM      2  C   UNL     1      -2.238   6.566   3.617  0.00  0.00    +0.009 C 
ATOM      3  C   UNL     1      -3.302   7.096   4.582  0.00  0.00    -0.018 C 
ATOM      4  C   UNL     1      -2.923   8.511   5.024  0.00  0.00    -0.078 C 
ATOM      5  N   UNL     1      -2.827   9.384   3.847  0.00  0.00    +0.386 N 
ATOM      6  C   UNL     1      -1.779   8.922   2.928  0.00  0.00    -0.065 C 
ATOM      7  H   UNL     1      -3.787   9.334   3.313  0.00  0.00    -0.081 HD
ENDROOT
BRANCH   1   9
ATOM      8  N   UNL     1      -1.127   5.816   0.932  0.00  0.00    -0.304 N 
ATOM      9  C   UNL     1      -1.037   7.036   1.497  0.00  0.00    +0.215 C 
ATOM     10  O   UNL     1      -0.083   7.746   1.260  0.00  0.00    -0.276 OA
ATOM     11  H   UNL     1      -1.992   5.172   1.147  0.00  0.00    +0.150 HD
BRANCH   8  12
ATOM     12  C   UNL     1      -0.070   5.347   0.031  0.00  0.00    +0.134 C 
BRANCH  12  16
ATOM     13  C   UNL     1      -0.013   1.076   0.008  0.00  0.00    +0.000 A 
ATOM     14  C   UNL     1      -1.219   1.751   0.017  0.00  0.00    +0.000 A 
ATOM     15  C   UNL     1      -1.238   3.133   0.030  0.00  0.00    +0.006 A 
ATOM     16  C   UNL     1      -0.050   3.840   0.023  0.00  0.00    -0.023 A 
ATOM     17  C   UNL     1       1.156   3.165   0.008  0.00  0.00    +0.006 A 
ATOM     18  C   UNL     1       1.175   1.783   0.000  0.00  0.00    +0.000 A 
ENDBRANCH  12  16
BRANCH  12  19
ATOM     19  C   UNL     1      -0.337   5.854  -1.363  0.00  0.00    -0.023 A 
ATOM     20  C   UNL     1      -1.628   5.868  -1.858  0.00  0.00    +0.006 A 
ATOM     21  C   UNL     1      -1.873   6.336  -3.135  0.00  0.00    +0.000 A 
ATOM     22  C   UNL     1      -0.827   6.782  -3.921  0.00  0.00    +0.000 A 
ATOM     23  C   UNL     1       0.464   6.763  -3.428  0.00  0.00    +0.000 A 
ATOM     24  C   UNL     1       0.709   6.298  -2.149  0.00  0.00    +0.006 A 
ENDBRANCH  12  19
ENDBRANCH   8  12
ENDBRANCH   1   9
BRANCH   5  25
ATOM     25  C   UNL     1      -2.601  10.780   4.244  0.00  0.00    +0.022 C 
BRANCH  25  26
ATOM     26  C   UNL     1      -3.813  11.297   4.975  0.00  0.00    +0.211 A 
ATOM     27  N   UNL     1      -4.028  11.233   6.265  0.00  0.00    -0.192 NA
ATOM     28  C   UNL     1      -5.231  11.821   6.463  0.00  0.00    +0.209 A 
ATOM     29  N   UNL     1      -5.674  12.196   5.288  0.00  0.00    -0.056 NA
ATOM     30  O   UNL     1      -4.872  11.902   4.428  0.00  0.00    -0.340 OA
BRANCH  28  31
ATOM     31  C   UNL     1      -5.919  12.001   7.758  0.00  0.00    +0.060 A 
ATOM     32  C   UNL     1      -7.130  12.584   8.019  0.00  0.00    +0.019 A 
ATOM     33  C   UNL     1      -7.574  12.635   9.320  0.00  0.00    +0.008 A 
ATOM     34  C   UNL     1      -6.796  12.116  10.306  0.00  0.00    +0.046 A 
ATOM     35  S   UNL     1      -5.383  11.521   9.392  0.00  0.00    -0.093 S 
ENDBRANCH  28  31
ENDBRANCH  25  26
ENDBRANCH   5  25
TORSDOF 7
