REMARK  Name = ZINC40570644
REMARK  4 active torsions:
REMARK  status: ('A' for Active; 'I' for Inactive)
REMARK    1  A    between atoms: C_1  and  C_2
REMARK    2  A    between atoms: C_3  and  C_12
REMARK    3  A    between atoms: C_21  and  C_28
REMARK    4  A    between atoms: C_24  and  C_27
REMARK                            x       y       z     vdW  Elec       q    Type
REMARK                         _______ _______ _______ _____ _____    ______ ____
ROOT
ATOM      1  C   UNL     1      -0.062  -0.128  -2.433  0.00  0.00    +0.030 C 
ATOM      2  C   UNL     1      -0.903   0.909  -2.705  0.00  0.00    +0.079 C 
ATOM      3  C   UNL     1      -1.200   1.572  -3.991  0.00  0.00    +0.276 C 
ATOM      4  O   UNL     1      -0.669   1.221  -5.034  0.00  0.00    -0.267 OA
ATOM      5  N   UNL     1      -2.067   2.561  -3.953  0.00  0.00    -0.154 NA
ATOM      6  C   UNL     1      -2.649   2.951  -2.830  0.00  0.00    +0.154 C 
ATOM      7  S   UNL     1      -1.962   1.843  -1.609  0.00  0.00    -0.052 S 
ATOM      8  N   UNL     1      -3.562   3.957  -2.649  0.00  0.00    -0.307 N 
ATOM      9  C   UNL     1      -4.104   4.258  -1.315  0.00  0.00    +0.138 C 
ATOM     10  C   UNL     1      -3.958   5.763  -1.061  0.00  0.00    +0.133 C 
ATOM     11  O   UNL     1      -4.531   6.482  -2.156  0.00  0.00    -0.371 OA
ATOM     12  C   UNL     1      -3.887   6.250  -3.411  0.00  0.00    +0.133 C 
ATOM     13  C   UNL     1      -4.025   4.773  -3.783  0.00  0.00    +0.138 C 
ATOM     14  C   UNL     1      -4.541   7.115  -4.489  0.00  0.00    +0.039 C 
ATOM     15  C   UNL     1      -2.475   6.118  -0.935  0.00  0.00    +0.039 C 
ENDROOT
BRANCH   1  18
ATOM     16  C   UNL     1       2.465  -0.379  -0.635  0.00  0.00    +0.064 C 
ATOM     17  C   UNL     1       1.071  -0.826  -0.280  0.00  0.00    +0.021 A 
ATOM     18  C   UNL     1      -0.025  -0.705  -1.089  0.00  0.00    +0.004 A 
ATOM     19  C   UNL     1      -1.163  -1.270  -0.339  0.00  0.00    +0.007 A 
ATOM     20  C   UNL     1      -2.517  -1.434  -0.616  0.00  0.00    +0.010 A 
ATOM     21  C   UNL     1      -3.340  -2.016   0.324  0.00  0.00    +0.001 A 
ATOM     22  C   UNL     1      -2.824  -2.436   1.542  0.00  0.00    +0.002 A 
ATOM     23  C   UNL     1      -1.486  -2.279   1.829  0.00  0.00    +0.026 A 
ATOM     24  C   UNL     1      -0.639  -1.695   0.892  0.00  0.00    +0.047 A 
ATOM     25  N   UNL     1       0.713  -1.415   0.888  0.00  0.00    -0.358 N 
ATOM     26  H   UNL     1       1.320  -1.610   1.619  0.00  0.00    +0.166 HD
ENDBRANCH   1  18
TORSDOF 1
