REMARK  Name = ZINC23694824
REMARK  9 active torsions:
REMARK  status: ('A' for Active; 'I' for Inactive)
REMARK    1  A    between atoms: C_1  and  C_2
REMARK    2  A    between atoms: C_2  and  C_3
REMARK    3  A    between atoms: N_9  and  C_10
REMARK    4  A    between atoms: C_10  and  C_11
REMARK    5  A    between atoms: N_13  and  C_14
REMARK    6  A    between atoms: C_16  and  S_22
REMARK    7  A    between atoms: C_18  and  C_21
REMARK    8  A    between atoms: C_19  and  C_20
REMARK    9  A    between atoms: S_22  and  N_25
REMARK                            x       y       z     vdW  Elec       q    Type
REMARK                         _______ _______ _______ _____ _____    ______ ____
ROOT
ATOM      1  C   UNL     1      -1.457   3.442   0.225  0.00  0.00    +0.201 C 
ATOM      2  O   UNL     1      -0.379   3.995   0.172  0.00  0.00    -0.278 OA
ATOM      3  N   UNL     1      -1.526   2.096   0.196  0.00  0.00    -0.287 N 
ATOM      4  H   UNL     1      -2.506   1.596   0.167  0.00  0.00    +0.155 HD
ENDROOT
BRANCH   3   5
ATOM      5  C   UNL     1      -0.352   1.335   0.205  0.00  0.00    +0.038 A 
ATOM      6  C   UNL     1       0.784   1.801  -0.443  0.00  0.00    +0.052 A 
ATOM      7  C   UNL     1       1.940   1.045  -0.438  0.00  0.00    +0.107 A 
ATOM      8  C   UNL     1       1.966  -0.175   0.212  0.00  0.00    +0.032 A 
ATOM      9  C   UNL     1       0.837  -0.643   0.857  0.00  0.00    -0.044 A 
ATOM     10  C   UNL     1      -0.322   0.109   0.856  0.00  0.00    -0.026 A 
ATOM     11  C   UNL     1      -1.553  -0.401   1.560  0.00  0.00    +0.046 C 
ATOM     12  C   UNL     1       0.870  -1.974   1.563  0.00  0.00    +0.044 C 
BRANCH   7  13
ATOM     13  S   UNL     1       3.382   1.636  -1.260  0.00  0.00    +0.056 S 
ATOM     14  O   UNL     1       3.261   3.050  -1.326  0.00  0.00    -0.153 OA
ATOM     15  O   UNL     1       4.491   0.995  -0.645  0.00  0.00    -0.153 OA
BRANCH  13  16
ATOM     16  N   UNL     1       3.319   1.082  -2.819  0.00  0.00    -0.204 NA
ATOM     17  H   UNL     1       4.206   1.431  -3.368  0.00  0.00    +0.144 HD
ATOM     18  H   UNL     1       2.411   1.465  -3.308  0.00  0.00    +0.144 HD
ENDBRANCH  13  16
ENDBRANCH   7  13
ENDBRANCH   3   5
BRANCH   1  19
ATOM     19  C   UNL     1      -2.719   4.259   0.321  0.00  0.00    +0.019 C 
BRANCH  19  25
ATOM     20  C   UNL     1      -1.786   6.015  -1.060  0.00  0.00    -0.068 C 
ATOM     21  C   UNL     1      -1.586   7.528  -1.164  0.00  0.00    -0.015 C 
ATOM     22  C   UNL     1      -0.673   7.997  -0.028  0.00  0.00    -0.003 C 
ATOM     23  C   UNL     1      -1.296   7.601   1.313  0.00  0.00    -0.019 C 
ATOM     24  C   UNL     1      -1.505   6.085   1.346  0.00  0.00    -0.078 C 
ATOM     25  N   UNL     1      -2.385   5.687   0.240  0.00  0.00    +0.387 N 
ATOM     26  H   UNL     1      -3.320   6.261   0.333  0.00  0.00    -0.081 HD
BRANCH  20  28
ATOM     27  C   UNL     1      -2.034   5.769  -3.534  0.00  0.00    +0.002 C 
ATOM     28  C   UNL     1      -2.715   5.545  -2.182  0.00  0.00    -0.019 C 
ENDBRANCH  20  28
ENDBRANCH  19  25
ENDBRANCH   1  19
TORSDOF 6
