REMARK  Name = ZINC10341237
REMARK  4 active torsions:
REMARK  status: ('A' for Active; 'I' for Inactive)
REMARK    1  A    between atoms: C_9  and  C_10
REMARK    2  A    between atoms: C_9  and  N_43
REMARK    3  A    between atoms: N_12  and  C_13
REMARK    4  A    between atoms: C_14  and  C_21
REMARK                            x       y       z     vdW  Elec       q    Type
REMARK                         _______ _______ _______ _____ _____    ______ ____
ROOT
ATOM      1  C   UNL     1      -3.054  -2.639  -1.474  0.00  0.00    +0.201 C 
ATOM      2  O   UNL     1      -2.810  -1.660  -2.147  0.00  0.00    -0.278 OA
ATOM      3  N   UNL     1      -4.212  -3.306  -1.648  0.00  0.00    -0.281 N 
ATOM      4  H   UNL     1      -4.407  -4.089  -1.110  0.00  0.00    +0.155 HD
ENDROOT
BRANCH   3   5
ATOM      5  C   UNL     1      -5.125  -2.873  -2.598  0.00  0.00    +0.084 A 
ATOM      6  C   UNL     1      -6.353  -3.422  -2.924  0.00  0.00    +0.068 A 
ATOM      7  C   UNL     1      -7.133  -2.764  -3.971  0.00  0.00    -0.023 A 
ATOM      8  C   UNL     1      -6.554  -1.680  -4.519  0.00  0.00    -0.004 A 
ATOM      9  S   UNL     1      -5.003  -1.518  -3.668  0.00  0.00    -0.077 S 
ATOM     10  C   UNL     1      -7.413  -1.060  -5.587  0.00  0.00    +0.043 C 
ATOM     11  C   UNL     1      -8.820  -1.651  -5.346  0.00  0.00    +0.010 C 
ATOM     12  C   UNL     1      -8.486  -2.985  -4.649  0.00  0.00    +0.037 C 
BRANCH   6  13
ATOM     13  C   UNL     1      -6.855  -4.619  -2.242  0.00  0.00    +0.244 C 
ATOM     14  O   UNL     1      -7.528  -4.508  -1.234  0.00  0.00    -0.270 OA
ATOM     15  N   UNL     1      -6.570  -5.843  -2.731  0.00  0.00    -0.325 N 
ATOM     16  H   UNL     1      -6.033  -5.931  -3.534  0.00  0.00    +0.145 HD
ATOM     17  H   UNL     1      -6.902  -6.634  -2.279  0.00  0.00    +0.145 HD
ENDBRANCH   6  13
ENDBRANCH   3   5
BRANCH   1  18
ATOM     18  C   UNL     1      -2.061  -3.109  -0.442  0.00  0.00    +0.019 C 
BRANCH  18  27
ATOM     19  C   UNL     1      -0.017   1.389   0.010  0.00  0.00    +0.009 A 
ATOM     20  C   UNL     1       1.146   2.081   0.002  0.00  0.00    +0.045 A 
ATOM     21  S   UNL     1       2.358   0.768  -0.016  0.00  0.00    -0.101 S 
ATOM     22  C   UNL     1       1.229  -0.596  -0.011  0.00  0.00    -0.011 A 
ATOM     23  C   UNL     1       0.002  -0.004   0.002  0.00  0.00    -0.054 A 
ATOM     24  C   UNL     1      -1.253  -0.872   0.006  0.00  0.00    -0.042 C 
ATOM     25  C   UNL     1       0.208  -2.793   0.344  0.00  0.00    -0.073 C 
ATOM     26  C   UNL     1       1.512  -2.063  -0.019  0.00  0.00    +0.024 C 
ATOM     27  N   UNL     1      -0.883  -2.221  -0.482  0.00  0.00    +0.388 N 
ATOM     28  H   UNL     1      -0.557  -2.144  -1.453  0.00  0.00    -0.081 HD
ENDBRANCH  18  27
ENDBRANCH   1  18
TORSDOF 4
