REMARK  Name = ZINC14644205
REMARK  7 active torsions:
REMARK  status: ('A' for Active; 'I' for Inactive)
REMARK    1  A    between atoms: C_1  and  C_2
REMARK    2  A    between atoms: C_2  and  C_4
REMARK    3  A    between atoms: C_2  and  O_22
REMARK    4  A    between atoms: N_6  and  N_7
REMARK    5  A    between atoms: C_8  and  C_10
REMARK    6  A    between atoms: C_13  and  C_16
REMARK    7  A    between atoms: O_22  and  C_23
REMARK                            x       y       z     vdW  Elec       q    Type
REMARK                         _______ _______ _______ _____ _____    ______ ____
ROOT
ATOM      1  N   UNL     1       6.216  -2.392   0.451  0.00  0.00    -0.230 N 
ATOM      2  C   UNL     1       6.173  -1.046   0.496  0.00  0.00    +0.260 C 
ATOM      3  O   UNL     1       7.188  -0.399   0.322  0.00  0.00    -0.269 OA
ATOM      4  H   UNL     1       5.407  -2.908   0.590  0.00  0.00    +0.173 HD
ENDROOT
BRANCH   2   5
ATOM      5  C   UNL     1       4.893  -0.356   0.757  0.00  0.00    +0.038 A 
ATOM      6  C   UNL     1       4.848   1.039   0.803  0.00  0.00    +0.014 A 
ATOM      7  C   UNL     1       3.654   1.681   1.047  0.00  0.00    +0.009 A 
ATOM      8  C   UNL     1       2.490   0.938   1.247  0.00  0.00    -0.018 A 
ATOM      9  C   UNL     1       2.535  -0.456   1.206  0.00  0.00    +0.009 A 
ATOM     10  C   UNL     1       3.727  -1.099   0.957  0.00  0.00    +0.014 A 
BRANCH   8  11
ATOM     11  C   UNL     1       1.206   1.630   1.510  0.00  0.00    -0.018 A 
ATOM     12  C   UNL     1       0.041   0.891   1.711  0.00  0.00    +0.008 A 
ATOM     13  C   UNL     1      -1.153   1.541   1.950  0.00  0.00    +0.001 A 
ATOM     14  C   UNL     1      -1.193   2.922   2.002  0.00  0.00    +0.000 A 
ATOM     15  C   UNL     1      -0.040   3.661   1.804  0.00  0.00    +0.001 A 
ATOM     16  C   UNL     1       1.158   3.022   1.558  0.00  0.00    +0.008 A 
ENDBRANCH   8  11
ENDBRANCH   2   5
BRANCH   1  19
ATOM     17  C   UNL     1       7.473  -4.393   0.159  0.00  0.00    +0.270 C 
ATOM     18  O   UNL     1       6.461  -5.038   0.332  0.00  0.00    -0.270 OA
ATOM     19  N   UNL     1       7.430  -3.046   0.204  0.00  0.00    -0.231 N 
ATOM     20  H   UNL     1       8.240  -2.530   0.065  0.00  0.00    +0.173 HD
BRANCH  17  22
ATOM     21  C   UNL     1       9.746  -4.830   1.049  0.00  0.00    +0.062 C 
ATOM     22  C   UNL     1       8.780  -5.096  -0.107  0.00  0.00    +0.257 C 
BRANCH  22  23
ATOM     23  O   UNL     1       8.549  -6.502  -0.221  0.00  0.00    -0.479 OA
BRANCH  23  24
ATOM     24  C   UNL     1       9.448  -7.218  -0.946  0.00  0.00    +0.136 A 
ATOM     25  C   UNL     1      10.589  -6.603  -1.440  0.00  0.00    +0.048 A 
ATOM     26  C   UNL     1      11.505  -7.333  -2.172  0.00  0.00    +0.023 A 
ATOM     27  C   UNL     1      11.280  -8.676  -2.422  0.00  0.00    +0.042 A 
ATOM     28  C   UNL     1      10.140  -9.290  -1.935  0.00  0.00    +0.039 A 
ATOM     29  C   UNL     1       9.224  -8.564  -1.198  0.00  0.00    +0.061 A 
ATOM     30 BR   UNL     1       7.666  -9.404  -0.533  0.00  0.00    -0.046 Br
ATOM     31 CL   UNL     1      12.430  -9.589  -3.348  0.00  0.00    -0.084 Cl
ENDBRANCH  23  24
ENDBRANCH  22  23
ENDBRANCH  17  22
ENDBRANCH   1  19
TORSDOF 6
