REMARK  Name = ZINC08636005
REMARK  9 active torsions:
REMARK  status: ('A' for Active; 'I' for Inactive)
REMARK    1  A    between atoms: C_1  and  C_2
REMARK    2  A    between atoms: N_4  and  C_5
REMARK    3  A    between atoms: C_5  and  C_6
REMARK    4  A    between atoms: C_6  and  N_64
REMARK    5  A    between atoms: C_7  and  N_64
REMARK    6  A    between atoms: C_10  and  C_32
REMARK    7  A    between atoms: C_12  and  C_28
REMARK    8  A    between atoms: C_28  and  O_30
REMARK    9  A    between atoms: O_30  and  C_31
REMARK                            x       y       z     vdW  Elec       q    Type
REMARK                         _______ _______ _______ _____ _____    ______ ____
ROOT
ATOM      1  C   UNL     1      -2.954  -0.458   1.054  0.00  0.00    -0.074 C 
ATOM      2  C   UNL     1      -4.114   0.437   1.499  0.00  0.00    -0.027 C 
ATOM      3  C   UNL     1      -4.271   1.593   0.523  0.00  0.00    -0.037 C 
ATOM      4  C   UNL     1      -3.179   3.586  -0.337  0.00  0.00    +0.049 C 
ATOM      5  C   UNL     1      -2.006   4.535  -0.055  0.00  0.00    +0.033 C 
ATOM      6  C   UNL     1      -0.726   3.744  -0.150  0.00  0.00    -0.022 A 
ATOM      7  C   UNL     1       0.636   4.214  -0.261  0.00  0.00    +0.003 A 
ATOM      8  C   UNL     1       1.201   5.492  -0.315  0.00  0.00    +0.010 A 
ATOM      9  C   UNL     1       2.568   5.564  -0.421  0.00  0.00    +0.001 A 
ATOM     10  C   UNL     1       3.364   4.431  -0.473  0.00  0.00    +0.002 A 
ATOM     11  C   UNL     1       2.833   3.154  -0.421  0.00  0.00    +0.026 A 
ATOM     12  C   UNL     1       1.448   3.050  -0.315  0.00  0.00    +0.047 A 
ATOM     13  N   UNL     1       0.615   1.970  -0.244  0.00  0.00    -0.359 N 
ATOM     14  H   UNL     1       0.901   1.043  -0.263  0.00  0.00    +0.166 HD
ATOM     15  C   UNL     1      -0.683   2.391  -0.148  0.00  0.00    +0.007 A 
ATOM     16  C   UNL     1      -1.917   1.532  -0.032  0.00  0.00    -0.020 C 
ATOM     17  C   UNL     1      -1.677   0.383   0.948  0.00  0.00    -0.025 C 
ATOM     18  N   UNL     1      -3.015   2.370   0.496  0.00  0.00    +0.399 N 
ATOM     19  H   UNL     1      -2.782   2.656   1.454  0.00  0.00    -0.079 HD
ENDROOT
BRANCH   3  20
ATOM     20  C   UNL     1      -5.396   2.488   0.976  0.00  0.00    -0.058 A 
ATOM     21  C   UNL     1      -5.179   3.416   1.977  0.00  0.00    +0.003 A 
ATOM     22  C   UNL     1      -6.207   4.242   2.391  0.00  0.00    +0.023 A 
ATOM     23  C   UNL     1      -7.458   4.132   1.811  0.00  0.00    +0.076 A 
ATOM     24  C   UNL     1      -7.678   3.199   0.811  0.00  0.00    +0.142 A 
ATOM     25  C   UNL     1      -6.644   2.377   0.394  0.00  0.00    +0.042 A 
ATOM     26  F   UNL     1      -8.899   3.091   0.243  0.00  0.00    -0.204 F 
ATOM     27 CL   UNL     1      -8.752   5.164   2.335  0.00  0.00    -0.081 Cl
ENDBRANCH   3  20
BRANCH   1  28
ATOM     28  N   UNL     1      -2.748  -1.528   2.048  0.00  0.00    +0.382 N 
ATOM     29  H   UNL     1      -1.773  -1.849   2.004  0.00  0.00    -0.085 HD
ATOM     30  H   UNL     1      -2.946  -1.162   2.986  0.00  0.00    -0.085 HD
BRANCH  28  31
ATOM     31  C   UNL     1      -3.647  -2.665   1.769  0.00  0.00    -0.063 C 
BRANCH  31  32
ATOM     32  C   UNL     1      -3.411  -3.758   2.814  0.00  0.00    +0.085 C 
BRANCH  32  36
ATOM     33  C   UNL     1      -5.182  -7.142   3.064  0.00  0.00    +0.109 C 
ATOM     34  C   UNL     1      -4.268  -5.977   3.342  0.00  0.00    +0.210 C 
ATOM     35  O   UNL     1      -3.503  -6.016   4.282  0.00  0.00    -0.276 OA
ATOM     36  N   UNL     1      -4.300  -4.890   2.545  0.00  0.00    -0.317 N 
ATOM     37  H   UNL     1      -4.912  -4.859   1.792  0.00  0.00    +0.149 HD
ENDBRANCH  32  36
ENDBRANCH  31  32
ENDBRANCH  28  31
ENDBRANCH   1  28
BRANCH   4  38
ATOM     38  C   UNL     1      -3.196   3.230  -1.801  0.00  0.00    +0.294 C 
ATOM     39  O   UNL     1      -3.306   2.075  -2.141  0.00  0.00    -0.253 OA
BRANCH  38  40
ATOM     40  O   UNL     1      -3.089   4.195  -2.728  0.00  0.00    -0.469 OA
ATOM     41  C   UNL     1      -3.113   3.779  -4.119  0.00  0.00    +0.280 C 
ENDBRANCH  38  40
ENDBRANCH   4  38
TORSDOF 7
