REMARK  Name = ZINC28467085
REMARK  8 active torsions:
REMARK  status: ('A' for Active; 'I' for Inactive)
REMARK    1  A    between atoms: C_1  and  O_2
REMARK    2  A    between atoms: O_2  and  C_3
REMARK    3  A    between atoms: C_3  and  C_5
REMARK    4  A    between atoms: C_8  and  C_11
REMARK    5  A    between atoms: C_13  and  C_25
REMARK    6  A    between atoms: C_15  and  C_20
REMARK    7  A    between atoms: C_15  and  O_24
REMARK    8  A    between atoms: C_25  and  C_27
REMARK                            x       y       z     vdW  Elec       q    Type
REMARK                         _______ _______ _______ _____ _____    ______ ____
ROOT
ATOM      1  C   UNL     1      -1.228   7.403  -0.660  0.00  0.00    +0.117 C 
ATOM      2  C   UNL     1      -1.385   6.053   0.047  0.00  0.00    +0.144 C 
ATOM      3  C   UNL     1      -1.817   6.304   1.496  0.00  0.00    +0.241 C 
ATOM      4  N   UNL     1      -3.034   7.117   1.501  0.00  0.00    -0.291 N 
ATOM      5  C   UNL     1      -3.296   7.987   0.513  0.00  0.00    +0.133 C 
ATOM      6  S   UNL     1      -4.733   8.914   0.594  0.00  0.00    -0.019 S 
ATOM      7  N   UNL     1      -2.476   8.159  -0.535  0.00  0.00    -0.319 N 
ATOM      8  H   UNL     1      -3.756   7.022   2.325  0.00  0.00    +0.151 HD
ATOM      9  H   UNL     1      -2.759   8.886  -1.310  0.00  0.00    +0.148 HD
ENDROOT
BRANCH   1  13
ATOM     10  C   UNL     1      -0.344   6.756  -4.794  0.00  0.00    +0.059 A 
ATOM     11  C   UNL     1       0.681   7.065  -3.897  0.00  0.00    +0.015 A 
ATOM     12  C   UNL     1       0.389   7.273  -2.565  0.00  0.00    +0.006 A 
ATOM     13  C   UNL     1      -0.917   7.175  -2.117  0.00  0.00    -0.026 A 
ATOM     14  C   UNL     1      -1.937   6.864  -2.999  0.00  0.00    +0.006 A 
ATOM     15  C   UNL     1      -1.659   6.659  -4.334  0.00  0.00    +0.015 A 
BRANCH  10  16
ATOM     16  C   UNL     1      -0.039   6.532  -6.222  0.00  0.00    +0.339 C 
ATOM     17  O   UNL     1       1.106   6.618  -6.619  0.00  0.00    -0.245 OA
BRANCH  16  19
ATOM     18  C   UNL     1      -0.657   6.028  -8.472  0.00  0.00    +0.280 C 
ATOM     19  O   UNL     1      -1.030   6.234  -7.084  0.00  0.00    -0.464 OA
ENDBRANCH  16  19
ENDBRANCH  10  16
ENDBRANCH   1  13
BRANCH   3  20
ATOM     20  C   UNL     1      -2.091   4.967   2.187  0.00  0.00    +0.436 C 
ATOM     21  F   UNL     1      -0.929   4.189   2.175  0.00  0.00    -0.166 F 
ATOM     22  F   UNL     1      -2.485   5.197   3.509  0.00  0.00    -0.166 F 
ATOM     23  F   UNL     1      -3.111   4.291   1.508  0.00  0.00    -0.166 F 
ENDBRANCH   3  20
BRANCH   3  24
ATOM     24  O   UNL     1      -0.777   6.996   2.191  0.00  0.00    -0.364 OA
ATOM     25  H   UNL     1      -0.908   7.264   3.250  0.00  0.00    +0.212 HD
ENDBRANCH   3  24
BRANCH   2  26
ATOM     26  C   UNL     1      -0.070   5.317   0.031  0.00  0.00    +0.173 C 
ATOM     27  O   UNL     1       0.972   5.938   0.025  0.00  0.00    -0.292 OA
BRANCH  26  28
ATOM     28  C   UNL     1      -0.050   3.846   0.023  0.00  0.00    +0.018 A 
ATOM     29  C   UNL     1       1.168   3.159   0.008  0.00  0.00    +0.011 A 
ATOM     30  C   UNL     1       1.179   1.780   0.000  0.00  0.00    +0.001 A 
ATOM     31  C   UNL     1      -0.013   1.076   0.008  0.00  0.00    +0.000 A 
ATOM     32  C   UNL     1      -1.222   1.748   0.017  0.00  0.00    +0.001 A 
ATOM     33  C   UNL     1      -1.250   3.126   0.030  0.00  0.00    +0.011 A 
ENDBRANCH  26  28
ENDBRANCH   2  26
TORSDOF 7
