REMARK  Name = ZINC12402352
REMARK  8 active torsions:
REMARK  status: ('A' for Active; 'I' for Inactive)
REMARK    1  A    between atoms: C_1  and  C_2
REMARK    2  A    between atoms: C_2  and  C_35
REMARK    3  A    between atoms: C_6  and  C_24
REMARK    4  A    between atoms: C_8  and  C_22
REMARK    5  A    between atoms: C_9  and  N_21
REMARK    6  A    between atoms: N_10  and  C_11
REMARK    7  A    between atoms: C_16  and  C_17
REMARK    8  A    between atoms: C_27  and  N_29
REMARK                            x       y       z     vdW  Elec       q    Type
REMARK                         _______ _______ _______ _____ _____    ______ ____
ROOT
ATOM      1  C   UNL     1      -5.565   7.729  -2.968  0.00  0.00    +0.011 C 
ATOM      2  C   UNL     1      -4.219   7.243  -3.509  0.00  0.00    -0.023 C 
ATOM      3  C   UNL     1      -3.124   7.504  -2.471  0.00  0.00    +0.058 C 
ATOM      4  C   UNL     1      -3.430   6.736  -1.209  0.00  0.00    +0.025 C 
ATOM      5  C   UNL     1      -4.085   5.557  -1.254  0.00  0.00    +0.026 C 
ATOM      6  C   UNL     1      -4.372   4.780   0.006  0.00  0.00    +0.104 C 
ATOM      7  C   UNL     1      -4.253   5.653   1.220  0.00  0.00    +0.077 C 
ATOM      8  C   UNL     1      -3.592   6.839   1.169  0.00  0.00    +0.107 C 
ATOM      9  N   UNL     1      -3.023   7.262  -0.011  0.00  0.00    -0.260 N 
ATOM     10  C   UNL     1      -4.523   5.017  -2.477  0.00  0.00    +0.162 C 
ATOM     11  O   UNL     1      -5.104   3.950  -2.484  0.00  0.00    -0.292 OA
ATOM     12  C   UNL     1      -4.285   5.736  -3.777  0.00  0.00    +0.086 C 
ATOM     13  C   UNL     1      -3.886   7.986  -4.804  0.00  0.00    +0.011 C 
ENDROOT
BRANCH   9  14
ATOM     14  C   UNL     1      -2.020   8.238   0.013  0.00  0.00    +0.051 A 
ATOM     15  C   UNL     1      -2.354   9.583  -0.088  0.00  0.00    +0.024 A 
ATOM     16  C   UNL     1      -1.362  10.543  -0.065  0.00  0.00    +0.002 A 
ATOM     17  C   UNL     1      -0.037  10.168   0.060  0.00  0.00    +0.001 A 
ATOM     18  C   UNL     1       0.299   8.830   0.161  0.00  0.00    +0.014 A 
ATOM     19  C   UNL     1      -0.689   7.865   0.143  0.00  0.00    +0.076 A 
BRANCH  19  20
ATOM     20  C   UNL     1      -0.322   6.408   0.260  0.00  0.00    +0.419 C 
ATOM     21  F   UNL     1       1.057   6.289   0.463  0.00  0.00    -0.166 F 
ATOM     22  F   UNL     1      -1.003   5.841   1.342  0.00  0.00    -0.166 F 
ATOM     23  F   UNL     1      -0.679   5.741  -0.917  0.00  0.00    -0.166 F 
ENDBRANCH  19  20
ENDBRANCH   9  14
BRANCH   6  24
ATOM     24  C   UNL     1      -3.390   3.641   0.118  0.00  0.00    +0.005 A 
ATOM     25  C   UNL     1      -3.631   2.308   0.156  0.00  0.00    +0.014 A 
ATOM     26  C   UNL     1      -2.562   1.437   0.257  0.00  0.00    +0.041 A 
ATOM     27  C   UNL     1      -1.306   1.942   0.328  0.00  0.00    +0.164 A 
ATOM     28  S   UNL     1      -1.610   3.699   0.237  0.00  0.00    -0.068 S 
BRANCH  27  29
ATOM     29  N   UNL     1      -0.018   1.224   0.444  0.00  0.00    +0.063 N 
ATOM     30  O   UNL     1      -0.001   0.007   0.494  0.00  0.00    -0.126 OA
ATOM     31  O   UNL     1       1.027   1.849   0.485  0.00  0.00    -0.126 OA
ENDBRANCH  27  29
ENDBRANCH   6  24
BRANCH   8  32
ATOM     32  N   UNL     1      -3.490   7.617   2.297  0.00  0.00    -0.345 N 
ATOM     33  H   UNL     1      -3.891   7.319   3.129  0.00  0.00    +0.144 HD
ATOM     34  H   UNL     1      -3.019   8.464   2.262  0.00  0.00    +0.144 HD
ENDBRANCH   8  32
BRANCH   7  35
ATOM     35  C   UNL     1      -4.846   5.231   2.453  0.00  0.00    +0.099 C 
ATOM     36  N   UNL     1      -5.317   4.895   3.430  0.00  0.00    -0.191 NA
ENDBRANCH   7  35
TORSDOF 6
