REMARK  Name = ZINC21326472
REMARK  8 active torsions:
REMARK  status: ('A' for Active; 'I' for Inactive)
REMARK    1  A    between atoms: C_4  and  C_7
REMARK    2  A    between atoms: C_7  and  C_9
REMARK    3  A    between atoms: C_7  and  O_12
REMARK    4  A    between atoms: O_12  and  C_13
REMARK    5  A    between atoms: C_13  and  C_15
REMARK    6  A    between atoms: C_18  and  N_21
REMARK    7  A    between atoms: N_21  and  S_22
REMARK    8  A    between atoms: S_22  and  C_25
REMARK                            x       y       z     vdW  Elec       q    Type
REMARK                         _______ _______ _______ _____ _____    ______ ____
ROOT
ATOM      1  C   UNL     1       4.106  -1.932  -4.271  0.00  0.00    +0.059 A 
ATOM      2  C   UNL     1       3.453  -3.166  -4.345  0.00  0.00    +0.017 A 
ATOM      3  C   UNL     1       2.465  -3.472  -3.444  0.00  0.00    +0.025 A 
ATOM      4  C   UNL     1       2.113  -2.556  -2.457  0.00  0.00    +0.048 A 
ATOM      5  C   UNL     1       2.758  -1.324  -2.383  0.00  0.00    +0.025 A 
ATOM      6  C   UNL     1       3.750  -1.014  -3.277  0.00  0.00    +0.017 A 
ENDROOT
BRANCH   1   7
ATOM      7  C   UNL     1       5.168  -1.599  -5.237  0.00  0.00    +0.340 C 
ATOM      8  O   UNL     1       5.476  -2.397  -6.100  0.00  0.00    -0.245 OA
BRANCH   7   9
ATOM      9  O   UNL     1       5.797  -0.410  -5.164  0.00  0.00    -0.444 OA
BRANCH   9  10
ATOM     10  C   UNL     1       6.832  -0.150  -6.149  0.00  0.00    +0.292 C 
BRANCH  10  14
ATOM     11  C   UNL     1       7.032   4.045  -6.931  0.00  0.00    +0.000 A 
ATOM     12  C   UNL     1       7.162   3.141  -7.969  0.00  0.00    +0.000 A 
ATOM     13  C   UNL     1       7.097   1.784  -7.716  0.00  0.00    +0.008 A 
ATOM     14  C   UNL     1       6.903   1.330  -6.425  0.00  0.00    +0.002 A 
ATOM     15  C   UNL     1       6.768   2.234  -5.387  0.00  0.00    +0.008 A 
ATOM     16  C   UNL     1       6.838   3.591  -5.640  0.00  0.00    +0.000 A 
ENDBRANCH  10  14
BRANCH  10  17
ATOM     17  C   UNL     1       8.160  -0.626  -5.619  0.00  0.00    +0.256 C 
ATOM     18  O   UNL     1       8.227  -1.135  -4.520  0.00  0.00    -0.272 OA
ATOM     19  N   UNL     1       9.273  -0.487  -6.367  0.00  0.00    -0.326 N 
ATOM     20  H   UNL     1      10.242  -0.835  -5.981  0.00  0.00    +0.145 HD
ATOM     21  H   UNL     1       9.211  -0.026  -7.364  0.00  0.00    +0.145 HD
ENDBRANCH  10  17
ENDBRANCH   9  10
ENDBRANCH   7   9
ENDBRANCH   1   7
BRANCH   4  22
ATOM     22  N   UNL     1       1.111  -2.870  -1.545  0.00  0.00    -0.216 N 
ATOM     23  H   UNL     1       0.122  -2.397  -1.631  0.00  0.00    +0.174 HD
BRANCH  22  24
ATOM     24  S   UNL     1       1.408  -3.954  -0.329  0.00  0.00    +0.072 S 
ATOM     25  O   UNL     1       1.972  -5.106  -0.941  0.00  0.00    -0.150 OA
ATOM     26  O   UNL     1       0.229  -4.012   0.461  0.00  0.00    -0.150 OA
BRANCH  24  27
ATOM     27  C   UNL     1       2.665  -3.260   0.692  0.00  0.00    +0.109 A 
ATOM     28  C   UNL     1       2.327  -2.375   1.699  0.00  0.00    +0.030 A 
ATOM     29  C   UNL     1       3.312  -1.831   2.501  0.00  0.00    +0.017 A 
ATOM     30  C   UNL     1       4.637  -2.172   2.296  0.00  0.00    +0.018 A 
ATOM     31  C   UNL     1       4.975  -3.057   1.288  0.00  0.00    +0.017 A 
ATOM     32  C   UNL     1       3.989  -3.601   0.487  0.00  0.00    +0.030 A 
ATOM     33 BR   UNL     1       5.986  -1.428   3.393  0.00  0.00    -0.050 Br
ENDBRANCH  24  27
ENDBRANCH  22  24
ENDBRANCH   4  22
TORSDOF 8
