REMARK  Name = ZINC38635887
REMARK  9 active torsions:
REMARK  status: ('A' for Active; 'I' for Inactive)
REMARK    1  A    between atoms: C_1  and  N_2
REMARK    2  A    between atoms: N_2  and  C_3
REMARK    3  A    between atoms: N_2  and  C_4
REMARK    4  A    between atoms: C_7  and  C_10
REMARK    5  A    between atoms: C_10  and  C_12
REMARK    6  A    between atoms: C_10  and  N_28
REMARK    7  A    between atoms: C_12  and  N_13
REMARK    8  A    between atoms: C_14  and  C_16
REMARK    9  A    between atoms: C_16  and  C_21
REMARK                            x       y       z     vdW  Elec       q    Type
REMARK                         _______ _______ _______ _____ _____    ______ ____
ROOT
ATOM      1  C   UNL     1      -1.708  -3.112  -5.839  0.00  0.00    +0.093 C 
ENDROOT
BRANCH   1   2
ATOM      2  N   UNL     1      -2.541  -3.920  -4.944  0.00  0.00    -0.316 N 
ATOM      3  C   UNL     1      -3.852  -4.084  -5.209  0.00  0.00    +0.224 C 
ATOM      4  O   UNL     1      -4.362  -3.491  -6.136  0.00  0.00    -0.275 OA
ATOM      5  H   UNL     1      -2.149  -4.336  -4.160  0.00  0.00    +0.149 HD
BRANCH   3   6
ATOM      6  C   UNL     1      -4.684  -5.003  -4.353  0.00  0.00    +0.072 C 
ATOM      7  C   UNL     1      -4.064  -6.411  -4.333  0.00  0.00    +0.021 C 
ATOM      8  C   UNL     1      -5.120  -7.367  -4.926  0.00  0.00    +0.001 C 
ATOM      9  C   UNL     1      -6.015  -6.451  -5.797  0.00  0.00    +0.001 C 
ATOM     10  C   UNL     1      -6.096  -5.153  -4.956  0.00  0.00    +0.021 C 
BRANCH   6  11
ATOM     11  C   UNL     1      -4.777  -4.460  -2.950  0.00  0.00    -0.032 A 
ATOM     12  C   UNL     1      -4.264  -3.209  -2.659  0.00  0.00    +0.006 A 
ATOM     13  C   UNL     1      -4.349  -2.710  -1.373  0.00  0.00    +0.020 A 
ATOM     14  C   UNL     1      -4.947  -3.462  -0.377  0.00  0.00    +0.041 A 
ATOM     15  C   UNL     1      -5.460  -4.713  -0.669  0.00  0.00    +0.020 A 
ATOM     16  C   UNL     1      -5.380  -5.209  -1.957  0.00  0.00    +0.006 A 
ATOM     17 CL   UNL     1      -5.053  -2.836   1.239  0.00  0.00    -0.084 Cl
ENDBRANCH   6  11
ENDBRANCH   3   6
ENDBRANCH   1   2
BRANCH   1  18
ATOM     18  C   UNL     1      -0.250  -3.185  -5.382  0.00  0.00    -0.020 C 
BRANCH  18  22
ATOM     19  C   UNL     1       0.126  -1.389  -1.522  0.00  0.00    +0.029 A 
ATOM     20  C   UNL     1       0.058  -2.771  -1.643  0.00  0.00    +0.023 A 
ATOM     21  C   UNL     1      -0.064  -3.348  -2.892  0.00  0.00    +0.004 A 
ATOM     22  C   UNL     1      -0.118  -2.552  -4.021  0.00  0.00    -0.059 A 
ATOM     23  C   UNL     1      -0.050  -1.175  -3.904  0.00  0.00    +0.004 A 
ATOM     24  C   UNL     1       0.066  -0.592  -2.657  0.00  0.00    +0.023 A 
BRANCH  19  26
ATOM     25  C   UNL     1       0.314   0.656  -0.134  0.00  0.00    +0.129 C 
ATOM     26  N   UNL     1       0.249  -0.802  -0.260  0.00  0.00    -0.336 N 
ATOM     27  C   UNL     1       0.312  -1.645   0.937  0.00  0.00    +0.129 C 
ENDBRANCH  19  26
ENDBRANCH  18  22
BRANCH  18  28
ATOM     28  N   UNL     1       0.600  -2.466  -6.341  0.00  0.00    +0.385 N 
ATOM     29  C   UNL     1       2.032  -2.643  -5.989  0.00  0.00    -0.078 C 
ATOM     30  C   UNL     1       2.764  -2.350  -7.323  0.00  0.00    -0.020 C 
ATOM     31  C   UNL     1       1.820  -2.970  -8.379  0.00  0.00    -0.020 C 
ATOM     32  C   UNL     1       0.443  -3.043  -7.694  0.00  0.00    -0.078 C 
ATOM     33  H   UNL     1       0.362  -1.486  -6.351  0.00  0.00    -0.081 HD
ENDBRANCH  18  28
ENDBRANCH   1  18
TORSDOF 7
