REMARK  Name = ZINC39777082
REMARK  10 active torsions:
REMARK  status: ('A' for Active; 'I' for Inactive)
REMARK    1  A    between atoms: C_1  and  C_2
REMARK    2  A    between atoms: C_3  and  N_9
REMARK    3  A    between atoms: C_4  and  C_8
REMARK    4  A    between atoms: N_5  and  C_7
REMARK    5  A    between atoms: C_10  and  C_12
REMARK    6  A    between atoms: C_12  and  C_14
REMARK    7  A    between atoms: C_12  and  S_15
REMARK    8  A    between atoms: S_15  and  C_16
REMARK    9  A    between atoms: C_20  and  C_25
REMARK   10  A    between atoms: N_21  and  C_22
REMARK                            x       y       z     vdW  Elec       q    Type
REMARK                         _______ _______ _______ _____ _____    ______ ____
ROOT
ATOM      1  C   UNL     1       0.773   3.180  -6.390  0.00  0.00    +0.238 C 
ATOM      2  N   UNL     1       0.917   1.948  -7.184  0.00  0.00    -0.237 N 
ATOM      3  N   UNL     1      -0.356   1.643  -7.679  0.00  0.00    -0.169 NA
ATOM      4  C   UNL     1      -1.240   2.524  -7.290  0.00  0.00    +0.147 C 
ATOM      5  N   UNL     1      -0.656   3.516  -6.494  0.00  0.00    -0.282 N 
ATOM      6  H   UNL     1       1.734   1.447  -7.334  0.00  0.00    +0.171 HD
ENDROOT
BRANCH   4   7
ATOM      7  C   UNL     1      -2.601   2.482  -7.630  0.00  0.00    +0.022 C 
ATOM      8  C   UNL     1      -3.226   1.588  -8.500  0.00  0.00    +0.006 A 
ATOM      9  C   UNL     1      -2.740   0.509  -9.269  0.00  0.00    +0.010 A 
ATOM     10  C   UNL     1      -3.597  -0.206 -10.043  0.00  0.00    +0.001 A 
ATOM     11  C   UNL     1      -4.958   0.099 -10.101  0.00  0.00    +0.002 A 
ATOM     12  C   UNL     1      -5.493   1.121  -9.389  0.00  0.00    +0.026 A 
ATOM     13  C   UNL     1      -4.660   1.913  -8.557  0.00  0.00    +0.043 A 
ATOM     14  N   UNL     1      -4.931   2.943  -7.779  0.00  0.00    -0.380 N 
ATOM     15  C   UNL     1      -3.698   3.393  -7.126  0.00  0.00    +0.152 C 
ATOM     16  H   UNL     1      -5.808   3.337  -7.654  0.00  0.00    +0.160 HD
ENDBRANCH   4   7
BRANCH   5  17
ATOM     17  C   UNL     1      -1.332   4.663  -5.882  0.00  0.00    +0.078 C 
ATOM     18  C   UNL     1      -0.904   6.060  -6.334  0.00  0.00    +0.024 C 
ATOM     19  C   UNL     1      -0.510   5.551  -4.946  0.00  0.00    +0.024 C 
ENDBRANCH   5  17
BRANCH   1  20
ATOM     20  S   UNL     1       1.231   2.878  -4.661  0.00  0.00    -0.106 S 
BRANCH  20  21
ATOM     21  C   UNL     1       0.139   1.524  -4.148  0.00  0.00    +0.133 C 
ATOM     22  C   UNL     1      -1.314   2.004  -4.171  0.00  0.00    +0.029 C 
BRANCH  21  24
ATOM     23  N   UNL     1       0.217  -0.164  -2.342  0.00  0.00    -0.282 N 
ATOM     24  C   UNL     1       0.501   1.087  -2.752  0.00  0.00    +0.230 C 
ATOM     25  O   UNL     1       1.050   1.863  -1.997  0.00  0.00    -0.274 OA
ATOM     26  H   UNL     1      -0.174  -0.800  -2.962  0.00  0.00    +0.155 HD
BRANCH  23  29
ATOM     27  C   UNL     1       0.001   1.728   0.123  0.00  0.00    +0.069 C 
ATOM     28  C   UNL     1       0.400   0.274   0.117  0.00  0.00    +0.081 A 
ATOM     29  C   UNL     1       0.486  -0.549  -1.015  0.00  0.00    +0.077 A 
ATOM     30  C   UNL     1       0.876  -1.782  -0.604  0.00  0.00    +0.057 A 
ATOM     31  N   UNL     1       1.030  -1.735   0.745  0.00  0.00    -0.270 N 
ATOM     32  N   UNL     1       0.730  -0.434   1.167  0.00  0.00    -0.175 NA
ATOM     33  C   UNL     1       1.441  -2.847   1.605  0.00  0.00    +0.172 C 
ATOM     34  C   UNL     1       1.098  -2.986  -1.484  0.00  0.00    +0.067 C 
ENDBRANCH  23  29
ENDBRANCH  21  24
ENDBRANCH  20  21
ENDBRANCH   1  20
TORSDOF 6
