REMARK  Name = ZINC03651880
REMARK  8 active torsions:
REMARK  status: ('A' for Active; 'I' for Inactive)
REMARK    1  A    between atoms: C_1  and  C_2
REMARK    2  A    between atoms: C_2  and  C_30
REMARK    3  A    between atoms: P_5  and  C_9
REMARK    4  A    between atoms: C_9  and  C_11
REMARK    5  A    between atoms: C_9  and  N_21
REMARK    6  A    between atoms: C_16  and  O_17
REMARK    7  A    between atoms: O_17  and  C_18
REMARK    8  A    between atoms: N_21  and  C_22
REMARK                            x       y       z     vdW  Elec       q    Type
REMARK                         _______ _______ _______ _____ _____    ______ ____
ROOT
ATOM      1  C   UNL     1      -3.954   3.170   0.156  0.00  0.00    +0.187 C 
ENDROOT
BRANCH   1   6
ATOM      2  C   UNL     1      -4.787   5.273   5.694  0.00  0.00    +0.015 C 
ATOM      3  C   UNL     1      -4.487   4.768   4.282  0.00  0.00    +0.013 C 
ATOM      4  C   UNL     1      -4.655   3.249   4.244  0.00  0.00    +0.176 C 
ATOM      5  O   UNL     1      -4.294   2.768   2.936  0.00  0.00    -0.329 OA
ATOM      6  P   UNL     1      -4.991   3.439   1.631  0.00  0.00    +0.196 P 
ATOM      7  S   UNL     1      -6.687   2.715   1.364  0.00  0.00    -0.006 S 
ATOM      8  O   UNL     1      -5.104   5.027   1.955  0.00  0.00    -0.329 OA
ATOM      9  C   UNL     1      -5.439   5.443   3.293  0.00  0.00    +0.176 C 
ATOM     10  C   UNL     1      -3.045   5.125   3.916  0.00  0.00    +0.015 C 
ENDBRANCH   1   6
BRANCH   1  11
ATOM     11  C   UNL     1      -4.633   3.765  -1.051  0.00  0.00    +0.026 A 
ATOM     12  C   UNL     1      -4.465   5.104  -1.348  0.00  0.00    +0.029 A 
ATOM     13  C   UNL     1      -5.084   5.651  -2.458  0.00  0.00    +0.043 A 
ATOM     14  C   UNL     1      -5.881   4.860  -3.268  0.00  0.00    +0.043 A 
ATOM     15  C   UNL     1      -6.055   3.521  -2.971  0.00  0.00    +0.084 A 
ATOM     16  C   UNL     1      -5.431   2.971  -1.860  0.00  0.00    +0.144 A 
ATOM     17 CL   UNL     1      -7.054   2.529  -3.987  0.00  0.00    -0.080 Cl
ATOM     18 CL   UNL     1      -4.867   7.332  -2.833  0.00  0.00    -0.083 Cl
BRANCH  16  19
ATOM     19  O   UNL     1      -5.601   1.655  -1.566  0.00  0.00    -0.493 OA
ATOM     20  C   UNL     1      -4.699   0.731  -2.179  0.00  0.00    +0.277 C 
ENDBRANCH  16  19
ENDBRANCH   1  11
BRANCH   1  21
ATOM     21  N   UNL     1      -2.652   3.814   0.350  0.00  0.00    -0.329 N 
ATOM     22  H   UNL     1      -2.555   4.904   0.241  0.00  0.00    +0.147 HD
BRANCH  21  23
ATOM     23  C   UNL     1      -1.533   3.042   0.675  0.00  0.00    +0.029 A 
ATOM     24  C   UNL     1      -0.272   3.624   0.706  0.00  0.00    +0.024 A 
ATOM     25  C   UNL     1       0.833   2.858   1.021  0.00  0.00    +0.023 A 
ATOM     26  C   UNL     1       0.685   1.515   1.317  0.00  0.00    +0.059 A 
ATOM     27  C   UNL     1      -0.572   0.933   1.292  0.00  0.00    +0.061 A 
ATOM     28  C   UNL     1      -1.680   1.694   0.972  0.00  0.00    +0.044 A 
ATOM     29 CL   UNL     1      -0.754  -0.753   1.664  0.00  0.00    -0.082 Cl
ATOM     30 CL   UNL     1       2.076   0.557   1.720  0.00  0.00    -0.082 Cl
ENDBRANCH  21  23
ENDBRANCH   1  21
TORSDOF 5
