REMARK  Name = ZINC09409733
REMARK  9 active torsions:
REMARK  status: ('A' for Active; 'I' for Inactive)
REMARK    1  A    between atoms: C_1  and  O_2
REMARK    2  A    between atoms: O_2  and  C_3
REMARK    3  A    between atoms: C_6  and  O_9
REMARK    4  A    between atoms: O_9  and  C_10
REMARK    5  A    between atoms: C_15  and  C_16
REMARK    6  A    between atoms: C_19  and  O_23
REMARK    7  A    between atoms: C_21  and  O_22
REMARK    8  A    between atoms: O_23  and  C_24
REMARK    9  A    between atoms: C_24  and  C_25
REMARK                            x       y       z     vdW  Elec       q    Type
REMARK                         _______ _______ _______ _____ _____    ______ ____
ROOT
ATOM      1  C   UNL     1      -7.948  -3.389   0.117  0.00  0.00    +0.173 A 
ATOM      2  C   UNL     1      -9.008  -4.283   0.076  0.00  0.00    +0.162 A 
ATOM      3  N   UNL     1      -8.758  -5.577  -0.052  0.00  0.00    -0.219 NA
ATOM      4  C   UNL     1      -7.515  -6.027  -0.145  0.00  0.00    +0.213 A 
ATOM      5  N   UNL     1      -6.474  -5.212  -0.115  0.00  0.00    -0.211 NA
ATOM      6  C   UNL     1      -6.644  -3.897   0.011  0.00  0.00    +0.122 A 
ATOM      7  N   UNL     1      -7.300  -7.391  -0.277  0.00  0.00    -0.327 N 
ATOM      8  H   UNL     1      -6.396  -7.734  -0.346  0.00  0.00    +0.145 HD
ATOM      9  H   UNL     1      -8.054  -8.000  -0.301  0.00  0.00    +0.145 HD
ENDROOT
BRANCH   6  10
ATOM     10  C   UNL     1      -5.478  -2.986   0.045  0.00  0.00    +0.046 A 
ATOM     11  C   UNL     1      -5.455  -1.847  -0.760  0.00  0.00    +0.017 A 
ATOM     12  C   UNL     1      -4.371  -0.998  -0.722  0.00  0.00    +0.046 A 
ATOM     13  C   UNL     1      -3.292  -1.279   0.108  0.00  0.00    +0.124 A 
ATOM     14  C   UNL     1      -3.305  -2.410   0.911  0.00  0.00    +0.091 A 
ATOM     15  C   UNL     1      -4.393  -3.266   0.884  0.00  0.00    +0.130 A 
BRANCH  15  16
ATOM     16  O   UNL     1      -4.408  -4.373   1.670  0.00  0.00    -0.506 OA
ATOM     17  H   UNL     1      -4.793  -4.230   2.545  0.00  0.00    +0.292 HD
ENDBRANCH  15  16
BRANCH  13  18
ATOM     18  O   UNL     1      -2.224  -0.441   0.137  0.00  0.00    -0.487 OA
BRANCH  18  19
ATOM     19  C   UNL     1      -2.275   0.705  -0.715  0.00  0.00    +0.266 C 
BRANCH  19  20
ATOM     20  C   UNL     1      -1.013   1.512  -0.548  0.00  0.00    +0.008 A 
ATOM     21  C   UNL     1      -0.034   1.089   0.332  0.00  0.00    +0.011 A 
ATOM     22  C   UNL     1       1.126   1.825   0.481  0.00  0.00    +0.039 A 
ATOM     23  C   UNL     1       1.307   2.989  -0.248  0.00  0.00    +0.125 A 
ATOM     24  C   UNL     1       0.325   3.414  -1.126  0.00  0.00    +0.058 A 
ATOM     25  C   UNL     1      -0.837   2.677  -1.273  0.00  0.00    +0.050 A 
ATOM     26 CL   UNL     1      -2.069   3.209  -2.373  0.00  0.00    -0.083 Cl
ATOM     27  F   UNL     1       2.441   3.708  -0.103  0.00  0.00    -0.205 F 
ENDBRANCH  19  20
ENDBRANCH  18  19
ENDBRANCH  13  18
ENDBRANCH   6  10
BRANCH   1  28
ATOM     28  O   UNL     1      -8.167  -2.054   0.252  0.00  0.00    -0.452 OA
BRANCH  28  32
ATOM     29  C   UNL     1     -12.040  -0.781   0.898  0.00  0.00    +0.120 A 
ATOM     30  C   UNL     1     -11.320  -1.363   1.931  0.00  0.00    +0.049 A 
ATOM     31  C   UNL     1     -10.024  -1.789   1.715  0.00  0.00    +0.050 A 
ATOM     32  C   UNL     1      -9.443  -1.635   0.465  0.00  0.00    +0.129 A 
ATOM     33  C   UNL     1     -10.161  -1.048  -0.567  0.00  0.00    +0.050 A 
ATOM     34  C   UNL     1     -11.459  -0.628  -0.352  0.00  0.00    +0.049 A 
BRANCH  29  36
ATOM     35  C   UNL     1     -13.998   0.228   0.002  0.00  0.00    +0.277 C 
ATOM     36  O   UNL     1     -13.316  -0.362   1.111  0.00  0.00    -0.495 OA
ENDBRANCH  29  36
ENDBRANCH  28  32
ENDBRANCH   1  28
TORSDOF 8
