REMARK  Name = ZINC67183131
REMARK  7 active torsions:
REMARK  status: ('A' for Active; 'I' for Inactive)
REMARK    1  A    between atoms: C_1  and  C_2
REMARK    2  A    between atoms: C_5  and  C_8
REMARK    3  A    between atoms: N_12  and  C_13
REMARK    4  A    between atoms: C_13  and  C_14
REMARK    5  A    between atoms: N_16  and  C_17
REMARK    6  A    between atoms: C_19  and  N_24
REMARK    7  A    between atoms: C_22  and  C_23
REMARK                            x       y       z     vdW  Elec       q    Type
REMARK                         _______ _______ _______ _____ _____    ______ ____
ROOT
ATOM      1  C   UNL     1       0.271  -4.513   2.442  0.00  0.00    +0.221 C 
ENDROOT
BRANCH   1   6
ATOM      2  C   UNL     1       0.021  -3.973  -0.022  0.00  0.00    +0.163 A 
ATOM      3  N   UNL     1      -0.086  -4.649  -1.131  0.00  0.00    -0.153 NA
ATOM      4  N   UNL     1      -0.055  -6.014  -0.813  0.00  0.00    -0.254 N 
ATOM      5  C   UNL     1       0.074  -6.115   0.526  0.00  0.00    +0.176 A 
ATOM      6  N   UNL     1       0.128  -4.865   1.027  0.00  0.00    -0.294 N 
ATOM      7  S   UNL     1       0.161  -7.569   1.426  0.00  0.00    -0.011 S 
ATOM      8  H   UNL     1      -0.115  -6.751  -1.441  0.00  0.00    +0.191 HD
BRANCH   2  13
ATOM      9  C   UNL     1       0.066   1.765   0.428  0.00  0.00    +0.044 C 
ATOM     10  C   UNL     1       0.054   0.263   0.310  0.00  0.00    -0.050 A 
ATOM     11  C   UNL     1      -0.239  -0.513   1.417  0.00  0.00    +0.004 A 
ATOM     12  C   UNL     1      -0.252  -1.889   1.316  0.00  0.00    +0.012 A 
ATOM     13  C   UNL     1       0.032  -2.498   0.094  0.00  0.00    +0.019 A 
ATOM     14  C   UNL     1       0.327  -1.710  -1.020  0.00  0.00    +0.012 A 
ATOM     15  C   UNL     1       0.331  -0.335  -0.907  0.00  0.00    +0.004 A 
ENDBRANCH   2  13
ENDBRANCH   1   6
BRANCH   1  16
ATOM     16  C   UNL     1      -1.087  -4.498   3.096  0.00  0.00    +0.237 C 
ATOM     17  O   UNL     1      -2.077  -4.757   2.444  0.00  0.00    -0.274 OA
ATOM     18  N   UNL     1      -1.201  -4.198   4.405  0.00  0.00    -0.284 N 
ATOM     19  H   UNL     1      -0.419  -3.926   4.910  0.00  0.00    +0.155 HD
BRANCH  18  20
ATOM     20  C   UNL     1      -2.448  -4.279   5.035  0.00  0.00    +0.039 A 
ATOM     21  C   UNL     1      -3.610  -4.041   4.312  0.00  0.00    +0.056 A 
ATOM     22  C   UNL     1      -4.839  -4.121   4.936  0.00  0.00    +0.128 A 
ATOM     23  C   UNL     1      -4.914  -4.439   6.280  0.00  0.00    +0.033 A 
ATOM     24  C   UNL     1      -3.759  -4.677   7.003  0.00  0.00    +0.007 A 
ATOM     25  C   UNL     1      -2.527  -4.604   6.382  0.00  0.00    -0.029 A 
ATOM     26  C   UNL     1      -1.270  -4.870   7.169  0.00  0.00    +0.045 C 
BRANCH  22  27
ATOM     27  N   UNL     1      -6.077  -3.867   4.167  0.00  0.00    +0.056 N 
ATOM     28  O   UNL     1      -6.013  -3.588   2.992  0.00  0.00    -0.126 OA
ATOM     29  O   UNL     1      -7.154  -3.937   4.713  0.00  0.00    -0.126 OA
ENDBRANCH  22  27
ENDBRANCH  18  20
ENDBRANCH   1  16
TORSDOF 5
