REMARK  Name = ZINC14545441
REMARK  9 active torsions:
REMARK  status: ('A' for Active; 'I' for Inactive)
REMARK    1  A    between atoms: C_1  and  C_2
REMARK    2  A    between atoms: C_2  and  O_3
REMARK    3  A    between atoms: O_3  and  C_4
REMARK    4  A    between atoms: C_9  and  C_10
REMARK    5  A    between atoms: C_21  and  S_26
REMARK    6  A    between atoms: S_26  and  N_29
REMARK    7  A    between atoms: N_29  and  C_30
REMARK    8  A    between atoms: C_33  and  C_37
REMARK    9  A    between atoms: C_35  and  C_36
REMARK                            x       y       z     vdW  Elec       q    Type
REMARK                         _______ _______ _______ _____ _____    ______ ____
ROOT
ATOM      1  C   UNL     1      -1.685   8.209  -2.717  0.00  0.00    +0.108 C 
ATOM      2  C   UNL     1      -2.311   7.815  -4.041  0.00  0.00    +0.029 C 
ATOM      3  C   UNL     1      -3.770   8.319  -4.139  0.00  0.00    +0.033 C 
ATOM      4  C   UNL     1      -4.414   7.311  -5.075  0.00  0.00    -0.030 C 
ATOM      5  C   UNL     1      -3.732   6.194  -5.084  0.00  0.00    -0.023 C 
ATOM      6  C   UNL     1      -2.535   6.295  -4.148  0.00  0.00    +0.049 C 
ATOM      7  C   UNL     1      -2.939   5.683  -2.833  0.00  0.00    -0.018 A 
ATOM      8  C   UNL     1      -3.342   4.354  -2.829  0.00  0.00    +0.034 A 
ATOM      9  C   UNL     1      -3.732   3.745  -1.653  0.00  0.00    +0.109 A 
ATOM     10  C   UNL     1      -3.729   4.454  -0.466  0.00  0.00    +0.030 A 
ATOM     11  C   UNL     1      -3.323   5.774  -0.458  0.00  0.00    +0.025 A 
ATOM     12  C   UNL     1      -2.929   6.387  -1.642  0.00  0.00    +0.031 A 
ATOM     13  N   UNL     1      -2.523   7.726  -1.614  0.00  0.00    -0.336 N 
ATOM     14  H   UNL     1      -2.786   8.314  -0.889  0.00  0.00    +0.147 HD
ENDROOT
BRANCH   1  20
ATOM     15  C   UNL     1       0.755   8.163  -3.293  0.00  0.00    +0.125 A 
ATOM     16  C   UNL     1       2.018   7.598  -3.191  0.00  0.00    +0.046 A 
ATOM     17  C   UNL     1       2.211   6.475  -2.410  0.00  0.00    +0.004 A 
ATOM     18  C   UNL     1       1.146   5.914  -1.730  0.00  0.00    +0.001 A 
ATOM     19  C   UNL     1      -0.113   6.478  -1.825  0.00  0.00    +0.009 A 
ATOM     20  C   UNL     1      -0.312   7.598  -2.609  0.00  0.00    +0.015 A 
BRANCH  15  21
ATOM     21  O   UNL     1       0.563   9.268  -4.060  0.00  0.00    -0.492 OA
BRANCH  21  23
ATOM     22  C   UNL     1       1.299  11.029  -5.543  0.00  0.00    +0.048 C 
ATOM     23  C   UNL     1       1.707   9.796  -4.735  0.00  0.00    +0.225 C 
ENDBRANCH  21  23
ENDBRANCH  15  21
ENDBRANCH   1  20
BRANCH   9  24
ATOM     24  S   UNL     1      -4.242   2.059  -1.667  0.00  0.00    +0.072 S 
ATOM     25  O   UNL     1      -4.681   1.778  -2.989  0.00  0.00    -0.150 OA
ATOM     26  O   UNL     1      -5.078   1.878  -0.532  0.00  0.00    -0.150 OA
BRANCH  24  27
ATOM     27  N   UNL     1      -2.891   1.136  -1.411  0.00  0.00    -0.216 N 
ATOM     28  H   UNL     1      -2.606   0.497  -2.083  0.00  0.00    +0.174 HD
BRANCH  27  29
ATOM     29  C   UNL     1      -2.162   1.278  -0.228  0.00  0.00    +0.051 A 
ATOM     30  C   UNL     1      -2.819   1.549   0.966  0.00  0.00    +0.025 A 
ATOM     31  C   UNL     1      -2.095   1.694   2.133  0.00  0.00    +0.005 A 
ATOM     32  C   UNL     1      -0.718   1.565   2.115  0.00  0.00    -0.050 A 
ATOM     33  C   UNL     1      -0.062   1.290   0.929  0.00  0.00    +0.008 A 
ATOM     34  C   UNL     1      -0.780   1.144  -0.241  0.00  0.00    -0.028 A 
ATOM     35  C   UNL     1      -0.064   0.845  -1.533  0.00  0.00    +0.046 C 
ATOM     36  C   UNL     1       0.069   1.724   3.390  0.00  0.00    +0.044 C 
ENDBRANCH  27  29
ENDBRANCH  24  27
ENDBRANCH   9  24
TORSDOF 6
