REMARK  Name = ZINC20801238
REMARK  8 active torsions:
REMARK  status: ('A' for Active; 'I' for Inactive)
REMARK    1  A    between atoms: C_1  and  C_2
REMARK    2  A    between atoms: C_5  and  N_8
REMARK    3  A    between atoms: C_9  and  C_11
REMARK    4  A    between atoms: C_11  and  N_12
REMARK    5  A    between atoms: N_15  and  C_18
REMARK    6  A    between atoms: C_18  and  C_20
REMARK    7  A    between atoms: C_18  and  C_21
REMARK    8  A    between atoms: C_33  and  C_37
REMARK                            x       y       z     vdW  Elec       q    Type
REMARK                         _______ _______ _______ _____ _____    ______ ____
ROOT
ATOM      1  N   UNL     1       4.124   1.356   0.141  0.00  0.00    +0.387 N 
ATOM      2  C   UNL     1       4.095   1.825  -1.251  0.00  0.00    -0.063 C 
ATOM      3  C   UNL     1       5.424   2.508  -1.584  0.00  0.00    +0.066 C 
ATOM      4  N   UNL     1       6.526   1.560  -1.373  0.00  0.00    -0.296 NA
ATOM      5  C   UNL     1       6.555   1.091   0.019  0.00  0.00    +0.066 C 
ATOM      6  C   UNL     1       5.226   0.407   0.352  0.00  0.00    -0.063 C 
ATOM      7  H   UNL     1       4.297   2.228   0.790  0.00  0.00    -0.081 HD
ENDROOT
BRANCH   4   8
ATOM      8  C   UNL     1       7.813   2.155  -1.755  0.00  0.00    +0.120 C 
ATOM      9  C   UNL     1       8.228   3.188  -0.705  0.00  0.00    +0.032 C 
BRANCH   8  10
ATOM     10  C   UNL     1       8.861   1.075  -1.839  0.00  0.00    +0.128 A 
ATOM     11  N   UNL     1      10.156   1.419  -2.060  0.00  0.00    -0.309 N 
ATOM     12  H   UNL     1      10.432   2.477  -2.179  0.00  0.00    +0.170 HD
ATOM     13  C   UNL     1      11.124   0.487  -2.137  0.00  0.00    +0.260 A 
ATOM     14  O   UNL     1      12.283   0.811  -2.332  0.00  0.00    -0.267 OA
ATOM     15  C   UNL     1      10.769  -0.894  -1.992  0.00  0.00    +0.075 A 
ATOM     16  C   UNL     1      11.642  -2.067  -2.043  0.00  0.00    -0.023 A 
ATOM     17  C   UNL     1      11.058  -3.272  -1.875  0.00  0.00    -0.004 A 
ATOM     18  S   UNL     1       9.336  -2.920  -1.643  0.00  0.00    -0.073 S 
ATOM     19  C   UNL     1       9.407  -1.151  -1.772  0.00  0.00    +0.116 A 
ATOM     20  N   UNL     1       8.507  -0.174  -1.703  0.00  0.00    -0.225 NA
ATOM     21  C   UNL     1      11.726  -4.613  -1.885  0.00  0.00    +0.046 C 
ATOM     22  C   UNL     1      13.131  -4.450  -2.482  0.00  0.00    -0.009 C 
ATOM     23  C   UNL     1      13.813  -3.252  -1.815  0.00  0.00    +0.008 C 
ATOM     24  C   UNL     1      13.146  -1.954  -2.272  0.00  0.00    +0.037 C 
ATOM     25  C   UNL     1      13.951  -5.716  -2.226  0.00  0.00    +0.008 C 
ENDBRANCH   8  10
ENDBRANCH   4   8
BRANCH   1  26
ATOM     26  C   UNL     1       2.836   0.760   0.523  0.00  0.00    +0.019 C 
BRANCH  26  28
ATOM     27  N   UNL     1       0.502   1.510   0.851  0.00  0.00    -0.287 N 
ATOM     28  C   UNL     1       1.772   1.827   0.529  0.00  0.00    +0.201 C 
ATOM     29  O   UNL     1       2.057   2.971   0.243  0.00  0.00    -0.278 OA
ATOM     30  H   UNL     1       0.226   0.460   1.031  0.00  0.00    +0.155 HD
BRANCH  27  35
ATOM     31  C   UNL     1      -3.419   5.587   1.280  0.00  0.00    +0.044 C 
ATOM     32  C   UNL     1      -2.377   4.504   1.167  0.00  0.00    -0.050 A 
ATOM     33  C   UNL     1      -2.734   3.250   0.706  0.00  0.00    +0.005 A 
ATOM     34  C   UNL     1      -1.782   2.255   0.601  0.00  0.00    +0.023 A 
ATOM     35  C   UNL     1      -0.465   2.515   0.957  0.00  0.00    +0.033 A 
ATOM     36  C   UNL     1      -0.111   3.775   1.424  0.00  0.00    +0.023 A 
ATOM     37  C   UNL     1      -1.067   4.767   1.522  0.00  0.00    +0.005 A 
ENDBRANCH  27  35
ENDBRANCH  26  28
ENDBRANCH   1  26
TORSDOF 5
