REMARK  Name = ZINC59263665
REMARK  7 active torsions:
REMARK  status: ('A' for Active; 'I' for Inactive)
REMARK    1  A    between atoms: C_3  and  C_6
REMARK    2  A    between atoms: C_6  and  C_8
REMARK    3  A    between atoms: C_6  and  N_26
REMARK    4  A    between atoms: C_8  and  N_9
REMARK    5  A    between atoms: N_12  and  C_13
REMARK    6  A    between atoms: C_13  and  C_14
REMARK    7  A    between atoms: C_17  and  N_20
REMARK                            x       y       z     vdW  Elec       q    Type
REMARK                         _______ _______ _______ _____ _____    ______ ____
ROOT
ATOM      1  N   UNL     1       5.472   0.053  -1.234  0.00  0.00    -0.301 N 
ATOM      2  C   UNL     1       6.132  -0.438  -2.302  0.00  0.00    +0.300 C 
ATOM      3  O   UNL     1       5.542  -0.625  -3.349  0.00  0.00    -0.253 OA
ATOM      4  N   UNL     1       7.446  -0.723  -2.208  0.00  0.00    -0.295 N 
ATOM      5  H   UNL     1       5.942   0.202  -0.399  0.00  0.00    +0.150 HD
ATOM      6  H   UNL     1       7.916  -0.575  -1.373  0.00  0.00    +0.151 HD
ENDROOT
BRANCH   1   7
ATOM      7  C   UNL     1       4.043   0.363  -1.336  0.00  0.00    +0.098 C 
BRANCH   7   8
ATOM      8  C   UNL     1       3.514   0.780   0.037  0.00  0.00    +0.016 C 
BRANCH   8   9
ATOM      9  N   UNL     1       3.803  -0.276   1.016  0.00  0.00    +0.387 N 
ATOM     10  C   UNL     1       3.240  -1.546   0.543  0.00  0.00    -0.078 C 
ATOM     11  C   UNL     1       3.608  -2.667   1.519  0.00  0.00    -0.019 C 
ATOM     12  C   UNL     1       3.041  -2.338   2.903  0.00  0.00    -0.004 C 
ATOM     13  C   UNL     1       3.578  -0.976   3.353  0.00  0.00    -0.019 C 
ATOM     14  C   UNL     1       3.210   0.081   2.310  0.00  0.00    -0.078 C 
ATOM     15  H   UNL     1       4.802  -0.372   1.120  0.00  0.00    -0.081 HD
ENDBRANCH   8   9
BRANCH   8  18
ATOM     16  C   UNL     1       0.014   1.924  -0.123  0.00  0.00    +0.041 A 
ATOM     17  C   UNL     1       1.400   2.187  -0.027  0.00  0.00    +0.043 A 
ATOM     18  C   UNL     1       2.024   0.996  -0.043  0.00  0.00    +0.093 A 
ATOM     19  O   UNL     1       1.095   0.031  -0.143  0.00  0.00    -0.469 OA
ATOM     20  C   UNL     1      -0.126   0.588  -0.192  0.00  0.00    +0.195 A 
ENDBRANCH   8  18
ENDBRANCH   7   8
ENDBRANCH   1   7
BRANCH   4  21
ATOM     21  C   UNL     1       8.164  -1.258  -3.369  0.00  0.00    +0.141 C 
BRANCH  21  22
ATOM     22  C   UNL     1       9.607  -1.489  -3.003  0.00  0.00    -0.030 A 
ATOM     23  C   UNL     1      10.534  -0.478  -3.180  0.00  0.00    +0.007 A 
ATOM     24  C   UNL     1      11.858  -0.686  -2.846  0.00  0.00    +0.023 A 
ATOM     25  C   UNL     1      12.258  -1.913  -2.333  0.00  0.00    +0.030 A 
ATOM     26  C   UNL     1      11.325  -2.927  -2.157  0.00  0.00    +0.023 A 
ATOM     27  C   UNL     1      10.001  -2.710  -2.487  0.00  0.00    +0.007 A 
BRANCH  25  28
ATOM     28  N   UNL     1      13.596  -2.128  -1.995  0.00  0.00    -0.328 N 
ATOM     29  C   UNL     1      14.035  -3.466  -1.595  0.00  0.00    +0.116 C 
ATOM     30  C   UNL     1      15.011  -4.017  -2.640  0.00  0.00    +0.088 C 
ATOM     31  S   UNL     1      16.402  -2.857  -2.806  0.00  0.00    -0.158 S 
ATOM     32  C   UNL     1      15.579  -1.271  -3.145  0.00  0.00    +0.088 C 
ATOM     33  C   UNL     1      14.543  -1.013  -2.051  0.00  0.00    +0.116 C 
ENDBRANCH  25  28
ENDBRANCH  21  22
ENDBRANCH   4  21
TORSDOF 7
