REMARK  Name = ZINC09336781
REMARK  14 active torsions:
REMARK  status: ('A' for Active; 'I' for Inactive)
REMARK    1  A    between atoms: C_1  and  C_2
REMARK    2  A    between atoms: C_2  and  C_3
REMARK    3  A    between atoms: C_3  and  C_4
REMARK    4  A    between atoms: C_3  and  C_5
REMARK    5  A    between atoms: C_3  and  N_63
REMARK    6  A    between atoms: C_6  and  C_7
REMARK    7  A    between atoms: C_6  and  N_63
REMARK    8  A    between atoms: N_9  and  C_10
REMARK    9  A    between atoms: C_12  and  S_20
REMARK   10  A    between atoms: C_15  and  O_16
REMARK   11  A    between atoms: O_16  and  C_17
REMARK   12  A    between atoms: C_17  and  C_18
REMARK   13  A    between atoms: C_17  and  C_19
REMARK   14  A    between atoms: S_20  and  N_23
REMARK                            x       y       z     vdW  Elec       q    Type
REMARK                         _______ _______ _______ _____ _____    ______ ____
ROOT
ATOM      1  C   UNL     1       5.437  -0.497  -2.151  0.00  0.00    +0.077 A 
ATOM      2  C   UNL     1       5.097  -0.216  -0.835  0.00  0.00    +0.055 A 
ATOM      3  C   UNL     1       4.210  -1.034  -0.161  0.00  0.00    +0.107 A 
ATOM      4  C   UNL     1       3.663  -2.135  -0.793  0.00  0.00    +0.032 A 
ATOM      5  C   UNL     1       3.992  -2.419  -2.106  0.00  0.00    +0.049 A 
ATOM      6  C   UNL     1       4.881  -1.604  -2.788  0.00  0.00    +0.142 A 
ENDROOT
BRANCH   1   9
ATOM      7  C   UNL     1       7.236   1.062  -2.149  0.00  0.00    +0.200 C 
ATOM      8  O   UNL     1       7.337   0.928  -0.948  0.00  0.00    -0.278 OA
ATOM      9  N   UNL     1       6.337   0.330  -2.836  0.00  0.00    -0.284 N 
ATOM     10  H   UNL     1       6.313   0.375  -3.804  0.00  0.00    +0.155 HD
BRANCH   7  11
ATOM     11  C   UNL     1       8.116   2.048  -2.873  0.00  0.00    +0.016 C 
BRANCH  11  12
ATOM     12  N   UNL     1       9.001   2.713  -1.899  0.00  0.00    +0.388 N 
ATOM     13  H   UNL     1       8.430   3.203  -1.200  0.00  0.00    -0.084 HD
ATOM     14  H   UNL     1       9.581   2.006  -1.431  0.00  0.00    -0.084 HD
BRANCH  12  15
ATOM     15  C   UNL     1       9.876   3.685  -2.581  0.00  0.00    -0.074 C 
ATOM     16  C   UNL     1      10.736   2.963  -3.620  0.00  0.00    -0.010 C 
ATOM     17  C   UNL     1       9.020   4.747  -3.276  0.00  0.00    -0.010 C 
BRANCH  15  19
ATOM     18  C   UNL     1      11.692   5.368  -2.247  0.00  0.00    +0.002 C 
ATOM     19  C   UNL     1      10.781   4.357  -1.547  0.00  0.00    -0.016 C 
ENDBRANCH  15  19
ENDBRANCH  12  15
ENDBRANCH  11  12
ENDBRANCH   7  11
ENDBRANCH   1   9
BRANCH   3  20
ATOM     20  S   UNL     1       3.780  -0.676   1.510  0.00  0.00    +0.061 S 
ATOM     21  O   UNL     1       4.848   0.091   2.048  0.00  0.00    -0.153 OA
ATOM     22  O   UNL     1       3.353  -1.900   2.090  0.00  0.00    -0.153 OA
BRANCH  20  23
ATOM     23  N   UNL     1       2.456   0.318   1.472  0.00  0.00    -0.177 NA
ATOM     24  C   UNL     1       1.098  -0.243   1.477  0.00  0.00    +0.109 C 
ATOM     25  C   UNL     1       0.323   0.332   0.287  0.00  0.00    +0.017 C 
ATOM     26  C   UNL     1       0.372   1.860   0.342  0.00  0.00    +0.003 C 
ATOM     27  C   UNL     1       1.825   2.330   0.244  0.00  0.00    +0.017 C 
ATOM     28  C   UNL     1       2.617   1.778   1.434  0.00  0.00    +0.109 C 
ENDBRANCH  20  23
ENDBRANCH   3  20
BRANCH   6  29
ATOM     29  O   UNL     1       5.211  -1.885  -4.077  0.00  0.00    -0.488 OA
BRANCH  29  30
ATOM     30  C   UNL     1       4.512  -2.961  -4.706  0.00  0.00    +0.167 C 
ATOM     31  C   UNL     1       4.313  -2.642  -6.189  0.00  0.00    +0.051 C 
ATOM     32  C   UNL     1       5.326  -4.249  -4.566  0.00  0.00    +0.051 C 
ENDBRANCH  29  30
ENDBRANCH   6  29
TORSDOF 9
