REMARK  Name = ZINC43813242
REMARK  9 active torsions:
REMARK  status: ('A' for Active; 'I' for Inactive)
REMARK    1  A    between atoms: C_1  and  C_2
REMARK    2  A    between atoms: C_2  and  C_3
REMARK    3  A    between atoms: C_2  and  C_4
REMARK    4  A    between atoms: C_4  and  C_6
REMARK    5  A    between atoms: C_4  and  S_18
REMARK    6  A    between atoms: N_8  and  C_9
REMARK    7  A    between atoms: C_12  and  C_15
REMARK    8  A    between atoms: S_18  and  C_19
REMARK    9  A    between atoms: C_23  and  C_25
REMARK                            x       y       z     vdW  Elec       q    Type
REMARK                         _______ _______ _______ _____ _____    ______ ____
ROOT
ATOM      1  C   UNL     1      -1.427  -0.530   0.015  0.00  0.00    +0.143 C 
ENDROOT
BRANCH   1   2
ATOM      2  C   UNL     1      -2.141  -0.049   1.252  0.00  0.00    +0.231 C 
ATOM      3  O   UNL     1      -2.190  -0.754   2.237  0.00  0.00    -0.274 OA
ATOM      4  N   UNL     1      -2.724   1.167   1.263  0.00  0.00    -0.285 N 
ATOM      5  H   UNL     1      -2.628   1.758   0.500  0.00  0.00    +0.155 HD
BRANCH   4   6
ATOM      6  C   UNL     1      -3.465   1.574   2.372  0.00  0.00    +0.033 A 
ATOM      7  C   UNL     1      -3.068   1.193   3.650  0.00  0.00    +0.024 A 
ATOM      8  C   UNL     1      -3.798   1.593   4.747  0.00  0.00    +0.015 A 
ATOM      9  C   UNL     1      -4.937   2.384   4.575  0.00  0.00    +0.037 A 
ATOM     10  C   UNL     1      -5.333   2.765   3.290  0.00  0.00    +0.015 A 
ATOM     11  C   UNL     1      -4.596   2.365   2.198  0.00  0.00    +0.024 A 
BRANCH   9  12
ATOM     12  C   UNL     1      -5.722   2.815   5.748  0.00  0.00    +0.242 C 
ATOM     13  O   UNL     1      -5.377   2.482   6.866  0.00  0.00    -0.270 OA
ATOM     14  N   UNL     1      -6.821   3.577   5.581  0.00  0.00    -0.325 N 
ATOM     15  H   UNL     1      -7.096   3.842   4.690  0.00  0.00    +0.145 HD
ATOM     16  H   UNL     1      -7.337   3.860   6.353  0.00  0.00    +0.145 HD
ENDBRANCH   9  12
ENDBRANCH   4   6
ENDBRANCH   1   2
BRANCH   1  18
ATOM     17  C   UNL     1      -0.009   1.527   0.032  0.00  0.00    +0.009 C 
ATOM     18  C   UNL     1       0.009  -0.003   0.017  0.00  0.00    +0.005 C 
ATOM     19  C   UNL     1       0.739  -0.517   1.260  0.00  0.00    +0.009 C 
ENDBRANCH   1  18
BRANCH   1  20
ATOM     20  S   UNL     1      -1.405  -2.344  -0.003  0.00  0.00    -0.075 S 
BRANCH  20  21
ATOM     21  C   UNL     1      -0.681  -2.747  -1.558  0.00  0.00    +0.168 A 
ATOM     22  N   UNL     1      -0.460  -4.006  -2.028  0.00  0.00    -0.339 N 
ATOM     23  H   UNL     1      -0.671  -4.835  -1.571  0.00  0.00    +0.167 HD
ATOM     24  C   UNL     1       0.116  -3.884  -3.269  0.00  0.00    +0.113 A 
ATOM     25  C   UNL     1       0.231  -2.556  -3.522  0.00  0.00    +0.090 A 
ATOM     26  N   UNL     1      -0.272  -1.884  -2.456  0.00  0.00    -0.222 NA
BRANCH  25  27
ATOM     27  C   UNL     1       0.800  -1.948  -4.749  0.00  0.00    +0.002 A 
ATOM     28  C   UNL     1       1.274  -2.760  -5.777  0.00  0.00    +0.010 A 
ATOM     29  C   UNL     1       1.803  -2.188  -6.917  0.00  0.00    +0.001 A 
ATOM     30  C   UNL     1       1.863  -0.811  -7.039  0.00  0.00    +0.000 A 
ATOM     31  C   UNL     1       1.393  -0.000  -6.021  0.00  0.00    +0.001 A 
ATOM     32  C   UNL     1       0.858  -0.561  -4.880  0.00  0.00    +0.010 A 
ENDBRANCH  25  27
ENDBRANCH  20  21
ENDBRANCH   1  20
TORSDOF 7
