REMARK  Name = ZINC64403889
REMARK  7 active torsions:
REMARK  status: ('A' for Active; 'I' for Inactive)
REMARK    1  A    between atoms: C_4  and  C_7
REMARK    2  A    between atoms: C_14  and  O_17
REMARK    3  A    between atoms: O_17  and  C_18
REMARK    4  A    between atoms: C_18  and  C_19
REMARK    5  A    between atoms: C_19  and  N_20
REMARK    6  A    between atoms: C_21  and  C_23
REMARK    7  A    between atoms: C_26  and  C_29
REMARK                            x       y       z     vdW  Elec       q    Type
REMARK                         _______ _______ _______ _____ _____    ______ ____
ROOT
ATOM      1  C   UNL     1       3.711  -0.707  -0.038  0.00  0.00    +0.262 C 
ATOM      2  N   UNL     1       4.716   0.048  -0.804  0.00  0.00    -0.181 NA
ATOM      3  N   UNL     1       5.090  -0.669  -1.800  0.00  0.00    -0.265 N 
ATOM      4  C   UNL     1       4.481  -1.857  -1.856  0.00  0.00    +0.134 C 
ATOM      5  C   UNL     1       4.584  -2.910  -2.741  0.00  0.00    +0.049 C 
ATOM      6  C   UNL     1       3.805  -4.063  -2.552  0.00  0.00    +0.067 C 
ATOM      7  C   UNL     1       2.945  -4.161  -1.504  0.00  0.00    +0.197 C 
ATOM      8  N   UNL     1       2.822  -3.124  -0.606  0.00  0.00    -0.231 N 
ATOM      9  N   UNL     1       3.584  -1.972  -0.771  0.00  0.00    -0.204 N 
ATOM     10  H   UNL     1       2.207  -3.197   0.141  0.00  0.00    +0.173 HD
ATOM     11  H   UNL     1       5.749  -0.378  -2.449  0.00  0.00    +0.190 HD
ENDROOT
BRANCH   1  15
ATOM     12  C   UNL     1      -0.017   1.378   0.010  0.00  0.00    +0.000 A 
ATOM     13  C   UNL     1       1.171   2.086   0.002  0.00  0.00    +0.000 A 
ATOM     14  C   UNL     1       2.377   1.411  -0.013  0.00  0.00    +0.007 A 
ATOM     15  C   UNL     1       2.396   0.029  -0.020  0.00  0.00    -0.002 A 
ATOM     16  C   UNL     1       1.208  -0.679  -0.012  0.00  0.00    +0.007 A 
ATOM     17  C   UNL     1       0.002  -0.004   0.002  0.00  0.00    +0.000 A 
ENDBRANCH   1  15
BRANCH   7  18
ATOM     18  O   UNL     1       2.205  -5.281  -1.343  0.00  0.00    -0.477 OA
BRANCH  18  19
ATOM     19  C   UNL     1       1.320  -5.319  -0.222  0.00  0.00    +0.249 C 
BRANCH  19  20
ATOM     20  C   UNL     1       0.574  -6.655  -0.206  0.00  0.00    +0.145 C 
BRANCH  20  21
ATOM     21  N   UNL     1       1.528  -7.744   0.016  0.00  0.00    -0.310 N 
ATOM     22  C   UNL     1       1.094  -9.019   0.069  0.00  0.00    +0.243 C 
ATOM     23  O   UNL     1      -0.086  -9.264  -0.068  0.00  0.00    -0.273 OA
ATOM     24  H   UNL     1       2.471  -7.548   0.125  0.00  0.00    +0.149 HD
BRANCH  22  25
ATOM     25  C   UNL     1       2.075 -10.140   0.296  0.00  0.00    +0.238 C 
ATOM     26  C   UNL     1       2.751 -10.533  -1.005  0.00  0.00    +0.041 C 
ATOM     27  C   UNL     1       2.391 -11.822  -1.179  0.00  0.00    +0.098 C 
ATOM     28  N   UNL     1       1.595 -12.234  -0.156  0.00  0.00    -0.153 NA
ATOM     29  N   UNL     1       1.374 -11.370   0.701  0.00  0.00    -0.170 NA
BRANCH  27  30
ATOM     30  C   UNL     1       2.802 -12.666  -2.321  0.00  0.00    +0.039 A 
ATOM     31  C   UNL     1       2.486 -13.972  -2.587  0.00  0.00    +0.018 A 
ATOM     32  C   UNL     1       2.991 -14.557  -3.727  0.00  0.00    +0.008 A 
ATOM     33  C   UNL     1       3.785 -13.825  -4.550  0.00  0.00    +0.046 A 
ATOM     34  S   UNL     1       3.833 -12.246  -3.717  0.00  0.00    -0.095 S 
ENDBRANCH  27  30
ENDBRANCH  22  25
ENDBRANCH  20  21
ENDBRANCH  19  20
ENDBRANCH  18  19
ENDBRANCH   7  18
TORSDOF 7
