REMARK  Name = ZINC33431905
REMARK  9 active torsions:
REMARK  status: ('A' for Active; 'I' for Inactive)
REMARK    1  A    between atoms: C_1  and  O_2
REMARK    2  A    between atoms: O_2  and  C_3
REMARK    3  A    between atoms: C_3  and  C_5
REMARK    4  A    between atoms: C_11  and  C_26
REMARK    5  A    between atoms: C_12  and  C_19
REMARK    6  A    between atoms: C_14  and  C_17
REMARK    7  A    between atoms: C_15  and  N_16
REMARK    8  A    between atoms: N_28  and  C_29
REMARK    9  A    between atoms: C_29  and  C_30
REMARK                            x       y       z     vdW  Elec       q    Type
REMARK                         _______ _______ _______ _____ _____    ______ ____
ROOT
ATOM      1  C   UNL     1      -4.893   4.867  -1.672  0.00  0.00    +0.112 C 
ATOM      2  C   UNL     1      -3.857   4.048  -1.353  0.00  0.00    +0.086 A 
ATOM      3  C   UNL     1      -3.370   3.621  -0.021  0.00  0.00    +0.272 A 
ATOM      4  O   UNL     1      -3.912   4.007   0.996  0.00  0.00    -0.266 OA
ATOM      5  N   UNL     1      -2.308   2.792   0.031  0.00  0.00    -0.257 N 
ATOM      6  C   UNL     1      -1.744   2.394  -1.165  0.00  0.00    +0.099 A 
ATOM      7  C   UNL     1      -0.680   1.565  -1.265  0.00  0.00    +0.057 C 
ATOM      8  C   UNL     1      -0.052   1.032   0.007  0.00  0.00    +0.100 C 
ATOM      9  C   UNL     1      -0.700   1.491   1.298  0.00  0.00    +0.079 C 
ATOM     10  C   UNL     1      -1.763   2.323   1.232  0.00  0.00    +0.118 C 
ATOM     11  S   UNL     1      -2.714   3.195  -2.427  0.00  0.00    -0.065 S 
ENDROOT
BRANCH   8  12
ATOM     12  C   UNL     1       1.395   1.452   0.030  0.00  0.00    -0.032 A 
ATOM     13  C   UNL     1       1.724   2.795   0.066  0.00  0.00    +0.005 A 
ATOM     14  C   UNL     1       3.051   3.181   0.092  0.00  0.00    +0.003 A 
ATOM     15  C   UNL     1       4.050   2.226   0.072  0.00  0.00    +0.038 A 
ATOM     16  C   UNL     1       3.721   0.882   0.031  0.00  0.00    +0.124 A 
ATOM     17  C   UNL     1       2.392   0.496   0.011  0.00  0.00    +0.043 A 
ATOM     18  F   UNL     1       4.697  -0.052   0.012  0.00  0.00    -0.205 F 
ENDBRANCH   8  12
BRANCH   7  19
ATOM     19  C   UNL     1      -0.167   1.207  -2.527  0.00  0.00    +0.244 C 
ATOM     20  O   UNL     1      -0.684   1.643  -3.541  0.00  0.00    -0.270 OA
ATOM     21  N   UNL     1       0.894   0.381  -2.614  0.00  0.00    -0.307 N 
ATOM     22  H   UNL     1       1.360  -0.013  -1.699  0.00  0.00    +0.149 HD
BRANCH  21  23
ATOM     23  C   UNL     1       1.428   0.009  -3.926  0.00  0.00    +0.139 C 
BRANCH  23  24
ATOM     24  C   UNL     1       2.605  -0.915  -3.747  0.00  0.00    -0.030 A 
ATOM     25  C   UNL     1       3.881  -0.396  -3.638  0.00  0.00    +0.005 A 
ATOM     26  C   UNL     1       4.960  -1.243  -3.469  0.00  0.00    +0.000 A 
ATOM     27  C   UNL     1       4.764  -2.611  -3.417  0.00  0.00    +0.000 A 
ATOM     28  C   UNL     1       3.488  -3.130  -3.531  0.00  0.00    +0.000 A 
ATOM     29  C   UNL     1       2.408  -2.283  -3.696  0.00  0.00    +0.005 A 
ENDBRANCH  23  24
ENDBRANCH  21  23
ENDBRANCH   7  19
BRANCH  10  30
ATOM     30  N   UNL     1      -2.340   2.731   2.410  0.00  0.00    -0.343 N 
ATOM     31  H   UNL     1      -1.935   2.381   3.371  0.00  0.00    +0.144 HD
ATOM     32  H   UNL     1      -3.206   3.409   2.392  0.00  0.00    +0.144 HD
ENDBRANCH  10  30
BRANCH   1  33
ATOM     33  C   UNL     1      -5.194   5.153  -3.075  0.00  0.00    +0.333 C 
ATOM     34  O   UNL     1      -4.518   4.656  -3.956  0.00  0.00    -0.246 OA
BRANCH  33  36
ATOM     35  C   UNL     1      -6.461   6.201  -4.781  0.00  0.00    +0.280 C 
ATOM     36  O   UNL     1      -6.223   5.966  -3.392  0.00  0.00    -0.465 OA
ENDBRANCH  33  36
ENDBRANCH   1  33
BRANCH   9  37
ATOM     37  C   UNL     1      -0.195   1.051   2.564  0.00  0.00    +0.099 C 
ATOM     38  N   UNL     1       0.205   0.703   3.568  0.00  0.00    -0.191 NA
ENDBRANCH   9  37
TORSDOF 8
