REMARK  Name = ZINC14649798
REMARK  11 active torsions:
REMARK  status: ('A' for Active; 'I' for Inactive)
REMARK    1  A    between atoms: C_1  and  C_2
REMARK    2  A    between atoms: C_2  and  C_3
REMARK    3  A    between atoms: C_3  and  C_4
REMARK    4  A    between atoms: C_4  and  O_5
REMARK    5  A    between atoms: O_5  and  C_6
REMARK    6  A    between atoms: C_11  and  C_12
REMARK    7  A    between atoms: N_14  and  N_15
REMARK    8  A    between atoms: C_16  and  C_18
REMARK    9  A    between atoms: C_18  and  C_20
REMARK   10  A    between atoms: C_18  and  O_21
REMARK   11  A    between atoms: O_21  and  C_22
REMARK                            x       y       z     vdW  Elec       q    Type
REMARK                         _______ _______ _______ _____ _____    ______ ____
ROOT
ATOM      1  C   UNL     1       2.381   4.004  -0.553  0.00  0.00    +0.264 C 
ATOM      2  O   UNL     1       3.423   3.396  -0.398  0.00  0.00    -0.269 OA
ATOM      3  N   UNL     1       2.374   5.351  -0.508  0.00  0.00    -0.230 N 
ATOM      4  H   UNL     1       1.544   5.836  -0.631  0.00  0.00    +0.173 HD
ENDROOT
BRANCH   1  10
ATOM      5  C   UNL     1       1.128   1.867  -0.839  0.00  0.00    +0.133 A 
ATOM      6  C   UNL     1      -0.058   1.184  -1.063  0.00  0.00    +0.047 A 
ATOM      7  C   UNL     1      -1.235   1.882  -1.244  0.00  0.00    +0.019 A 
ATOM      8  C   UNL     1      -1.244   3.268  -1.191  0.00  0.00    +0.019 A 
ATOM      9  C   UNL     1      -0.073   3.962  -0.969  0.00  0.00    +0.032 A 
ATOM     10  C   UNL     1       1.125   3.267  -0.791  0.00  0.00    +0.081 A 
ATOM     11 BR   UNL     1      -2.866   4.209  -1.434  0.00  0.00    -0.050 Br
BRANCH   5  12
ATOM     12  O   UNL     1       2.286   1.181  -0.667  0.00  0.00    -0.491 OA
BRANCH  12  13
ATOM     13  C   UNL     1       2.212  -0.244  -0.729  0.00  0.00    +0.229 C 
BRANCH  13  14
ATOM     14  C   UNL     1       3.606  -0.838  -0.514  0.00  0.00    +0.041 C 
BRANCH  14  16
ATOM     15  C   UNL     1       4.920  -2.957  -0.366  0.00  0.00    +0.004 C 
ATOM     16  C   UNL     1       3.526  -2.364  -0.581  0.00  0.00    -0.000 C 
ENDBRANCH  14  16
ENDBRANCH  13  14
ENDBRANCH  12  13
ENDBRANCH   5  12
ENDBRANCH   1  10
BRANCH   3  17
ATOM     17  N   UNL     1       3.567   6.050  -0.282  0.00  0.00    -0.231 N 
ATOM     18  C   UNL     1       3.560   7.397  -0.237  0.00  0.00    +0.270 C 
ATOM     19  O   UNL     1       2.521   8.004  -0.391  0.00  0.00    -0.270 OA
ATOM     20  H   UNL     1       4.398   5.565  -0.159  0.00  0.00    +0.173 HD
BRANCH  18  21
ATOM     21  C   UNL     1       4.843   8.149   0.006  0.00  0.00    +0.257 C 
ATOM     22  C   UNL     1       5.798   7.921  -1.167  0.00  0.00    +0.062 C 
BRANCH  21  23
ATOM     23  O   UNL     1       4.561   9.545   0.126  0.00  0.00    -0.478 OA
BRANCH  23  24
ATOM     24  C   UNL     1       5.447  10.295   0.835  0.00  0.00    +0.140 A 
ATOM     25  C   UNL     1       6.619   9.723   1.308  0.00  0.00    +0.048 A 
ATOM     26  C   UNL     1       7.519  10.488   2.025  0.00  0.00    +0.023 A 
ATOM     27  C   UNL     1       7.248  11.820   2.280  0.00  0.00    +0.043 A 
ATOM     28  C   UNL     1       6.077  12.392   1.814  0.00  0.00    +0.043 A 
ATOM     29  C   UNL     1       5.176  11.632   1.092  0.00  0.00    +0.084 A 
ATOM     30 CL   UNL     1       3.707  12.349   0.508  0.00  0.00    -0.080 Cl
ATOM     31 CL   UNL     1       8.378  12.777   3.186  0.00  0.00    -0.083 Cl
ENDBRANCH  23  24
ENDBRANCH  21  23
ENDBRANCH  18  21
ENDBRANCH   3  17
TORSDOF 9
