REMARK  Name = ZINC03263002
REMARK  8 active torsions:
REMARK  status: ('A' for Active; 'I' for Inactive)
REMARK    1  A    between atoms: C_1  and  C_2
REMARK    2  A    between atoms: C_2  and  N_14
REMARK    3  A    between atoms: C_3  and  C_4
REMARK    4  A    between atoms: C_4  and  C_5
REMARK    5  A    between atoms: N_14  and  N_15
REMARK    6  A    between atoms: C_16  and  C_18
REMARK    7  A    between atoms: C_21  and  C_24
REMARK    8  A    between atoms: C_24  and  N_25
REMARK                            x       y       z     vdW  Elec       q    Type
REMARK                         _______ _______ _______ _____ _____    ______ ____
ROOT
ATOM      1  C   UNL     1       3.556  -1.002  -4.141  0.00  0.00    +0.038 A 
ATOM      2  C   UNL     1       4.568  -0.276  -3.512  0.00  0.00    +0.013 A 
ATOM      3  C   UNL     1       4.395   0.161  -2.215  0.00  0.00    +0.006 A 
ATOM      4  C   UNL     1       3.222  -0.120  -1.538  0.00  0.00    -0.030 A 
ATOM      5  C   UNL     1       2.216  -0.844  -2.154  0.00  0.00    +0.006 A 
ATOM      6  C   UNL     1       2.374  -1.282  -3.452  0.00  0.00    +0.013 A 
ENDROOT
BRANCH   1   8
ATOM      7  N   UNL     1       2.754  -2.174  -6.136  0.00  0.00    -0.233 N 
ATOM      8  C   UNL     1       3.734  -1.473  -5.531  0.00  0.00    +0.260 C 
ATOM      9  O   UNL     1       4.763  -1.228  -6.129  0.00  0.00    -0.269 OA
ATOM     10  H   UNL     1       1.932  -2.370  -5.659  0.00  0.00    +0.173 HD
BRANCH   7  11
ATOM     11  N   UNL     1       2.923  -2.620  -7.453  0.00  0.00    -0.269 N 
ATOM     12  H   UNL     1       3.711  -2.361  -7.956  0.00  0.00    +0.170 HD
BRANCH  11  14
ATOM     13  C   UNL     1       0.680  -3.735  -7.306  0.00  0.00    +0.061 C 
ATOM     14  C   UNL     1       1.962  -3.434  -8.040  0.00  0.00    +0.015 C 
ATOM     15  C   UNL     1       2.170  -3.943  -9.239  0.00  0.00    -0.003 C 
BRANCH  15  16
ATOM     16  C   UNL     1       3.507  -3.764  -9.912  0.00  0.00    +0.064 C 
BRANCH  16  17
ATOM     17  C   UNL     1       4.101  -5.114 -10.217  0.00  0.00    -0.040 A 
ATOM     18  C   UNL     1       3.834  -5.727 -11.428  0.00  0.00    +0.008 A 
ATOM     19  C   UNL     1       4.377  -6.966 -11.713  0.00  0.00    +0.050 A 
ATOM     20  C   UNL     1       5.191  -7.597 -10.786  0.00  0.00    +0.166 A 
ATOM     21  C   UNL     1       5.460  -6.979  -9.567  0.00  0.00    +0.166 A 
ATOM     22  C   UNL     1       4.917  -5.735  -9.290  0.00  0.00    +0.053 A 
ATOM     23  O   UNL     1       6.277  -7.793  -8.836  0.00  0.00    -0.453 OA
ATOM     24  C   UNL     1       6.834  -8.726  -9.781  0.00  0.00    +0.466 C 
ATOM     25  O   UNL     1       5.839  -8.798 -10.819  0.00  0.00    -0.453 OA
ENDBRANCH  16  17
ENDBRANCH  15  16
ENDBRANCH  11  14
ENDBRANCH   7  11
ENDBRANCH   1   8
BRANCH   4  26
ATOM     26  C   UNL     1       3.040   0.360  -0.121  0.00  0.00    +0.149 C 
BRANCH  26  27
ATOM     27  N   UNL     1       2.430   1.692  -0.131  0.00  0.00    -0.263 N 
ATOM     28  C   UNL     1       1.063   1.939  -0.108  0.00  0.00    +0.045 A 
ATOM     29  C   UNL     1      -0.099   1.191  -0.074  0.00  0.00    +0.024 A 
ATOM     30  C   UNL     1      -1.339   1.829  -0.064  0.00  0.00    +0.002 A 
ATOM     31  C   UNL     1      -1.482   3.190  -0.077  0.00  0.00    +0.008 A 
ATOM     32  C   UNL     1      -0.325   3.986  -0.112  0.00  0.00    -0.015 A 
ATOM     33  C   UNL     1       0.902   3.320  -0.126  0.00  0.00    +0.016 A 
ATOM     34  C   UNL     1       2.149   3.962  -0.161  0.00  0.00    +0.047 A 
ATOM     35  C   UNL     1       2.136   5.346  -0.183  0.00  0.00    +0.014 A 
ATOM     36  C   UNL     1       0.918   6.026  -0.170  0.00  0.00    +0.001 A 
ATOM     37  C   UNL     1      -0.294   5.390  -0.135  0.00  0.00    +0.008 A 
ATOM     38  C   UNL     1       3.120   2.862  -0.163  0.00  0.00    +0.252 C 
ATOM     39  O   UNL     1       4.332   2.978  -0.188  0.00  0.00    -0.270 OA
ENDBRANCH  26  27
ENDBRANCH   4  26
TORSDOF 7
