REMARK  Name = ZINC11813009
REMARK  9 active torsions:
REMARK  status: ('A' for Active; 'I' for Inactive)
REMARK    1  A    between atoms: C_1  and  O_2
REMARK    2  A    between atoms: O_2  and  C_3
REMARK    3  A    between atoms: C_3  and  C_4
REMARK    4  A    between atoms: C_4  and  N_5
REMARK    5  A    between atoms: C_8  and  C_12
REMARK    6  A    between atoms: C_8  and  C_20
REMARK    7  A    between atoms: C_12  and  C_13
REMARK    8  A    between atoms: C_25  and  C_26
REMARK    9  A    between atoms: C_25  and  N_66
REMARK                            x       y       z     vdW  Elec       q    Type
REMARK                         _______ _______ _______ _____ _____    ______ ____
ROOT
ATOM      1  N   UNL     1       1.526  -0.539  -2.497  0.00  0.00    -0.222 N 
ATOM      2  C   UNL     1       0.192  -0.349  -2.496  0.00  0.00    +0.247 C 
ATOM      3  O   UNL     1      -0.669  -1.202  -2.497  0.00  0.00    -0.273 OA
ATOM      4  C   UNL     1      -0.007   1.154  -2.491  0.00  0.00    +0.119 C 
ATOM      5  N   UNL     1       1.367   1.685  -2.490  0.00  0.00    -0.284 N 
ATOM      6  C   UNL     1       2.191   0.622  -2.494  0.00  0.00    +0.309 C 
ATOM      7  O   UNL     1       3.403   0.706  -2.495  0.00  0.00    -0.252 OA
ATOM      8  H   UNL     1       1.627   2.620  -2.487  0.00  0.00    +0.151 HD
ENDROOT
BRANCH   4   9
ATOM      9  C   UNL     1      -0.755   1.594  -1.231  0.00  0.00    +0.018 C 
ATOM     10  C   UNL     1      -0.013   1.086   0.008  0.00  0.00    -0.013 C 
ATOM     11  C   UNL     1      -0.731   1.580   1.266  0.00  0.00    -0.078 C 
ATOM     12  C   UNL     1      -1.519   3.558   0.108  0.00  0.00    -0.078 C 
ATOM     13  C   UNL     1      -0.823   3.123  -1.184  0.00  0.00    -0.013 C 
ATOM     14  N   UNL     1      -0.742   3.058   1.262  0.00  0.00    +0.382 N 
ATOM     15  H   UNL     1       0.224   3.399   1.186  0.00  0.00    -0.081 HD
BRANCH  14  16
ATOM     16  C   UNL     1      -1.329   3.562   2.521  0.00  0.00    -0.041 C 
BRANCH  16  17
ATOM     17  C   UNL     1      -0.401   3.224   3.659  0.00  0.00    -0.036 A 
ATOM     18  C   UNL     1      -0.671   2.164   4.469  0.00  0.00    +0.004 A 
ATOM     19  C   UNL     1       0.179   1.832   5.523  0.00  0.00    +0.002 A 
ATOM     20  C   UNL     1       1.297   2.565   5.778  0.00  0.00    +0.030 A 
ATOM     21  C   UNL     1       1.605   3.671   4.967  0.00  0.00    +0.089 A 
ATOM     22  C   UNL     1       0.744   4.005   3.892  0.00  0.00    +0.091 A 
ATOM     23  N   UNL     1       1.033   5.055   3.116  0.00  0.00    -0.252 NA
ATOM     24  C   UNL     1       2.111   5.766   3.358  0.00  0.00    +0.131 A 
ATOM     25  C   UNL     1       2.959   5.437   4.418  0.00  0.00    +0.131 A 
ATOM     26  N   UNL     1       2.697   4.410   5.193  0.00  0.00    -0.252 NA
ENDBRANCH  16  17
ENDBRANCH  14  16
ENDBRANCH   4   9
BRANCH   1  27
ATOM     27  C   UNL     1       2.170  -1.856  -2.501  0.00  0.00    +0.146 C 
BRANCH  27  28
ATOM     28  C   UNL     1       2.394  -2.318  -1.060  0.00  0.00    +0.179 C 
BRANCH  28  30
ATOM     29  C   UNL     1       1.229  -2.950   0.937  0.00  0.00    +0.194 C 
ATOM     30  O   UNL     1       1.131  -2.516  -0.421  0.00  0.00    -0.381 OA
ENDBRANCH  28  30
ENDBRANCH  27  28
ENDBRANCH   1  27
BRANCH   4  31
ATOM     31  C   UNL     1      -0.757   1.605  -3.746  0.00  0.00    +0.070 C 
BRANCH  31  32
ATOM     32  C   UNL     1      -0.001   1.160  -4.971  0.00  0.00    -0.045 A 
ATOM     33  C   UNL     1       0.954   1.988  -5.532  0.00  0.00    +0.006 A 
ATOM     34  C   UNL     1       1.652   1.578  -6.652  0.00  0.00    +0.038 A 
ATOM     35  C   UNL     1       1.387   0.343  -7.219  0.00  0.00    +0.123 A 
ATOM     36  C   UNL     1       0.426  -0.483  -6.660  0.00  0.00    +0.038 A 
ATOM     37  C   UNL     1      -0.266  -0.074  -5.536  0.00  0.00    +0.006 A 
ATOM     38  F   UNL     1       2.064  -0.056  -8.318  0.00  0.00    -0.205 F 
ENDBRANCH  31  32
ENDBRANCH   4  31
TORSDOF 8
