REMARK  Name = ZINC39545130
REMARK  8 active torsions:
REMARK  status: ('A' for Active; 'I' for Inactive)
REMARK    1  A    between atoms: C_1  and  C_2
REMARK    2  A    between atoms: C_2  and  C_3
REMARK    3  A    between atoms: C_2  and  S_4
REMARK    4  A    between atoms: S_4  and  C_7
REMARK    5  A    between atoms: C_9  and  C_21
REMARK    6  A    between atoms: N_23  and  C_24
REMARK    7  A    between atoms: N_23  and  C_30
REMARK    8  A    between atoms: C_35  and  O_36
REMARK                            x       y       z     vdW  Elec       q    Type
REMARK                         _______ _______ _______ _____ _____    ______ ____
ROOT
ATOM      1  C   UNL     1      -1.552  -2.395   0.249  0.00  0.00    +0.102 C 
ATOM      2  C   UNL     1      -0.907  -3.236  -0.830  0.00  0.00    +0.088 C 
ATOM      3  C   UNL     1      -0.997  -4.675  -0.288  0.00  0.00    +0.151 C 
ATOM      4  N   UNL     1      -1.694  -4.530   1.000  0.00  0.00    -0.369 NA
ATOM      5  C   UNL     1      -1.947  -3.170   1.226  0.00  0.00    +0.096 C 
ATOM      6  N   UNL     1      -2.553  -2.747   2.423  0.00  0.00    -0.302 N 
ATOM      7  C   UNL     1      -2.184  -3.480   3.564  0.00  0.00    +0.037 A 
ATOM      8  C   UNL     1      -2.634  -3.083   4.815  0.00  0.00    +0.023 A 
ATOM      9  C   UNL     1      -2.278  -3.809   5.936  0.00  0.00    +0.002 A 
ATOM     10  C   UNL     1      -1.476  -4.928   5.804  0.00  0.00    +0.000 A 
ATOM     11  C   UNL     1      -1.025  -5.321   4.559  0.00  0.00    +0.007 A 
ATOM     12  C   UNL     1      -1.372  -4.597   3.430  0.00  0.00    -0.010 A 
ATOM     13  C   UNL     1      -0.856  -5.038   2.091  0.00  0.00    +0.124 C 
ATOM     14  H   UNL     1      -3.178  -2.006   2.459  0.00  0.00    +0.153 HD
ATOM     15  H   UNL     1      -2.566  -5.038   0.974  0.00  0.00    +0.129 HD
ENDROOT
BRANCH   1  16
ATOM     16  S   UNL     1      -1.737  -0.644   0.200  0.00  0.00    -0.002 S 
ATOM     17  O   UNL     1      -2.406  -0.316   1.409  0.00  0.00    -0.169 OA
ATOM     18  O   UNL     1      -2.342  -0.378  -1.058  0.00  0.00    -0.169 OA
BRANCH  16  20
ATOM     19  C   UNL     1      -0.082   1.532   0.314  0.00  0.00    +0.032 C 
ATOM     20  C   UNL     1      -0.043   0.005   0.228  0.00  0.00    +0.130 C 
ATOM     21  C   UNL     1       0.698  -0.556   1.444  0.00  0.00    +0.032 C 
ENDBRANCH  16  20
ENDBRANCH   1  16
BRANCH   3  22
ATOM     22  C   UNL     1       0.381  -5.250  -0.083  0.00  0.00    +0.244 C 
ATOM     23  O   UNL     1       1.220  -4.613   0.519  0.00  0.00    -0.273 OA
ATOM     24  N   UNL     1       0.682  -6.470  -0.570  0.00  0.00    -0.235 N 
BRANCH  24  25
ATOM     25  C   UNL     1       1.918  -7.057  -0.272  0.00  0.00    +0.041 A 
ATOM     26  C   UNL     1       2.768  -6.461   0.650  0.00  0.00    +0.024 A 
ATOM     27  C   UNL     1       3.986  -7.043   0.941  0.00  0.00    +0.002 A 
ATOM     28  C   UNL     1       4.360  -8.218   0.315  0.00  0.00    +0.000 A 
ATOM     29  C   UNL     1       3.516  -8.814  -0.604  0.00  0.00    +0.002 A 
ATOM     30  C   UNL     1       2.294  -8.240  -0.895  0.00  0.00    +0.024 A 
ENDBRANCH  24  25
BRANCH  24  31
ATOM     31  C   UNL     1      -0.243  -7.152  -1.373  0.00  0.00    +0.083 A 
ATOM     32  C   UNL     1      -0.222  -6.988  -2.750  0.00  0.00    +0.027 A 
ATOM     33  C   UNL     1      -1.135  -7.661  -3.540  0.00  0.00    +0.002 A 
ATOM     34  C   UNL     1      -2.070  -8.498  -2.961  0.00  0.00    +0.004 A 
ATOM     35  C   UNL     1      -2.097  -8.667  -1.589  0.00  0.00    +0.047 A 
ATOM     36  C   UNL     1      -1.182  -8.001  -0.791  0.00  0.00    +0.138 A 
BRANCH  36  37
ATOM     37  O   UNL     1      -1.203  -8.170   0.558  0.00  0.00    -0.505 OA
ATOM     38  H   UNL     1      -1.773  -7.544   1.024  0.00  0.00    +0.292 HD
ENDBRANCH  36  37
ENDBRANCH  24  31
ENDBRANCH   3  22
TORSDOF 6
