REMARK  Name = ZINC05664436
REMARK  3 active torsions:
REMARK  status: ('A' for Active; 'I' for Inactive)
REMARK    1  A    between atoms: C_6  and  C_7
REMARK    2  A    between atoms: N_9  and  C_10
REMARK    3  A    between atoms: C_17  and  N_23
REMARK                            x       y       z     vdW  Elec       q    Type
REMARK                         _______ _______ _______ _____ _____    ______ ____
ROOT
ATOM      1  C   UNL     1      -2.449   1.120   0.020  0.00  0.00    +0.201 C 
ATOM      2  C   UNL     1      -2.829   0.761  -1.392  0.00  0.00    +0.116 C 
ATOM      3  N   UNL     1      -2.969   1.644  -2.296  0.00  0.00    -0.256 NA
ATOM      4  C   UNL     1      -2.781   2.986  -2.148  0.00  0.00    +0.085 A 
ATOM      5  C   UNL     1      -2.117   3.653  -3.190  0.00  0.00    +0.032 A 
ATOM      6  C   UNL     1      -1.894   5.009  -3.124  0.00  0.00    +0.035 A 
ATOM      7  C   UNL     1      -2.327   5.729  -2.024  0.00  0.00    +0.128 A 
ATOM      8  C   UNL     1      -2.978   5.088  -0.992  0.00  0.00    +0.058 A 
ATOM      9  C   UNL     1      -3.210   3.712  -1.040  0.00  0.00    +0.061 A 
ATOM     10  N   UNL     1      -3.863   3.145   0.047  0.00  0.00    -0.282 N 
ATOM     11  C   UNL     1      -3.549   1.973   0.600  0.00  0.00    +0.243 C 
ATOM     12  O   UNL     1      -4.154   1.589   1.579  0.00  0.00    -0.273 OA
ATOM     13  H   UNL     1      -4.604   3.639   0.432  0.00  0.00    +0.155 HD
ENDROOT
BRANCH   1  16
ATOM     14  C   UNL     1      -0.014   1.211   0.009  0.00  0.00    +0.245 C 
ATOM     15  O   UNL     1       0.002  -0.004   0.002  0.00  0.00    -0.270 OA
ATOM     16  N   UNL     1      -1.191   1.869   0.018  0.00  0.00    -0.296 N 
ATOM     17  H   UNL     1      -1.204   2.839   0.023  0.00  0.00    +0.150 HD
BRANCH  14  23
ATOM     18  C   UNL     1       1.239   3.364   0.002  0.00  0.00    +0.014 A 
ATOM     19  C   UNL     1       2.427   4.064   0.000  0.00  0.00    +0.021 A 
ATOM     20  C   UNL     1       3.635   3.385  -0.015  0.00  0.00    +0.041 A 
ATOM     21  C   UNL     1       3.657   2.000  -0.023  0.00  0.00    +0.021 A 
ATOM     22  C   UNL     1       2.475   1.289  -0.015  0.00  0.00    +0.014 A 
ATOM     23  C   UNL     1       1.255   1.968   0.001  0.00  0.00    +0.037 A 
ATOM     24 CL   UNL     1       5.126   4.273  -0.024  0.00  0.00    -0.084 Cl
ENDBRANCH  14  23
ENDBRANCH   1  16
BRANCH   7  25
ATOM     25  N   UNL     1      -2.091   7.189  -1.955  0.00  0.00    +0.056 N 
ATOM     26  O   UNL     1      -2.472   7.822  -0.988  0.00  0.00    -0.126 OA
ATOM     27  O   UNL     1      -1.515   7.756  -2.867  0.00  0.00    -0.126 OA
ENDBRANCH   7  25
TORSDOF 3
