REMARK  Name = ZINC67205019
REMARK  11 active torsions:
REMARK  status: ('A' for Active; 'I' for Inactive)
REMARK    1  A    between atoms: C_1  and  C_2
REMARK    2  A    between atoms: C_2  and  O_3
REMARK    3  A    between atoms: O_3  and  C_4
REMARK    4  A    between atoms: C_9  and  N_10
REMARK    5  A    between atoms: N_13  and  C_16
REMARK    6  A    between atoms: C_16  and  C_17
REMARK    7  A    between atoms: C_18  and  C_32
REMARK    8  A    between atoms: C_19  and  C_25
REMARK    9  A    between atoms: C_32  and  O_34
REMARK   10  A    between atoms: O_34  and  C_35
REMARK   11  A    between atoms: C_35  and  C_36
REMARK                            x       y       z     vdW  Elec       q    Type
REMARK                         _______ _______ _______ _____ _____    ______ ____
ROOT
ATOM      1  C   UNL     1       3.322  -0.045  -8.264  0.00  0.00    +0.038 C 
ATOM      2  C   UNL     1       3.487   1.292  -8.357  0.00  0.00    +0.079 C 
ATOM      3  C   UNL     1       2.517   2.064  -9.228  0.00  0.00    +0.145 C 
ATOM      4  N   UNL     1       1.466   1.287  -9.906  0.00  0.00    -0.288 N 
ATOM      5  C   UNL     1       1.429  -0.047  -9.715  0.00  0.00    +0.304 C 
ATOM      6  O   UNL     1       0.566  -0.697 -10.271  0.00  0.00    -0.252 OA
ATOM      7  N   UNL     1       2.317  -0.679  -8.938  0.00  0.00    -0.271 N 
ATOM      8  H   UNL     1       0.815   1.724 -10.477  0.00  0.00    +0.151 HD
ATOM      9  H   UNL     1       2.240  -1.642  -8.844  0.00  0.00    +0.156 HD
ENDROOT
BRANCH   3  10
ATOM     10  C   UNL     1       1.844   3.101  -8.367  0.00  0.00    -0.004 A 
ATOM     11  C   UNL     1       1.841   2.962  -6.991  0.00  0.00    +0.007 A 
ATOM     12  C   UNL     1       1.224   3.914  -6.201  0.00  0.00    +0.000 A 
ATOM     13  C   UNL     1       0.609   5.005  -6.786  0.00  0.00    +0.001 A 
ATOM     14  C   UNL     1       0.611   5.146  -8.161  0.00  0.00    +0.020 A 
ATOM     15  C   UNL     1       1.234   4.196  -8.952  0.00  0.00    +0.046 A 
ATOM     16 CL   UNL     1       1.242   4.375 -10.679  0.00  0.00    -0.083 Cl
ENDBRANCH   3  10
BRANCH   2  17
ATOM     17  C   UNL     1       4.531   1.949  -7.665  0.00  0.00    +0.339 C 
ATOM     18  O   UNL     1       5.223   1.331  -6.877  0.00  0.00    -0.245 OA
BRANCH  17  19
ATOM     19  O   UNL     1       4.759   3.263  -7.877  0.00  0.00    -0.462 OA
BRANCH  19  20
ATOM     20  C   UNL     1       5.829   3.862  -7.143  0.00  0.00    +0.229 C 
ATOM     21  C   UNL     1       5.934   5.343  -7.513  0.00  0.00    +0.048 C 
ENDBRANCH  19  20
ENDBRANCH  17  19
ENDBRANCH   2  17
BRANCH   1  22
ATOM     22  C   UNL     1       4.265  -0.851  -7.409  0.00  0.00    +0.136 C 
BRANCH  22  26
ATOM     23  N   UNL     1       3.110  -1.666  -3.457  0.00  0.00    -0.325 N 
ATOM     24  C   UNL     1       4.437  -1.064  -3.655  0.00  0.00    +0.120 C 
ATOM     25  C   UNL     1       4.867  -1.299  -5.107  0.00  0.00    +0.103 C 
ATOM     26  N   UNL     1       3.820  -0.803  -6.010  0.00  0.00    -0.294 NA
ATOM     27  C   UNL     1       2.565  -1.546  -5.831  0.00  0.00    +0.103 C 
ATOM     28  C   UNL     1       2.043  -1.326  -4.412  0.00  0.00    +0.120 C 
BRANCH  23  34
ATOM     29  C   UNL     1       2.424  -2.048  -1.168  0.00  0.00    +0.141 A 
ATOM     30  C   UNL     1       2.182  -2.921  -0.120  0.00  0.00    +0.047 A 
ATOM     31  C   UNL     1       2.387  -4.278  -0.288  0.00  0.00    +0.004 A 
ATOM     32  C   UNL     1       2.833  -4.768  -1.502  0.00  0.00    +0.002 A 
ATOM     33  C   UNL     1       3.077  -3.904  -2.553  0.00  0.00    +0.027 A 
ATOM     34  C   UNL     1       2.869  -2.542  -2.393  0.00  0.00    +0.072 A 
BRANCH  29  35
ATOM     35  O   UNL     1       2.224  -0.713  -1.004  0.00  0.00    -0.490 OA
BRANCH  35  37
ATOM     36  C   UNL     1       1.601   1.243   0.272  0.00  0.00    +0.048 C 
ATOM     37  C   UNL     1       1.768  -0.278   0.279  0.00  0.00    +0.226 C 
ENDBRANCH  35  37
ENDBRANCH  29  35
ENDBRANCH  23  34
ENDBRANCH  22  26
ENDBRANCH   1  22
TORSDOF 9
