REMARK  Name = ZINC38661684
REMARK  10 active torsions:
REMARK  status: ('A' for Active; 'I' for Inactive)
REMARK    1  A    between atoms: C_1  and  C_2
REMARK    2  A    between atoms: C_2  and  C_3
REMARK    3  A    between atoms: C_3  and  C_5
REMARK    4  A    between atoms: C_3  and  C_6
REMARK    5  A    between atoms: C_6  and  C_8
REMARK    6  A    between atoms: C_6  and  N_26
REMARK    7  A    between atoms: C_12  and  S_14
REMARK    8  A    between atoms: S_14  and  C_15
REMARK    9  A    between atoms: C_15  and  C_16
REMARK   10  A    between atoms: C_18  and  C_25
REMARK                            x       y       z     vdW  Elec       q    Type
REMARK                         _______ _______ _______ _____ _____    ______ ____
ROOT
ATOM      1  C   UNL     1       1.347  -2.517  -2.587  0.00  0.00    +0.263 C 
ATOM      2  N   UNL     1       1.211  -3.978  -2.719  0.00  0.00    -0.229 N 
ATOM      3  N   UNL     1       2.521  -4.477  -2.674  0.00  0.00    -0.140 NA
ATOM      4  C   UNL     1       3.365  -3.512  -2.538  0.00  0.00    +0.269 C 
ATOM      5  O   UNL     1       2.761  -2.301  -2.478  0.00  0.00    -0.449 OA
ATOM      6  H   UNL     1       0.391  -4.487  -2.815  0.00  0.00    +0.172 HD
ENDROOT
BRANCH   1   7
ATOM      7  C   UNL     1       0.630  -2.023  -1.329  0.00  0.00    -0.010 C 
BRANCH   7   8
ATOM      8  N   UNL     1       1.269  -2.607  -0.141  0.00  0.00    +0.384 N 
ATOM      9  H   UNL     1       1.211  -3.613  -0.189  0.00  0.00    -0.089 HD
ATOM     10  H   UNL     1       2.238  -2.327  -0.109  0.00  0.00    -0.089 HD
ATOM     11  H   UNL     1       0.797  -2.281   0.689  0.00  0.00    -0.089 HD
ENDBRANCH   7   8
BRANCH   7  12
ATOM     12  C   UNL     1       0.718  -0.497  -1.257  0.00  0.00    -0.024 C 
ATOM     13  C   UNL     1       2.187  -0.073  -1.207  0.00  0.00    +0.006 C 
BRANCH  12  15
ATOM     14  C   UNL     1      -0.019   1.526   0.010  0.00  0.00    +0.004 C 
ATOM     15  C   UNL     1       0.002  -0.004   0.002  0.00  0.00    -0.002 C 
ENDBRANCH  12  15
ENDBRANCH   7  12
ENDBRANCH   1   7
BRANCH   4  16
ATOM     16  S   UNL     1       5.109  -3.742  -2.442  0.00  0.00    -0.061 S 
BRANCH  16  17
ATOM     17  C   UNL     1       5.324  -5.538  -2.579  0.00  0.00    +0.121 C 
BRANCH  17  18
ATOM     18  C   UNL     1       6.791  -5.875  -2.511  0.00  0.00    +0.046 A 
ATOM     19  H   UNL     1       9.028  -7.112  -0.545  0.00  0.00    +0.170 HD
ATOM     20  C   UNL     1       7.316  -6.420  -1.393  0.00  0.00    +0.026 A 
ATOM     21  N   UNL     1       8.651  -6.720  -1.348  0.00  0.00    -0.311 N 
ATOM     22  C   UNL     1       9.444  -6.477  -2.407  0.00  0.00    +0.327 A 
ATOM     23  O   UNL     1      10.627  -6.751  -2.345  0.00  0.00    -0.247 OA
ATOM     24  N   UNL     1       8.946  -5.935  -3.534  0.00  0.00    -0.275 N 
ATOM     25  C   UNL     1       7.636  -5.631  -3.621  0.00  0.00    +0.258 A 
ATOM     26  O   UNL     1       7.184  -5.145  -4.642  0.00  0.00    -0.267 OA
ATOM     27  C   UNL     1       6.438  -6.696  -0.200  0.00  0.00    +0.064 C 
ATOM     28  H   UNL     1       9.532  -5.767  -4.289  0.00  0.00    +0.173 HD
ENDBRANCH  17  18
ENDBRANCH  16  17
ENDBRANCH   4  16
TORSDOF 7
