REMARK  Name = ZINC12343284
REMARK  5 active torsions:
REMARK  status: ('A' for Active; 'I' for Inactive)
REMARK    1  A    between atoms: C_1  and  C_2
REMARK    2  A    between atoms: C_2  and  C_16
REMARK    3  A    between atoms: N_3  and  N_4
REMARK    4  A    between atoms: C_8  and  C_12
REMARK    5  A    between atoms: C_19  and  N_22
REMARK                            x       y       z     vdW  Elec       q    Type
REMARK                         _______ _______ _______ _____ _____    ______ ____
ROOT
ATOM      1  N   UNL     1      -1.231   1.988   0.019  0.00  0.00    -0.219 N 
ATOM      2  C   UNL     1      -0.016   1.322   0.009  0.00  0.00    +0.160 A 
ATOM      3  C   UNL     1       1.170   2.055   0.002  0.00  0.00    +0.102 A 
ATOM      4  C   UNL     1       2.378   1.385  -0.013  0.00  0.00    +0.083 A 
ATOM      5  C   UNL     1       2.361  -0.020  -0.020  0.00  0.00    +0.108 A 
ATOM      6  C   UNL     1       1.131  -0.683  -0.013  0.00  0.00    +0.150 A 
ATOM      7  N   UNL     1       0.002  -0.004   0.002  0.00  0.00    -0.216 NA
ATOM      8 CL   UNL     1       1.090  -2.419  -0.021  0.00  0.00    -0.061 Cl
ATOM      9 CL   UNL     1       3.879   2.257  -0.022  0.00  0.00    -0.080 Cl
ATOM     10 CL   UNL     1       1.129   3.791   0.011  0.00  0.00    -0.078 Cl
ATOM     11  H   UNL     1      -1.252   2.958   0.024  0.00  0.00    +0.176 HD
ENDROOT
BRANCH   1  14
ATOM     12  C   UNL     1      -3.599   3.393   0.037  0.00  0.00    +0.068 C 
ATOM     13  C   UNL     1      -3.567   1.886   0.029  0.00  0.00    +0.063 C 
ATOM     14  N   UNL     1      -2.428   1.262   0.020  0.00  0.00    -0.186 NA
BRANCH  13  15
ATOM     15  C   UNL     1      -4.827   1.121   0.031  0.00  0.00    -0.002 A 
ATOM     16  C   UNL     1      -6.053   1.792   0.046  0.00  0.00    +0.011 A 
ATOM     17  C   UNL     1      -7.229   1.074   0.042  0.00  0.00    +0.023 A 
ATOM     18  C   UNL     1      -7.196  -0.317   0.034  0.00  0.00    +0.025 A 
ATOM     19  C   UNL     1      -5.978  -0.987   0.025  0.00  0.00    +0.023 A 
ATOM     20  C   UNL     1      -4.798  -0.276   0.023  0.00  0.00    +0.011 A 
BRANCH  18  21
ATOM     21  N   UNL     1      -8.389  -1.040   0.035  0.00  0.00    -0.358 N 
ATOM     22  H   UNL     1      -8.368  -2.010   0.030  0.00  0.00    +0.142 HD
ATOM     23  H   UNL     1      -9.240  -0.574   0.041  0.00  0.00    +0.142 HD
ENDBRANCH  18  21
ENDBRANCH  13  15
ENDBRANCH   1  14
BRANCH   5  24
ATOM     24  C   UNL     1       3.586  -0.761  -0.036  0.00  0.00    +0.104 C 
ATOM     25  N   UNL     1       4.558  -1.349  -0.048  0.00  0.00    -0.191 NA
ENDBRANCH   5  24
TORSDOF 4
