REMARK  Name = ZINC39658141
REMARK  7 active torsions:
REMARK  status: ('A' for Active; 'I' for Inactive)
REMARK    1  A    between atoms: C_1  and  C_2
REMARK    2  A    between atoms: C_2  and  N_3
REMARK    3  A    between atoms: C_4  and  C_10
REMARK    4  A    between atoms: C_6  and  C_8
REMARK    5  A    between atoms: C_14  and  C_23
REMARK    6  A    between atoms: N_25  and  C_26
REMARK    7  A    between atoms: C_29  and  C_32
REMARK                            x       y       z     vdW  Elec       q    Type
REMARK                         _______ _______ _______ _____ _____    ______ ____
ROOT
ATOM      1  C   UNL     1      -2.386  -0.345  -3.043  0.00  0.00    +0.266 C 
ATOM      2  O   UNL     1      -3.087  -0.575  -4.010  0.00  0.00    -0.268 OA
ATOM      3  N   UNL     1      -2.948   0.032  -1.878  0.00  0.00    -0.295 N 
ATOM      4  C   UNL     1      -2.278   0.251  -0.574  0.00  0.00    +0.121 C 
ATOM      5  C   UNL     1      -2.976   1.495   0.020  0.00  0.00    +0.100 C 
ATOM      6  C   UNL     1      -4.354   1.535  -0.662  0.00  0.00    -0.004 C 
ATOM      7  C   UNL     1      -4.377   0.328  -1.611  0.00  0.00    +0.115 C 
ATOM      8  C   UNL     1      -4.513   2.827  -1.458  0.00  0.00    -0.010 C 
ATOM      9  C   UNL     1      -5.911   2.870  -2.079  0.00  0.00    -0.082 C 
ATOM     10  N   UNL     1      -6.923   2.797  -1.018  0.00  0.00    +0.379 N 
ATOM     11  C   UNL     1      -6.823   1.511  -0.318  0.00  0.00    -0.082 C 
ATOM     12  C   UNL     1      -5.463   1.411   0.378  0.00  0.00    -0.010 C 
ATOM     13  H   UNL     1      -6.774   3.549  -0.361  0.00  0.00    -0.086 HD
ATOM     14  H   UNL     1      -7.842   2.887  -1.425  0.00  0.00    -0.086 HD
ENDROOT
BRANCH   1  16
ATOM     15  N   UNL     1      -0.174  -1.565  -2.794  0.00  0.00    -0.258 N 
ATOM     16  C   UNL     1      -0.925  -0.479  -3.145  0.00  0.00    +0.138 A 
ATOM     17  C   UNL     1      -0.034   0.471  -3.617  0.00  0.00    +0.071 A 
ATOM     18  C   UNL     1       1.227  -0.123  -3.516  0.00  0.00    +0.075 A 
ATOM     19  N   UNL     1       1.067  -1.322  -3.018  0.00  0.00    -0.175 NA
ATOM     20  C   UNL     1       2.539   0.508  -3.906  0.00  0.00    +0.069 C 
ATOM     21 BR   UNL     1      -0.438   2.202  -4.262  0.00  0.00    -0.046 Br
BRANCH  15  23
ATOM     22  C   UNL     1      -0.607  -2.778  -0.714  0.00  0.00    +0.029 C 
ATOM     23  C   UNL     1      -0.703  -2.815  -2.241  0.00  0.00    +0.141 C 
ENDBRANCH  15  23
ENDBRANCH   1  16
BRANCH   5  24
ATOM     24  C   UNL     1      -2.192   2.741  -0.303  0.00  0.00    +0.218 C 
ATOM     25  O   UNL     1      -1.528   2.794  -1.316  0.00  0.00    -0.275 OA
ATOM     26  N   UNL     1      -2.229   3.796   0.535  0.00  0.00    -0.312 N 
ATOM     27  H   UNL     1      -2.700   3.728   1.381  0.00  0.00    +0.149 HD
BRANCH  26  28
ATOM     28  C   UNL     1      -1.558   5.046   0.169  0.00  0.00    +0.073 C 
ATOM     29  C   UNL     1      -0.099   4.995   0.627  0.00  0.00    +0.023 C 
ATOM     30  C   UNL     1       0.602   6.300   0.244  0.00  0.00    +0.016 C 
ATOM     31  C   UNL     1      -0.104   7.475   0.923  0.00  0.00    +0.102 C 
ATOM     32  C   UNL     1      -1.563   7.527   0.465  0.00  0.00    +0.016 C 
ATOM     33  C   UNL     1      -2.264   6.222   0.848  0.00  0.00    +0.023 C 
BRANCH  31  34
ATOM     34  C   UNL     1       0.586   8.761   0.546  0.00  0.00    +0.359 C 
ATOM     35  O   UNL     1      -0.050   9.800   0.488  0.00  0.00    -0.246 OA
ATOM     36  O   UNL     1       1.780   8.763   0.301  0.00  0.00    -0.246 OA
ENDBRANCH  31  34
ENDBRANCH  26  28
ENDBRANCH   5  24
TORSDOF 5
