REMARK  Name = ZINC52595457
REMARK  8 active torsions:
REMARK  status: ('A' for Active; 'I' for Inactive)
REMARK    1  A    between atoms: C_3  and  C_24
REMARK    2  A    between atoms: C_5  and  N_12
REMARK    3  A    between atoms: C_6  and  O_11
REMARK    4  A    between atoms: N_13  and  C_14
REMARK    5  A    between atoms: C_17  and  S_20
REMARK    6  A    between atoms: S_20  and  N_23
REMARK    7  A    between atoms: C_24  and  C_25
REMARK    8  A    between atoms: C_25  and  C_26
REMARK                            x       y       z     vdW  Elec       q    Type
REMARK                         _______ _______ _______ _____ _____    ______ ____
ROOT
ATOM      1  C   UNL     1       0.581   1.031  -1.000  0.00  0.00    +0.002 A 
ATOM      2  C   UNL     1       1.848   1.601  -0.819  0.00  0.00    +0.004 A 
ATOM      3  C   UNL     1       2.940   0.842  -0.559  0.00  0.00    -0.036 A 
ATOM      4  C   UNL     1       2.811  -0.563  -0.467  0.00  0.00    +0.029 A 
ATOM      5  C   UNL     1       3.728  -1.576  -0.218  0.00  0.00    +0.121 C 
ATOM      6  C   UNL     1       2.933  -2.862  -0.255  0.00  0.00    +0.262 C 
ATOM      7  N   UNL     1       1.547  -2.475  -0.536  0.00  0.00    -0.354 N 
ATOM      8  C   UNL     1       1.478  -1.170  -0.656  0.00  0.00    +0.047 A 
ATOM      9  C   UNL     1       0.381  -0.304  -0.926  0.00  0.00    +0.026 A 
ATOM     10  H   UNL     1       0.799  -3.086  -0.620  0.00  0.00    +0.162 HD
ENDROOT
BRANCH   6  11
ATOM     11  O   UNL     1       3.012  -3.526   1.008  0.00  0.00    -0.367 OA
ATOM     12  H   UNL     1       2.522  -4.359   1.046  0.00  0.00    +0.212 HD
ENDBRANCH   6  11
BRANCH   5  13
ATOM     13  N   UNL     1       5.041  -1.442   0.007  0.00  0.00    -0.148 NA
ATOM     14  N   UNL     1       5.784  -2.489   0.134  0.00  0.00    -0.149 NA
BRANCH  14  15
ATOM     15  C   UNL     1       7.089  -2.357   0.487  0.00  0.00    +0.086 A 
ATOM     16  C   UNL     1       7.602  -1.100   0.838  0.00  0.00    +0.031 A 
ATOM     17  C   UNL     1       8.926  -0.976   1.195  0.00  0.00    +0.030 A 
ATOM     18  C   UNL     1       9.751  -2.089   1.209  0.00  0.00    +0.105 A 
ATOM     19  C   UNL     1       9.254  -3.335   0.865  0.00  0.00    +0.030 A 
ATOM     20  C   UNL     1       7.930  -3.478   0.510  0.00  0.00    +0.031 A 
BRANCH  18  21
ATOM     21  S   UNL     1      11.444  -1.918   1.667  0.00  0.00    +0.056 S 
ATOM     22  O   UNL     1      12.137  -3.008   1.076  0.00  0.00    -0.153 OA
ATOM     23  O   UNL     1      11.798  -0.564   1.418  0.00  0.00    -0.153 OA
BRANCH  21  24
ATOM     24  N   UNL     1      11.532  -2.135   3.307  0.00  0.00    -0.204 NA
ATOM     25  H   UNL     1      10.727  -2.318   3.816  0.00  0.00    +0.144 HD
ATOM     26  H   UNL     1      12.389  -2.079   3.758  0.00  0.00    +0.144 HD
ENDBRANCH  21  24
ENDBRANCH  18  21
ENDBRANCH  14  15
ENDBRANCH   5  13
BRANCH   3  27
ATOM     27  C   UNL     1       4.286   1.493  -0.371  0.00  0.00    +0.040 C 
BRANCH  27  28
ATOM     28  C   UNL     1       5.026   1.530  -1.710  0.00  0.00    +0.040 C 
BRANCH  28  29
ATOM     29  C   UNL     1       6.313   2.299  -1.552  0.00  0.00    -0.044 A 
ATOM     30  C   UNL     1       6.369   3.655  -1.835  0.00  0.00    +0.023 A 
ATOM     31  C   UNL     1       7.566   4.327  -1.678  0.00  0.00    +0.111 A 
ATOM     32  N   UNL     1       8.646   3.692  -1.265  0.00  0.00    -0.263 NA
ATOM     33  C   UNL     1       8.630   2.404  -0.987  0.00  0.00    +0.111 A 
ATOM     34  C   UNL     1       7.467   1.668  -1.114  0.00  0.00    +0.023 A 
ENDBRANCH  28  29
ENDBRANCH  27  28
ENDBRANCH   3  27
TORSDOF 8
