REMARK  Name = ZINC11815564
REMARK  9 active torsions:
REMARK  status: ('A' for Active; 'I' for Inactive)
REMARK    1  A    between atoms: C_1  and  C_2
REMARK    2  A    between atoms: C_5  and  C_7
REMARK    3  A    between atoms: C_7  and  C_9
REMARK    4  A    between atoms: C_7  and  C_10
REMARK    5  A    between atoms: C_10  and  C_11
REMARK    6  A    between atoms: C_11  and  N_61
REMARK    7  A    between atoms: C_14  and  C_17
REMARK    8  A    between atoms: C_17  and  C_24
REMARK    9  A    between atoms: C_24  and  C_25
REMARK                            x       y       z     vdW  Elec       q    Type
REMARK                         _______ _______ _______ _____ _____    ______ ____
ROOT
ATOM      1  C   UNL     1       1.277  -3.779  -3.722  0.00  0.00    -0.078 C 
ATOM      2  C   UNL     1       0.587  -4.445  -4.914  0.00  0.00    -0.013 C 
ATOM      3  C   UNL     1       1.264  -5.788  -5.205  0.00  0.00    +0.018 C 
ATOM      4  C   UNL     1       1.197  -6.665  -3.952  0.00  0.00    -0.013 C 
ATOM      5  C   UNL     1       1.870  -5.935  -2.787  0.00  0.00    -0.078 C 
ATOM      6  N   UNL     1       1.157  -4.663  -2.543  0.00  0.00    +0.380 N 
ATOM      7  H   UNL     1       0.164  -4.864  -2.377  0.00  0.00    -0.082 HD
ENDROOT
BRANCH   3   8
ATOM      8  C   UNL     1       0.539  -6.486  -6.357  0.00  0.00    +0.119 C 
ATOM      9  C   UNL     1       1.104  -7.876  -6.578  0.00  0.00    +0.245 C 
ATOM     10  O   UNL     1       2.240  -8.164  -6.887  0.00  0.00    -0.273 OA
ATOM     11  N   UNL     1       0.080  -8.724  -6.360  0.00  0.00    -0.238 N 
ATOM     12  C   UNL     1      -1.042  -8.071  -6.036  0.00  0.00    +0.307 C 
ATOM     13  O   UNL     1      -2.098  -8.621  -5.794  0.00  0.00    -0.252 OA
ATOM     14  N   UNL     1      -0.870  -6.737  -6.008  0.00  0.00    -0.284 N 
ATOM     15  H   UNL     1       0.147  -9.689  -6.431  0.00  0.00    +0.159 HD
ATOM     16  H   UNL     1      -1.542  -6.070  -5.799  0.00  0.00    +0.151 HD
BRANCH   8  17
ATOM     17  C   UNL     1       0.637  -5.652  -7.636  0.00  0.00    +0.073 C 
BRANCH  17  18
ATOM     18  C   UNL     1      -0.185  -6.299  -8.721  0.00  0.00    -0.010 A 
ATOM     19  C   UNL     1       0.416  -7.150  -9.630  0.00  0.00    +0.006 A 
ATOM     20  C   UNL     1      -0.339  -7.748 -10.622  0.00  0.00    +0.000 A 
ATOM     21  C   UNL     1      -1.694  -7.486 -10.713  0.00  0.00    +0.003 A 
ATOM     22  C   UNL     1      -2.296  -6.632  -9.809  0.00  0.00    +0.038 A 
ATOM     23  C   UNL     1      -1.542  -6.037  -8.812  0.00  0.00    +0.127 A 
ATOM     24  F   UNL     1      -2.129  -5.201  -7.928  0.00  0.00    -0.205 F 
ENDBRANCH  17  18
ENDBRANCH   8  17
ENDBRANCH   3   8
BRANCH   6  25
ATOM     25  C   UNL     1       1.716  -3.993  -1.351  0.00  0.00    -0.078 C 
BRANCH  25  26
ATOM     26  C   UNL     1       1.165  -2.567  -1.273  0.00  0.00    -0.008 C 
BRANCH  26  27
ATOM     27  C   UNL     1       1.717  -1.875  -0.025  0.00  0.00    +0.050 C 
ATOM     28  C   UNL     1       1.190  -2.581   1.226  0.00  0.00    +0.015 C 
BRANCH  27  33
ATOM     29  C   UNL     1      -1.250   2.203   0.020  0.00  0.00    +0.086 C 
ATOM     30  C   UNL     1      -0.016   1.339   0.009  0.00  0.00    +0.102 A 
ATOM     31  C   UNL     1       1.254   1.781  -0.000  0.00  0.00    +0.044 A 
ATOM     32  C   UNL     1       2.086   0.638  -0.014  0.00  0.00    +0.045 A 
ATOM     33  C   UNL     1       1.274  -0.435  -0.012  0.00  0.00    +0.108 A 
ATOM     34  O   UNL     1       0.002  -0.004   0.002  0.00  0.00    -0.465 OA
ENDBRANCH  27  33
ENDBRANCH  26  27
ENDBRANCH  25  26
ENDBRANCH   6  25
TORSDOF 7
