REMARK  Name = ZINC09092481
REMARK  6 active torsions:
REMARK  status: ('A' for Active; 'I' for Inactive)
REMARK    1  A    between atoms: C_5  and  C_7
REMARK    2  A    between atoms: C_9  and  C_12
REMARK    3  A    between atoms: C_12  and  S_13
REMARK    4  A    between atoms: S_13  and  C_14
REMARK    5  A    between atoms: C_17  and  C_20
REMARK    6  A    between atoms: N_18  and  N_19
REMARK                            x       y       z     vdW  Elec       q    Type
REMARK                         _______ _______ _______ _____ _____    ______ ____
ROOT
ATOM      1  C   UNL     1      -0.886   3.837   1.169  0.00  0.00    +0.209 A 
ATOM      2  N   UNL     1      -0.299   4.457   0.169  0.00  0.00    -0.121 NA
ATOM      3  N   UNL     1      -0.217   5.715   0.418  0.00  0.00    -0.127 NA
ATOM      4  C   UNL     1      -0.737   5.974   1.595  0.00  0.00    +0.183 A 
ATOM      5  N   UNL     1      -1.181   4.779   2.112  0.00  0.00    -0.224 N 
ENDROOT
BRANCH   4   6
ATOM      6  C   UNL     1      -0.828   7.300   2.243  0.00  0.00    +0.035 A 
ATOM      7  C   UNL     1      -0.444   7.457   3.575  0.00  0.00    +0.013 A 
ATOM      8  C   UNL     1      -0.531   8.697   4.174  0.00  0.00    +0.001 A 
ATOM      9  C   UNL     1      -0.997   9.784   3.456  0.00  0.00    +0.001 A 
ATOM     10  C   UNL     1      -1.379   9.636   2.135  0.00  0.00    +0.016 A 
ATOM     11  C   UNL     1      -1.292   8.402   1.522  0.00  0.00    +0.029 A 
ATOM     12 BR   UNL     1      -1.806   8.204  -0.287  0.00  0.00    -0.050 Br
ENDBRANCH   4   6
BRANCH   5  13
ATOM     13  N   UNL     1      -1.791   4.578   3.318  0.00  0.00    -0.295 N 
ATOM     14  H   UNL     1      -1.972   5.428   3.991  0.00  0.00    +0.163 HD
ATOM     15  H   UNL     1      -2.100   3.565   3.615  0.00  0.00    +0.163 HD
ENDBRANCH   5  13
BRANCH   1  16
ATOM     16  S   UNL     1      -1.223   2.111   1.275  0.00  0.00    -0.078 S 
BRANCH  16  17
ATOM     17  C   UNL     1      -0.553   1.562  -0.315  0.00  0.00    +0.133 C 
BRANCH  17  20
ATOM     18  C   UNL     1       0.064  -2.060  -0.129  0.00  0.00    +0.110 A 
ATOM     19  N   UNL     1       0.201  -0.746  -0.027  0.00  0.00    -0.243 NA
ATOM     20  C   UNL     1      -0.736   0.072  -0.449  0.00  0.00    +0.059 A 
ATOM     21  C   UNL     1      -1.868  -0.428  -1.011  0.00  0.00    +0.071 A 
ATOM     22  S   UNL     1      -1.541  -2.183  -0.908  0.00  0.00    -0.075 S 
BRANCH  18  27
ATOM     23  C   UNL     1       1.519  -5.471   0.467  0.00  0.00    +0.001 A 
ATOM     24  C   UNL     1       2.727  -5.149   1.060  0.00  0.00    +0.001 A 
ATOM     25  C   UNL     1       3.072  -3.826   1.267  0.00  0.00    +0.020 A 
ATOM     26  C   UNL     1       2.213  -2.817   0.879  0.00  0.00    +0.051 A 
ATOM     27  C   UNL     1       0.991  -3.135   0.285  0.00  0.00    +0.025 A 
ATOM     28  C   UNL     1       0.650  -4.473   0.078  0.00  0.00    +0.012 A 
ATOM     29 CL   UNL     1       2.651  -1.156   1.134  0.00  0.00    -0.083 Cl
ENDBRANCH  18  27
ENDBRANCH  17  20
ENDBRANCH  16  17
ENDBRANCH   1  16
TORSDOF 6
