REMARK  Name = ZINC41583625
REMARK  13 active torsions:
REMARK  status: ('A' for Active; 'I' for Inactive)
REMARK    1  A    between atoms: C_1  and  C_2
REMARK    2  A    between atoms: C_4  and  O_36
REMARK    3  A    between atoms: C_5  and  C_25
REMARK    4  A    between atoms: C_11  and  C_12
REMARK    5  A    between atoms: C_14  and  O_22
REMARK    6  A    between atoms: C_15  and  O_20
REMARK    7  A    between atoms: C_17  and  O_18
REMARK    8  A    between atoms: O_18  and  C_19
REMARK    9  A    between atoms: O_20  and  C_21
REMARK   10  A    between atoms: O_22  and  C_23
REMARK   11  A    between atoms: C_25  and  N_26
REMARK   12  A    between atoms: C_28  and  C_35
REMARK   13  A    between atoms: C_31  and  C_34
REMARK                            x       y       z     vdW  Elec       q    Type
REMARK                         _______ _______ _______ _____ _____    ______ ____
ROOT
ATOM      1  C   UNL     1      -1.803   1.412   0.331  0.00  0.00    +0.045 C 
ATOM      2  C   UNL     1      -1.467  -0.054   0.239  0.00  0.00    -0.033 A 
ATOM      3  C   UNL     1      -1.601  -0.713  -0.950  0.00  0.00    +0.050 A 
ATOM      4  C   UNL     1      -1.291  -2.068  -1.038  0.00  0.00    +0.122 A 
ATOM      5  C   UNL     1      -0.844  -2.762   0.075  0.00  0.00    +0.020 A 
ATOM      6  C   UNL     1      -0.702  -2.106   1.292  0.00  0.00    +0.145 A 
ATOM      7  C   UNL     1      -1.013  -0.739   1.367  0.00  0.00    +0.071 A 
ATOM      8  C   UNL     1      -0.760  -0.331   2.761  0.00  0.00    +0.232 C 
ATOM      9  O   UNL     1      -0.908   0.775   3.253  0.00  0.00    -0.283 OA
ATOM     10  C   UNL     1      -0.292  -1.554   3.424  0.00  0.00    +0.176 C 
ATOM     11  C   UNL     1       0.067  -1.672   4.730  0.00  0.00    +0.062 C 
ATOM     12  O   UNL     1      -0.293  -2.546   2.502  0.00  0.00    -0.451 OA
ENDROOT
BRANCH  11  13
ATOM     13  C   UNL     1       0.168  -0.477   5.572  0.00  0.00    +0.024 A 
ATOM     14  C   UNL     1       0.759   0.691   5.070  0.00  0.00    +0.061 A 
ATOM     15  C   UNL     1       0.852   1.811   5.868  0.00  0.00    +0.162 A 
ATOM     16  C   UNL     1       0.359   1.785   7.174  0.00  0.00    +0.165 A 
ATOM     17  C   UNL     1      -0.226   0.634   7.678  0.00  0.00    +0.095 A 
ATOM     18  C   UNL     1      -0.332  -0.496   6.886  0.00  0.00    +0.131 A 
BRANCH  18  19
ATOM     19  O   UNL     1      -0.911  -1.621   7.378  0.00  0.00    -0.494 OA
ATOM     20  C   UNL     1      -1.396  -1.566   8.721  0.00  0.00    +0.277 C 
ENDBRANCH  18  19
BRANCH  16  21
ATOM     21  O   UNL     1       0.454   2.893   7.955  0.00  0.00    -0.491 OA
ATOM     22  C   UNL     1      -0.070   2.799   9.281  0.00  0.00    +0.277 C 
ENDBRANCH  16  21
BRANCH  15  23
ATOM     23  O   UNL     1       1.425   2.945   5.381  0.00  0.00    -0.491 OA
ATOM     24  C   UNL     1       1.909   2.903   4.037  0.00  0.00    +0.277 C 
ENDBRANCH  15  23
ENDBRANCH  11  13
BRANCH   4  25
ATOM     25  O   UNL     1      -1.427  -2.714  -2.223  0.00  0.00    -0.506 OA
ATOM     26  H   UNL     1      -0.633  -2.697  -2.775  0.00  0.00    +0.292 HD
ENDBRANCH   4  25
BRANCH   5  27
ATOM     27  C   UNL     1      -0.513  -4.228  -0.034  0.00  0.00    -0.036 C 
BRANCH  27  28
ATOM     28  N   UNL     1       0.902  -4.385  -0.395  0.00  0.00    +0.383 N 
ATOM     29  C   UNL     1       1.129  -3.826  -1.733  0.00  0.00    -0.075 C 
ATOM     30  C   UNL     1       2.617  -3.914  -2.081  0.00  0.00    -0.031 C 
ATOM     31  C   UNL     1       3.055  -5.381  -2.057  0.00  0.00    +0.003 C 
ATOM     32  C   UNL     1       2.746  -5.974  -0.680  0.00  0.00    -0.031 C 
ATOM     33  C   UNL     1       1.253  -5.810  -0.384  0.00  0.00    -0.075 C 
ATOM     34  C   UNL     1       3.109  -7.460  -0.670  0.00  0.00    +0.005 C 
ATOM     35  C   UNL     1       3.429  -3.120  -1.056  0.00  0.00    +0.005 C 
ATOM     36  H   UNL     1       1.475  -3.893   0.274  0.00  0.00    -0.081 HD
ENDBRANCH  27  28
ENDBRANCH   5  27
TORSDOF 7
