REMARK  Name = ZINC39545633
REMARK  8 active torsions:
REMARK  status: ('A' for Active; 'I' for Inactive)
REMARK    1  A    between atoms: C_1  and  C_2
REMARK    2  A    between atoms: C_2  and  O_3
REMARK    3  A    between atoms: O_3  and  N_4
REMARK    4  A    between atoms: N_4  and  C_5
REMARK    5  A    between atoms: C_10  and  O_11
REMARK    6  A    between atoms: C_12  and  C_14
REMARK    7  A    between atoms: C_17  and  S_28
REMARK    8  A    between atoms: S_28  and  C_31
REMARK                            x       y       z     vdW  Elec       q    Type
REMARK                         _______ _______ _______ _____ _____    ______ ____
ROOT
ATOM      1  C   UNL     1       2.893  -1.773  -0.057  0.00  0.00    +0.152 C 
ATOM      2  C   UNL     1       3.606  -0.828  -1.043  0.00  0.00    +0.088 C 
ATOM      3  C   UNL     1       5.043  -1.297  -1.032  0.00  0.00    +0.107 C 
ATOM      4  C   UNL     1       5.162  -2.315  -0.218  0.00  0.00    +0.097 C 
ATOM      5  N   UNL     1       6.354  -2.997   0.084  0.00  0.00    -0.302 N 
ATOM      6  C   UNL     1       6.468  -3.427   1.417  0.00  0.00    +0.037 A 
ATOM      7  C   UNL     1       7.649  -4.008   1.857  0.00  0.00    +0.023 A 
ATOM      8  C   UNL     1       7.757  -4.439   3.164  0.00  0.00    +0.002 A 
ATOM      9  C   UNL     1       6.688  -4.289   4.029  0.00  0.00    +0.000 A 
ATOM     10  C   UNL     1       5.514  -3.706   3.593  0.00  0.00    +0.007 A 
ATOM     11  C   UNL     1       5.397  -3.267   2.285  0.00  0.00    -0.010 A 
ATOM     12  C   UNL     1       4.113  -2.612   1.845  0.00  0.00    +0.124 C 
ATOM     13  N   UNL     1       3.954  -2.690   0.392  0.00  0.00    -0.368 NA
ATOM     14  H   UNL     1       7.045  -3.159  -0.577  0.00  0.00    +0.153 HD
ATOM     15  H   UNL     1       3.719  -3.636   0.129  0.00  0.00    +0.129 HD
ENDROOT
BRANCH   1  17
ATOM     16  N   UNL     1       0.745  -1.875  -1.279  0.00  0.00    -0.143 N 
ATOM     17  C   UNL     1       1.797  -2.535  -0.755  0.00  0.00    +0.262 C 
ATOM     18  O   UNL     1       1.860  -3.744  -0.845  0.00  0.00    -0.271 OA
BRANCH  16  19
ATOM     19  C   UNL     1      -0.275  -2.584  -1.928  0.00  0.00    +0.106 A 
ATOM     20  C   UNL     1      -1.319  -3.129  -1.194  0.00  0.00    +0.029 A 
ATOM     21  C   UNL     1      -2.323  -3.827  -1.836  0.00  0.00    +0.002 A 
ATOM     22  C   UNL     1      -2.292  -3.985  -3.209  0.00  0.00    +0.004 A 
ATOM     23  C   UNL     1      -1.254  -3.446  -3.947  0.00  0.00    +0.047 A 
ATOM     24  C   UNL     1      -0.246  -2.738  -3.312  0.00  0.00    +0.140 A 
BRANCH  24  25
ATOM     25  O   UNL     1       0.771  -2.201  -4.037  0.00  0.00    -0.505 OA
ATOM     26  H   UNL     1       1.526  -2.794  -4.153  0.00  0.00    +0.292 HD
ENDBRANCH  24  25
ENDBRANCH  16  19
BRANCH  16  27
ATOM     27  O   UNL     1       0.671  -0.465  -1.174  0.00  0.00    -0.273 OA
BRANCH  27  29
ATOM     28  C   UNL     1      -0.019   1.526   0.010  0.00  0.00    +0.036 C 
ATOM     29  C   UNL     1       0.002  -0.004   0.002  0.00  0.00    +0.187 C 
ENDBRANCH  27  29
ENDBRANCH  16  27
ENDBRANCH   1  17
BRANCH   3  30
ATOM     30  S   UNL     1       6.354  -0.585  -1.968  0.00  0.00    +0.024 S 
ATOM     31  O   UNL     1       6.288   0.819  -1.757  0.00  0.00    -0.165 OA
ATOM     32  O   UNL     1       7.519  -1.345  -1.680  0.00  0.00    -0.165 OA
BRANCH  30  33
ATOM     33  C   UNL     1       5.985  -0.855  -3.670  0.00  0.00    +0.093 A 
ATOM     34  C   UNL     1       6.427  -2.004  -4.299  0.00  0.00    +0.027 A 
ATOM     35  C   UNL     1       6.138  -2.216  -5.634  0.00  0.00    +0.002 A 
ATOM     36  C   UNL     1       5.406  -1.280  -6.340  0.00  0.00    +0.000 A 
ATOM     37  C   UNL     1       4.963  -0.131  -5.711  0.00  0.00    +0.002 A 
ATOM     38  C   UNL     1       5.249   0.079  -4.375  0.00  0.00    +0.027 A 
ENDBRANCH  30  33
ENDBRANCH   3  30
TORSDOF 7
