REMARK  Name = ZINC39315559
REMARK  3 active torsions:
REMARK  status: ('A' for Active; 'I' for Inactive)
REMARK    1  A    between atoms: C_6  and  C_7
REMARK    2  A    between atoms: C_19  and  N_23
REMARK    3  A    between atoms: C_20  and  C_21
REMARK                            x       y       z     vdW  Elec       q    Type
REMARK                         _______ _______ _______ _____ _____    ______ ____
ROOT
ATOM      1  C   UNL     1      -1.293  -0.775   0.010  0.00  0.00    +0.085 C 
ATOM      2  C   UNL     1      -1.375  -1.652  -1.245  0.00  0.00    +0.171 C 
ATOM      3  C   UNL     1      -0.920  -0.870  -2.443  0.00  0.00    +0.233 C 
ATOM      4  O   UNL     1      -1.504   0.151  -2.739  0.00  0.00    -0.274 OA
ATOM      5  N   UNL     1       0.117  -1.273  -3.193  0.00  0.00    -0.238 N 
ATOM      6  C   UNL     1       0.800  -2.391  -2.898  0.00  0.00    +0.332 C 
ATOM      7  O   UNL     1       1.717  -2.734  -3.619  0.00  0.00    -0.250 OA
ATOM      8  N   UNL     1       0.495  -3.139  -1.827  0.00  0.00    -0.131 NA
ATOM      9  C   UNL     1      -0.487  -2.853  -1.023  0.00  0.00    +0.204 C 
ATOM     10  O   UNL     1      -0.745  -3.618   0.060  0.00  0.00    -0.428 OA
ATOM     11  C   UNL     1      -1.073  -2.970   1.200  0.00  0.00    +0.200 C 
ATOM     12  C   UNL     1      -1.350  -1.649   1.234  0.00  0.00    +0.095 C 
ATOM     13  H   UNL     1       0.379  -0.746  -3.964  0.00  0.00    +0.159 HD
ENDROOT
BRANCH   1  19
ATOM     14  C   UNL     1      -0.017   1.378   0.010  0.00  0.00    +0.007 A 
ATOM     15  C   UNL     1       1.170   2.086   0.002  0.00  0.00    +0.040 A 
ATOM     16  C   UNL     1       2.379   1.411  -0.013  0.00  0.00    +0.137 A 
ATOM     17  C   UNL     1       2.397   0.026  -0.021  0.00  0.00    +0.053 A 
ATOM     18  C   UNL     1       1.208  -0.680  -0.013  0.00  0.00    +0.022 A 
ATOM     19  C   UNL     1       0.002  -0.004   0.002  0.00  0.00    -0.037 A 
ATOM     20 BR   UNL     1       4.046  -0.899  -0.042  0.00  0.00    -0.047 Br
ATOM     21  F   UNL     1       3.539   2.103  -0.021  0.00  0.00    -0.204 F 
ENDBRANCH   1  19
BRANCH  11  22
ATOM     22  N   UNL     1      -1.129  -3.685   2.370  0.00  0.00    -0.328 N 
ATOM     23  H   UNL     1      -0.935  -4.635   2.368  0.00  0.00    +0.145 HD
ATOM     24  H   UNL     1      -1.363  -3.239   3.200  0.00  0.00    +0.145 HD
ENDBRANCH  11  22
BRANCH  12  25
ATOM     25  C   UNL     1      -1.711  -1.054   2.486  0.00  0.00    +0.100 C 
ATOM     26  N   UNL     1      -1.997  -0.583   3.479  0.00  0.00    -0.191 NA
ENDBRANCH  12  25
TORSDOF 3
