REMARK  Name = ZINC08195603
REMARK  3 active torsions:
REMARK  status: ('A' for Active; 'I' for Inactive)
REMARK    1  A    between atoms: C_6  and  N_7
REMARK    2  A    between atoms: N_7  and  S_8
REMARK    3  A    between atoms: S_8  and  C_11
REMARK                            x       y       z     vdW  Elec       q    Type
REMARK                         _______ _______ _______ _____ _____    ______ ____
ROOT
ATOM      1  N   UNL     1      -1.200  -0.720   0.010  0.00  0.00    -0.216 N 
ATOM      2  H   UNL     1      -1.307  -1.482   0.601  0.00  0.00    +0.174 HD
ENDROOT
BRANCH   1   8
ATOM      3  C   UNL     1      -0.017   1.384   0.010  0.00  0.00    +0.028 A 
ATOM      4  C   UNL     1       1.170   2.093   0.002  0.00  0.00    +0.051 A 
ATOM      5  C   UNL     1       2.381   1.421  -0.013  0.00  0.00    +0.167 A 
ATOM      6  C   UNL     1       2.403   0.028  -0.021  0.00  0.00    +0.169 A 
ATOM      7  C   UNL     1       1.214  -0.682  -0.013  0.00  0.00    +0.074 A 
ATOM      8  C   UNL     1       0.002  -0.004   0.002  0.00  0.00    +0.052 A 
ATOM      9  O   UNL     1       3.705  -0.389  -0.039  0.00  0.00    -0.447 OA
ATOM     10  C   UNL     1       4.463   0.759  -0.430  0.00  0.00    +0.254 C 
ATOM     11  O   UNL     1       3.670   1.879  -0.024  0.00  0.00    -0.448 OA
ATOM     12  C   UNL     1       5.834   0.774   0.259  0.00  0.00    +0.093 C 
ATOM     13  C   UNL     1       6.798   0.203  -0.812  0.00  0.00    +0.008 C 
ATOM     14  C   UNL     1       6.242   0.799  -2.130  0.00  0.00    +0.008 C 
ATOM     15  C   UNL     1       4.709   0.772  -1.941  0.00  0.00    +0.093 C 
ENDBRANCH   1   8
BRANCH   1  16
ATOM     16  S   UNL     1      -2.440  -0.267  -0.990  0.00  0.00    +0.072 S 
ATOM     17  O   UNL     1      -3.497  -1.192  -0.770  0.00  0.00    -0.150 OA
ATOM     18  O   UNL     1      -2.607   1.134  -0.821  0.00  0.00    -0.150 OA
BRANCH  16  19
ATOM     19  C   UNL     1      -1.891  -0.513  -2.646  0.00  0.00    +0.111 A 
ATOM     20  C   UNL     1      -1.242   0.510  -3.316  0.00  0.00    +0.031 A 
ATOM     21  C   UNL     1      -0.808   0.327  -4.614  0.00  0.00    +0.030 A 
ATOM     22  C   UNL     1      -1.023  -0.887  -5.249  0.00  0.00    +0.067 A 
ATOM     23  C   UNL     1      -1.677  -1.919  -4.573  0.00  0.00    +0.069 A 
ATOM     24  C   UNL     1      -2.104  -1.728  -3.268  0.00  0.00    +0.056 A 
ATOM     25  N   UNL     1      -1.744  -2.997  -5.452  0.00  0.00    -0.306 N 
ATOM     26  H   UNL     1      -2.146  -3.859  -5.263  0.00  0.00    +0.170 HD
ATOM     27  C   UNL     1      -1.158  -2.637  -6.610  0.00  0.00    +0.325 A 
ATOM     28  O   UNL     1      -1.048  -3.349  -7.590  0.00  0.00    -0.247 OA
ATOM     29  N   UNL     1      -0.713  -1.370  -6.518  0.00  0.00    -0.306 N 
ATOM     30  H   UNL     1      -0.254  -0.877  -7.216  0.00  0.00    +0.170 HD
ENDBRANCH  16  19
ENDBRANCH   1  16
TORSDOF 3
