REMARK  Name = ZINC39937711
REMARK  6 active torsions:
REMARK  status: ('A' for Active; 'I' for Inactive)
REMARK    1  A    between atoms: C_7  and  C_10
REMARK    2  A    between atoms: C_13  and  S_19
REMARK    3  A    between atoms: N_15  and  C_16
REMARK    4  A    between atoms: S_19  and  C_20
REMARK    5  A    between atoms: C_20  and  C_21
REMARK    6  A    between atoms: N_23  and  C_24
REMARK                            x       y       z     vdW  Elec       q    Type
REMARK                         _______ _______ _______ _____ _____    ______ ____
ROOT
ATOM      1  C   UNL     1       0.548  -3.234   0.024  0.00  0.00    +0.147 C 
ATOM      2  N   UNL     1      -0.690  -3.000   0.369  0.00  0.00    -0.169 NA
ATOM      3  N   UNL     1      -1.484  -4.144   0.221  0.00  0.00    -0.237 N 
ATOM      4  C   UNL     1      -0.596  -5.206  -0.281  0.00  0.00    +0.237 C 
ATOM      5  N   UNL     1       0.719  -4.555  -0.397  0.00  0.00    -0.282 N 
ATOM      6  H   UNL     1      -2.432  -4.221   0.411  0.00  0.00    +0.171 HD
ENDROOT
BRANCH   1  13
ATOM      7  C   UNL     1       0.655   1.039   1.547  0.00  0.00    +0.001 A 
ATOM      8  C   UNL     1       1.900   1.654   1.399  0.00  0.00    +0.002 A 
ATOM      9  C   UNL     1       2.957   1.007   0.849  0.00  0.00    +0.026 A 
ATOM     10  C   UNL     1       2.811  -0.333   0.405  0.00  0.00    +0.043 A 
ATOM     11  N   UNL     1       3.667  -1.165  -0.153  0.00  0.00    -0.380 N 
ATOM     12  C   UNL     1       2.998  -2.443  -0.418  0.00  0.00    +0.152 C 
ATOM     13  C   UNL     1       1.575  -2.278   0.066  0.00  0.00    +0.022 C 
ATOM     14  C   UNL     1       1.496  -0.977   0.563  0.00  0.00    +0.006 A 
ATOM     15  C   UNL     1       0.442  -0.241   1.145  0.00  0.00    +0.010 A 
ATOM     16  H   UNL     1       4.594  -0.964  -0.357  0.00  0.00    +0.160 HD
ENDBRANCH   1  13
BRANCH   5  17
ATOM     17  C   UNL     1       1.964  -5.173  -0.861  0.00  0.00    +0.078 C 
ATOM     18  C   UNL     1       1.894  -6.619  -1.355  0.00  0.00    +0.024 C 
ATOM     19  C   UNL     1       2.552  -6.301  -0.011  0.00  0.00    +0.024 C 
ENDBRANCH   5  17
BRANCH   4  20
ATOM     20  S   UNL     1      -0.530  -6.586   0.895  0.00  0.00    -0.109 S 
BRANCH  20  21
ATOM     21  C   UNL     1       0.072  -5.827   2.428  0.00  0.00    +0.168 C 
BRANCH  21  22
ATOM     22  C   UNL     1       0.174  -6.879   3.503  0.00  0.00    +0.227 C 
ATOM     23  O   UNL     1      -0.129  -8.027   3.258  0.00  0.00    -0.275 OA
ATOM     24  N   UNL     1       0.603  -6.543   4.736  0.00  0.00    -0.285 N 
ATOM     25  H   UNL     1       0.775  -5.614   4.953  0.00  0.00    +0.155 HD
BRANCH  24  26
ATOM     26  C   UNL     1       0.801  -7.537   5.703  0.00  0.00    +0.037 A 
ATOM     27  C   UNL     1       1.251  -8.795   5.323  0.00  0.00    +0.027 A 
ATOM     28  C   UNL     1       1.448  -9.778   6.275  0.00  0.00    +0.051 A 
ATOM     29  C   UNL     1       1.196  -9.505   7.609  0.00  0.00    +0.162 A 
ATOM     30  C   UNL     1       0.748  -8.249   7.992  0.00  0.00    +0.164 A 
ATOM     31  C   UNL     1       0.554  -7.261   7.042  0.00  0.00    +0.072 A 
ATOM     32  O   UNL     1       0.505  -7.993   9.310  0.00  0.00    -0.488 OA
ATOM     33  C   UNL     1      -0.608  -8.681   9.886  0.00  0.00    +0.232 C 
ATOM     34  C   UNL     1      -0.202 -10.072  10.347  0.00  0.00    +0.082 C 
ATOM     35  C   UNL     1       0.209 -10.968   9.190  0.00  0.00    +0.232 C 
ATOM     36  O   UNL     1       1.389 -10.470   8.556  0.00  0.00    -0.488 OA
ENDBRANCH  24  26
ENDBRANCH  21  22
ENDBRANCH  20  21
ENDBRANCH   4  20
TORSDOF 6
