REMARK  Name = ZINC08923393
REMARK  11 active torsions:
REMARK  status: ('A' for Active; 'I' for Inactive)
REMARK    1  A    between atoms: C_1  and  C_2
REMARK    2  A    between atoms: C_2  and  O_3
REMARK    3  A    between atoms: O_3  and  C_4
REMARK    4  A    between atoms: C_6  and  C_20
REMARK    5  A    between atoms: C_9  and  O_10
REMARK    6  A    between atoms: O_10  and  C_11
REMARK    7  A    between atoms: C_11  and  C_13
REMARK    8  A    between atoms: C_31  and  C_32
REMARK    9  A    between atoms: C_31  and  C_33
REMARK   10  A    between atoms: C_31  and  N_64
REMARK   11  A    between atoms: C_34  and  O_36
REMARK                            x       y       z     vdW  Elec       q    Type
REMARK                         _______ _______ _______ _____ _____    ______ ____
ROOT
ATOM      1  C   UNL     1       6.085   3.395  -0.552  0.00  0.00    +0.224 C 
ATOM      2  N   UNL     1       4.797   4.044  -0.244  0.00  0.00    -0.313 N 
ATOM      3  C   UNL     1       3.708   3.213  -0.132  0.00  0.00    +0.080 A 
ATOM      4  C   UNL     1       3.829   1.856   0.198  0.00  0.00    +0.067 A 
ATOM      5  C   UNL     1       2.586   1.116   0.289  0.00  0.00    -0.027 A 
ATOM      6  C   UNL     1       1.460   1.825   0.035  0.00  0.00    -0.021 A 
ATOM      7  S   UNL     1       2.026   3.467  -0.315  0.00  0.00    -0.080 S 
ATOM      8  C   UNL     1       0.057   1.305   0.055  0.00  0.00    -0.035 C 
ATOM      9  C   UNL     1       1.047  -0.663   1.061  0.00  0.00    -0.073 C 
ATOM     10  C   UNL     1       2.489  -0.365   0.641  0.00  0.00    +0.018 C 
ATOM     11  C   UNL     1       5.201   1.335   0.432  0.00  0.00    +0.220 C 
ATOM     12  N   UNL     1       6.206   2.101   0.109  0.00  0.00    -0.223 NA
ATOM     13  H   UNL     1       4.723   5.004  -0.128  0.00  0.00    +0.149 HD
ATOM     14  N   UNL     1       0.121  -0.176   0.018  0.00  0.00    +0.384 N 
ATOM     15  H   UNL     1       0.467  -0.473  -0.901  0.00  0.00    -0.081 HD
ENDROOT
BRANCH   1  18
ATOM     16  C   UNL     1       7.018   1.951  -3.917  0.00  0.00    +0.163 A 
ATOM     17  C   UNL     1       6.922   2.136  -2.546  0.00  0.00    +0.056 A 
ATOM     18  C   UNL     1       6.193   3.197  -2.042  0.00  0.00    -0.002 A 
ATOM     19  C   UNL     1       5.567   4.081  -2.902  0.00  0.00    +0.011 A 
ATOM     20  C   UNL     1       5.663   3.905  -4.270  0.00  0.00    +0.050 A 
ATOM     21  C   UNL     1       6.388   2.840  -4.782  0.00  0.00    +0.173 A 
BRANCH  16  22
ATOM     22  O   UNL     1       7.730   0.905  -4.414  0.00  0.00    -0.489 OA
BRANCH  22  24
ATOM     23  C   UNL     1       9.100  -1.075  -4.208  0.00  0.00    +0.048 C 
ATOM     24  C   UNL     1       8.350   0.033  -3.466  0.00  0.00    +0.226 C 
ENDBRANCH  22  24
ENDBRANCH  16  22
BRANCH  21  25
ATOM     25  O   UNL     1       6.483   2.665  -6.127  0.00  0.00    -0.419 OA
BRANCH  25  26
ATOM     26  C   UNL     1       5.654   1.763  -6.686  0.00  0.00    +0.345 C 
ATOM     27  O   UNL     1       4.801   1.221  -6.011  0.00  0.00    -0.245 OA
BRANCH  26  28
ATOM     28  C   UNL     1       5.781   1.432  -8.119  0.00  0.00    +0.060 A 
ATOM     29  C   UNL     1       6.757   2.058  -8.899  0.00  0.00    +0.018 A 
ATOM     30  C   UNL     1       6.875   1.741 -10.235  0.00  0.00    +0.039 A 
ATOM     31  C   UNL     1       6.020   0.812 -10.809  0.00  0.00    +0.123 A 
ATOM     32  C   UNL     1       5.046   0.192 -10.040  0.00  0.00    +0.039 A 
ATOM     33  C   UNL     1       4.923   0.497  -8.702  0.00  0.00    +0.018 A 
ATOM     34  F   UNL     1       6.137   0.509 -12.120  0.00  0.00    -0.205 F 
ENDBRANCH  26  28
ENDBRANCH  25  26
ENDBRANCH  21  25
ENDBRANCH   1  18
BRANCH  14  35
ATOM     35  C   UNL     1      -1.227  -0.746   0.232  0.00  0.00    -0.074 C 
ATOM     36  C   UNL     1      -1.783  -0.308   1.588  0.00  0.00    -0.014 C 
ATOM     37  C   UNL     1      -2.155  -0.258  -0.882  0.00  0.00    -0.014 C 
ENDBRANCH  14  35
BRANCH  11  38
ATOM     38  O   UNL     1       5.401   0.107   0.964  0.00  0.00    -0.492 OA
ATOM     39  H   UNL     1       6.332  -0.128   1.073  0.00  0.00    +0.294 HD
ENDBRANCH  11  38
TORSDOF 8
