REMARK  Name = ZINC34953965
REMARK  11 active torsions:
REMARK  status: ('A' for Active; 'I' for Inactive)
REMARK    1  A    between atoms: C_1  and  C_2
REMARK    2  A    between atoms: C_2  and  C_3
REMARK    3  A    between atoms: C_2  and  C_4
REMARK    4  A    between atoms: C_2  and  C_5
REMARK    5  A    between atoms: C_8  and  C_11
REMARK    6  A    between atoms: N_16  and  C_30
REMARK    7  A    between atoms: C_20  and  C_28
REMARK    8  A    between atoms: C_21  and  N_27
REMARK    9  A    between atoms: C_22  and  C_23
REMARK   10  A    between atoms: C_22  and  C_25
REMARK   11  A    between atoms: C_30  and  C_31
REMARK                            x       y       z     vdW  Elec       q    Type
REMARK                         _______ _______ _______ _____ _____    ______ ____
ROOT
ATOM      1  C   UNL     1       2.707  -1.868  -4.752  0.00  0.00    +0.067 C 
ATOM      2  C   UNL     1       3.992  -2.598  -4.356  0.00  0.00    +0.044 C 
ATOM      3  C   UNL     1       3.735  -3.670  -3.320  0.00  0.00    +0.094 C 
ATOM      4  N   UNL     1       3.647  -5.004  -3.921  0.00  0.00    -0.294 NA
ATOM      5  C   UNL     1       4.907  -5.335  -4.609  0.00  0.00    +0.112 C 
ATOM      6  C   UNL     1       5.089  -4.347  -5.734  0.00  0.00    -0.006 C 
ATOM      7  C   UNL     1       4.632  -3.129  -5.607  0.00  0.00    -0.026 C 
ATOM      8  C   UNL     1       4.710  -2.209  -6.770  0.00  0.00    +0.074 C 
ATOM      9  C   UNL     1       3.963  -1.075  -6.771  0.00  0.00    +0.054 C 
ATOM     10  C   UNL     1       3.064  -0.675  -5.639  0.00  0.00    +0.188 C 
ENDROOT
BRANCH   1  14
ATOM     11  C   UNL     1       0.707  -0.490  -1.238  0.00  0.00    -0.042 A 
ATOM     12  C   UNL     1      -0.013  -1.099  -2.249  0.00  0.00    +0.004 A 
ATOM     13  C   UNL     1       0.635  -1.545  -3.386  0.00  0.00    +0.004 A 
ATOM     14  C   UNL     1       2.001  -1.381  -3.513  0.00  0.00    -0.041 A 
ATOM     15  C   UNL     1       2.721  -0.771  -2.502  0.00  0.00    +0.004 A 
ATOM     16  C   UNL     1       2.073  -0.322  -1.367  0.00  0.00    +0.004 A 
BRANCH  11  18
ATOM     17  C   UNL     1       0.203   1.506   0.144  0.00  0.00    +0.015 C 
ATOM     18  C   UNL     1       0.002  -0.004   0.002  0.00  0.00    -0.013 C 
ATOM     19  C   UNL     1       0.579  -0.714   1.228  0.00  0.00    +0.015 C 
ATOM     20  C   UNL     1      -1.493  -0.311  -0.108  0.00  0.00    +0.015 C 
ENDBRANCH  11  18
ENDBRANCH   1  14
BRANCH   9  21
ATOM     21  N   UNL     1       4.033  -0.255  -7.862  0.00  0.00    -0.358 N 
ATOM     22  H   UNL     1       4.605  -0.490  -8.609  0.00  0.00    +0.142 HD
ATOM     23  H   UNL     1       3.510   0.561  -7.889  0.00  0.00    +0.142 HD
ENDBRANCH   9  21
BRANCH  10  24
ATOM     24  C   UNL     1       3.747   0.342  -4.824  0.00  0.00    +0.091 C 
ATOM     25  N   UNL     1       4.274   1.127  -4.194  0.00  0.00    -0.194 NA
ENDBRANCH  10  24
BRANCH  10  26
ATOM     26  C   UNL     1       1.827  -0.097  -6.188  0.00  0.00    +0.091 C 
ATOM     27  N   UNL     1       0.872   0.349  -6.611  0.00  0.00    -0.194 NA
ENDBRANCH  10  26
BRANCH   8  28
ATOM     28  C   UNL     1       5.563  -2.515  -7.879  0.00  0.00    +0.101 C 
ATOM     29  N   UNL     1       6.239  -2.757  -8.759  0.00  0.00    -0.191 NA
ENDBRANCH   8  28
BRANCH   4  30
ATOM     30  C   UNL     1       3.318  -6.016  -2.908  0.00  0.00    +0.120 C 
BRANCH  30  31
ATOM     31  C   UNL     1       2.995  -7.321  -3.589  0.00  0.00    -0.033 A 
ATOM     32  C   UNL     1       1.695  -7.602  -3.966  0.00  0.00    +0.005 A 
ATOM     33  C   UNL     1       1.400  -8.799  -4.590  0.00  0.00    +0.000 A 
ATOM     34  C   UNL     1       2.405  -9.715  -4.839  0.00  0.00    +0.000 A 
ATOM     35  C   UNL     1       3.705  -9.434  -4.463  0.00  0.00    +0.000 A 
ATOM     36  C   UNL     1       4.001  -8.235  -3.842  0.00  0.00    +0.005 A 
ENDBRANCH  30  31
ENDBRANCH   4  30
TORSDOF 8
