REMARK  Name = ZINC39666367
REMARK  10 active torsions:
REMARK  status: ('A' for Active; 'I' for Inactive)
REMARK    1  A    between atoms: C_1  and  C_2
REMARK    2  A    between atoms: C_2  and  C_4
REMARK    3  A    between atoms: C_2  and  O_31
REMARK    4  A    between atoms: C_4  and  N_5
REMARK    5  A    between atoms: C_6  and  C_8
REMARK    6  A    between atoms: C_19  and  C_21
REMARK    7  A    between atoms: C_26  and  O_27
REMARK    8  A    between atoms: O_27  and  C_28
REMARK    9  A    between atoms: C_28  and  C_30
REMARK   10  A    between atoms: O_31  and  C_32
REMARK                            x       y       z     vdW  Elec       q    Type
REMARK                         _______ _______ _______ _____ _____    ______ ____
ROOT
ATOM      1  C   UNL     1      -2.506  -4.348   0.524  0.00  0.00    +0.100 C 
ATOM      2  C   UNL     1      -1.820  -4.715   1.859  0.00  0.00    +0.121 C 
ATOM      3  N   UNL     1      -2.935  -4.856   2.825  0.00  0.00    -0.296 N 
ATOM      4  C   UNL     1      -4.008  -5.530   2.055  0.00  0.00    +0.115 C 
ATOM      5  C   UNL     1      -3.940  -4.889   0.654  0.00  0.00    -0.004 C 
ATOM      6  C   UNL     1      -4.210  -5.937  -0.421  0.00  0.00    -0.010 C 
ATOM      7  C   UNL     1      -5.659  -6.417  -0.307  0.00  0.00    -0.082 C 
ATOM      8  N   UNL     1      -6.568  -5.275  -0.469  0.00  0.00    +0.379 N 
ATOM      9  C   UNL     1      -6.366  -4.315   0.623  0.00  0.00    -0.082 C 
ATOM     10  C   UNL     1      -4.946  -3.747   0.549  0.00  0.00    -0.010 C 
ATOM     11  C   UNL     1      -2.967  -4.463   4.114  0.00  0.00    +0.250 C 
ATOM     12  O   UNL     1      -3.941  -4.705   4.800  0.00  0.00    -0.270 OA
ATOM     13  H   UNL     1      -6.384  -4.823  -1.352  0.00  0.00    -0.086 HD
ATOM     14  H   UNL     1      -7.523  -5.603  -0.455  0.00  0.00    -0.086 HD
ENDROOT
BRANCH  11  15
ATOM     15  C   UNL     1      -1.819  -3.738   4.692  0.00  0.00    +0.079 A 
ATOM     16  C   UNL     1      -0.516  -4.069   4.313  0.00  0.00    +0.017 A 
ATOM     17  C   UNL     1       0.552  -3.388   4.857  0.00  0.00    +0.001 A 
ATOM     18  C   UNL     1       0.340  -2.376   5.778  0.00  0.00    +0.004 A 
ATOM     19  C   UNL     1      -0.943  -2.038   6.161  0.00  0.00    +0.047 A 
ATOM     20  C   UNL     1      -2.030  -2.709   5.620  0.00  0.00    +0.144 A 
BRANCH  20  21
ATOM     21  O   UNL     1      -3.291  -2.375   5.992  0.00  0.00    -0.425 OA
BRANCH  21  22
ATOM     22  C   UNL     1      -4.027  -1.644   5.139  0.00  0.00    +0.309 C 
ATOM     23  O   UNL     1      -3.595  -1.379   4.043  0.00  0.00    -0.251 OA
ATOM     24  C   UNL     1      -5.392  -1.154   5.550  0.00  0.00    +0.136 C 
ENDBRANCH  21  22
ENDBRANCH  20  21
ENDBRANCH  11  15
BRANCH   1  26
ATOM     25  N   UNL     1      -2.677  -2.331  -0.897  0.00  0.00    -0.312 N 
ATOM     26  C   UNL     1      -2.523  -2.853   0.336  0.00  0.00    +0.218 C 
ATOM     27  O   UNL     1      -2.400  -2.120   1.294  0.00  0.00    -0.275 OA
ATOM     28  H   UNL     1      -2.776  -2.917  -1.663  0.00  0.00    +0.149 HD
BRANCH  25  29
ATOM     29  C   UNL     1      -2.694  -0.877  -1.080  0.00  0.00    +0.148 C 
BRANCH  29  31
ATOM     30  C   UNL     1      -2.773   0.960  -2.771  0.00  0.00    +0.053 C 
ATOM     31  C   UNL     1      -2.880  -0.552  -2.563  0.00  0.00    +0.187 C 
BRANCH  31  32
ATOM     32  O   UNL     1      -4.166  -1.002  -2.992  0.00  0.00    -0.486 OA
BRANCH  32  33
ATOM     33  C   UNL     1      -4.318  -1.266  -4.317  0.00  0.00    +0.139 A 
ATOM     34  C   UNL     1      -3.228  -1.186  -5.171  0.00  0.00    +0.047 A 
ATOM     35  C   UNL     1      -3.384  -1.455  -6.517  0.00  0.00    +0.004 A 
ATOM     36  C   UNL     1      -4.626  -1.803  -7.014  0.00  0.00    +0.002 A 
ATOM     37  C   UNL     1      -5.715  -1.883  -6.166  0.00  0.00    +0.023 A 
ATOM     38  C   UNL     1      -5.563  -1.621  -4.817  0.00  0.00    +0.083 A 
ATOM     39 CL   UNL     1      -6.929  -1.729  -3.752  0.00  0.00    -0.080 Cl
ENDBRANCH  32  33
ENDBRANCH  31  32
ENDBRANCH  29  31
ENDBRANCH  25  29
ENDBRANCH   1  26
TORSDOF 8
