REMARK  Name = ZINC39365043
REMARK  6 active torsions:
REMARK  status: ('A' for Active; 'I' for Inactive)
REMARK    1  A    between atoms: C_1  and  N_2
REMARK    2  A    between atoms: N_2  and  C_3
REMARK    3  A    between atoms: C_3  and  N_5
REMARK    4  A    between atoms: C_6  and  C_30
REMARK    5  A    between atoms: C_9  and  C_11
REMARK    6  A    between atoms: C_13  and  C_24
REMARK                            x       y       z     vdW  Elec       q    Type
REMARK                         _______ _______ _______ _____ _____    ______ ____
ROOT
ATOM      1  C   UNL     1       0.789  -5.025  -0.108  0.00  0.00    +0.152 C 
ATOM      2  C   UNL     1       2.178  -4.495   0.193  0.00  0.00    -0.014 C 
ATOM      3  C   UNL     1       3.188  -4.812  -0.719  0.00  0.00    +0.002 A 
ATOM      4  C   UNL     1       4.509  -4.360  -0.515  0.00  0.00    +0.030 A 
ATOM      5  C   UNL     1       5.475  -4.683  -1.419  0.00  0.00    +0.042 A 
ATOM      6  C   UNL     1       5.186  -5.452  -2.545  0.00  0.00    +0.022 A 
ATOM      7  C   UNL     1       3.930  -5.916  -2.794  0.00  0.00    +0.025 A 
ATOM      8  C   UNL     1       2.883  -5.622  -1.903  0.00  0.00    +0.041 A 
ATOM      9  N   UNL     1       1.650  -6.079  -2.150  0.00  0.00    -0.284 N 
ATOM     10  C   UNL     1       0.617  -5.847  -1.365  0.00  0.00    +0.230 C 
ATOM     11  O   UNL     1      -0.477  -6.296  -1.653  0.00  0.00    -0.274 OA
ATOM     12 CL   UNL     1       7.099  -4.124  -1.164  0.00  0.00    -0.084 Cl
ATOM     13  H   UNL     1       1.510  -6.610  -2.949  0.00  0.00    +0.155 HD
ENDROOT
BRANCH   2  14
ATOM     14  C   UNL     1       2.439  -3.715   1.347  0.00  0.00    -0.020 A 
ATOM     15  C   UNL     1       2.884  -2.389   1.218  0.00  0.00    +0.008 A 
ATOM     16  C   UNL     1       3.134  -1.639   2.345  0.00  0.00    +0.001 A 
ATOM     17  C   UNL     1       2.949  -2.188   3.604  0.00  0.00    +0.000 A 
ATOM     18  C   UNL     1       2.511  -3.495   3.742  0.00  0.00    +0.001 A 
ATOM     19  C   UNL     1       2.249  -4.260   2.628  0.00  0.00    +0.008 A 
ENDBRANCH   2  14
BRANCH   1  23
ATOM     20  N   UNL     1      -0.840  -1.718  -0.284  0.00  0.00    -0.197 N 
ATOM     21  C   UNL     1      -2.107  -2.465  -0.351  0.00  0.00    +0.136 C 
ATOM     22  C   UNL     1      -1.653  -3.937  -0.290  0.00  0.00    +0.083 C 
ATOM     23  C   UNL     1      -0.147  -3.847  -0.194  0.00  0.00    +0.055 C 
ATOM     24  N   UNL     1       0.211  -2.629  -0.202  0.00  0.00    -0.185 NA
BRANCH  21  25
ATOM     25  C   UNL     1      -2.986  -2.127   0.825  0.00  0.00    -0.025 A 
ATOM     26  C   UNL     1      -2.426  -1.936   2.075  0.00  0.00    +0.005 A 
ATOM     27  C   UNL     1      -3.233  -1.626   3.154  0.00  0.00    +0.000 A 
ATOM     28  C   UNL     1      -4.599  -1.506   2.983  0.00  0.00    +0.000 A 
ATOM     29  C   UNL     1      -5.160  -1.696   1.734  0.00  0.00    +0.000 A 
ATOM     30  C   UNL     1      -4.353  -2.002   0.654  0.00  0.00    +0.005 A 
ENDBRANCH  21  25
BRANCH  20  31
ATOM     31  C   UNL     1      -0.717  -0.376  -0.305  0.00  0.00    +0.153 C 
ATOM     32  S   UNL     1      -2.113   0.610  -0.410  0.00  0.00    -0.017 S 
BRANCH  31  34
ATOM     33  C   UNL     1       0.638   1.649  -0.265  0.00  0.00    +0.127 C 
ATOM     34  N   UNL     1       0.504   0.190  -0.243  0.00  0.00    -0.328 N 
ATOM     35  H   UNL     1       1.295  -0.369  -0.183  0.00  0.00    +0.147 HD
ENDBRANCH  31  34
ENDBRANCH  20  31
ENDBRANCH   1  23
TORSDOF 5
