REMARK  Name = ZINC20893893
REMARK  4 active torsions:
REMARK  status: ('A' for Active; 'I' for Inactive)
REMARK    1  A    between atoms: C_1  and  C_2
REMARK    2  A    between atoms: C_5  and  C_19
REMARK    3  A    between atoms: C_7  and  S_8
REMARK    4  A    between atoms: S_8  and  N_11
REMARK                            x       y       z     vdW  Elec       q    Type
REMARK                         _______ _______ _______ _____ _____    ______ ____
ROOT
ATOM      1  C   UNL     1      -1.918  -0.836   0.150  0.00  0.00    +0.046 C 
ATOM      2  C   UNL     1      -0.491  -0.353   0.166  0.00  0.00    -0.024 A 
ATOM      3  C   UNL     1       0.542  -1.249  -0.047  0.00  0.00    +0.006 A 
ATOM      4  C   UNL     1       1.851  -0.812  -0.034  0.00  0.00    +0.010 A 
ATOM      5  C   UNL     1       2.131   0.534   0.196  0.00  0.00    +0.004 A 
ATOM      6  C   UNL     1       1.087   1.431   0.411  0.00  0.00    +0.039 A 
ATOM      7  C   UNL     1      -0.218   0.983   0.395  0.00  0.00    +0.109 A 
ENDROOT
BRANCH   5   8
ATOM      8  C   UNL     1       3.537   1.009   0.212  0.00  0.00    +0.095 A 
ATOM      9  C   UNL     1       4.448   0.551  -0.773  0.00  0.00    -0.011 A 
ATOM     10  C   UNL     1       5.721   1.010  -0.731  0.00  0.00    +0.024 A 
ATOM     11  C   UNL     1       6.067   1.915   0.302  0.00  0.00    +0.268 A 
ATOM     12  O   UNL     1       7.205   2.349   0.383  0.00  0.00    -0.266 OA
ATOM     13  N   UNL     1       5.134   2.291   1.195  0.00  0.00    -0.242 N 
ATOM     14  H   UNL     1       5.396   2.990   2.003  0.00  0.00    +0.192 HD
ATOM     15  N   UNL     1       3.928   1.855   1.134  0.00  0.00    -0.171 NA
ATOM     16  C   UNL     1       6.772   0.606  -1.726  0.00  0.00    +0.041 C 
ATOM     17  C   UNL     1       6.349  -0.663  -2.465  0.00  0.00    +0.005 C 
ATOM     18  C   UNL     1       4.926  -0.461  -2.999  0.00  0.00    +0.005 C 
ATOM     19  C   UNL     1       3.965  -0.424  -1.811  0.00  0.00    +0.038 C 
ENDBRANCH   5   8
BRANCH   7  20
ATOM     20  S   UNL     1      -1.541   2.118   0.659  0.00  0.00    +0.061 S 
ATOM     21  O   UNL     1      -2.391   1.530   1.633  0.00  0.00    -0.153 OA
ATOM     22  O   UNL     1      -0.949   3.397   0.836  0.00  0.00    -0.153 OA
BRANCH  20  23
ATOM     23  N   UNL     1      -2.412   2.190  -0.748  0.00  0.00    -0.177 NA
ATOM     24  C   UNL     1      -3.673   1.448  -0.879  0.00  0.00    +0.109 C 
ATOM     25  C   UNL     1      -4.716   2.081   0.041  0.00  0.00    +0.017 C 
ATOM     26  C   UNL     1      -5.160   3.431  -0.548  0.00  0.00    +0.001 C 
ATOM     27  C   UNL     1      -4.096   4.483  -0.262  0.00  0.00    +0.000 C 
ATOM     28  C   UNL     1      -3.435   4.960  -1.568  0.00  0.00    +0.001 C 
ATOM     29  C   UNL     1      -3.121   3.756  -2.457  0.00  0.00    +0.017 C 
ATOM     30  C   UNL     1      -1.933   2.983  -1.868  0.00  0.00    +0.109 C 
ENDBRANCH  20  23
ENDBRANCH   7  20
TORSDOF 3
