REMARK  Name = ZINC39659489
REMARK  8 active torsions:
REMARK  status: ('A' for Active; 'I' for Inactive)
REMARK    1  A    between atoms: C_1  and  C_2
REMARK    2  A    between atoms: C_2  and  C_34
REMARK    3  A    between atoms: C_5  and  C_8
REMARK    4  A    between atoms: C_8  and  N_9
REMARK    5  A    between atoms: C_10  and  C_12
REMARK    6  A    between atoms: C_23  and  C_25
REMARK    7  A    between atoms: C_27  and  O_32
REMARK    8  A    between atoms: O_32  and  C_33
REMARK                            x       y       z     vdW  Elec       q    Type
REMARK                         _______ _______ _______ _____ _____    ______ ____
ROOT
ATOM      1  C   UNL     1       3.711  -2.024   4.894  0.00  0.00    +0.100 C 
ATOM      2  C   UNL     1       2.461  -1.390   5.543  0.00  0.00    +0.121 C 
ATOM      3  N   UNL     1       1.991  -2.403   6.518  0.00  0.00    -0.296 N 
ATOM      4  C   UNL     1       3.235  -2.950   7.110  0.00  0.00    +0.115 C 
ATOM      5  C   UNL     1       4.219  -3.044   5.927  0.00  0.00    -0.004 C 
ATOM      6  C   UNL     1       5.628  -2.679   6.382  0.00  0.00    -0.010 C 
ATOM      7  C   UNL     1       6.134  -3.740   7.364  0.00  0.00    -0.082 C 
ATOM      8  N   UNL     1       6.133  -5.054   6.711  0.00  0.00    +0.379 N 
ATOM      9  C   UNL     1       4.761  -5.439   6.360  0.00  0.00    -0.082 C 
ATOM     10  C   UNL     1       4.198  -4.450   5.335  0.00  0.00    -0.010 C 
ATOM     11  C   UNL     1       0.719  -2.749   6.801  0.00  0.00    +0.248 C 
ATOM     12  O   UNL     1       0.489  -3.534   7.700  0.00  0.00    -0.270 OA
ATOM     13  H   UNL     1       6.694  -5.012   5.873  0.00  0.00    -0.086 HD
ATOM     14  H   UNL     1       6.524  -5.741   7.339  0.00  0.00    -0.086 HD
ENDROOT
BRANCH  11  15
ATOM     15  C   UNL     1      -0.395  -2.173   6.019  0.00  0.00    +0.054 A 
ATOM     16  C   UNL     1      -0.328  -0.854   5.571  0.00  0.00    +0.059 A 
ATOM     17  C   UNL     1      -1.375  -0.321   4.839  0.00  0.00    +0.121 A 
ATOM     18  C   UNL     1      -2.489  -1.099   4.552  0.00  0.00    +0.047 A 
ATOM     19  C   UNL     1      -2.558  -2.407   4.994  0.00  0.00    +0.019 A 
ATOM     20  C   UNL     1      -1.517  -2.950   5.721  0.00  0.00    +0.030 A 
ATOM     21 BR   UNL     1      -1.613  -4.742   6.319  0.00  0.00    -0.050 Br
BRANCH  17  22
ATOM     22  O   UNL     1      -1.313   0.964   4.401  0.00  0.00    -0.495 OA
ATOM     23  C   UNL     1      -2.429   1.448   3.651  0.00  0.00    +0.277 C 
ENDBRANCH  17  22
ENDBRANCH  11  15
BRANCH   1  25
ATOM     24  N   UNL     1       4.255  -2.854   2.629  0.00  0.00    -0.312 N 
ATOM     25  C   UNL     1       3.341  -2.719   3.609  0.00  0.00    +0.218 C 
ATOM     26  O   UNL     1       2.220  -3.155   3.458  0.00  0.00    -0.275 OA
ATOM     27  H   UNL     1       5.152  -2.505   2.750  0.00  0.00    +0.149 HD
BRANCH  24  28
ATOM     28  C   UNL     1       3.895  -3.530   1.379  0.00  0.00    +0.138 C 
BRANCH  28  33
ATOM     29  C   UNL     1       7.613  -2.413  -1.052  0.00  0.00    +0.074 C 
ATOM     30  C   UNL     1       6.099  -2.403  -1.268  0.00  0.00    +0.165 C 
ATOM     31  O   UNL     1       5.683  -3.657  -1.825  0.00  0.00    -0.347 OA
ATOM     32  C   UNL     1       4.761  -4.256  -0.892  0.00  0.00    +0.196 C 
ATOM     33  C   UNL     1       5.104  -3.549   0.443  0.00  0.00    +0.164 C 
ATOM     34  O   UNL     1       5.433  -2.212  -0.009  0.00  0.00    -0.342 OA
ATOM     35  C   UNL     1       5.723  -1.270  -2.225  0.00  0.00    +0.074 C 
ENDBRANCH  28  33
ENDBRANCH  24  28
ENDBRANCH   1  25
TORSDOF 5
