REMARK  Name = ZINC00685824
REMARK  3 active torsions:
REMARK  status: ('A' for Active; 'I' for Inactive)
REMARK    1  A    between atoms: C_6  and  N_7
REMARK    2  A    between atoms: N_10  and  N_11
REMARK    3  A    between atoms: C_12  and  C_14
REMARK                            x       y       z     vdW  Elec       q    Type
REMARK                         _______ _______ _______ _____ _____    ______ ____
ROOT
ATOM      1  N   UNL     1       6.738   2.483  -0.049  0.00  0.00    -0.268 N 
ATOM      2  C   UNL     1       7.054   1.173  -0.057  0.00  0.00    +0.320 C 
ATOM      3  O   UNL     1       8.220   0.828  -0.061  0.00  0.00    -0.251 OA
ATOM      4  N   UNL     1       6.077   0.244  -0.059  0.00  0.00    -0.218 N 
ATOM      5  H   UNL     1       5.811   2.759  -0.113  0.00  0.00    +0.156 HD
ATOM      6  H   UNL     1       6.304  -0.699  -0.065  0.00  0.00    +0.174 HD
ENDROOT
BRANCH   1  12
ATOM      7  C   UNL     1       7.521   4.623   0.752  0.00  0.00    +0.025 A 
ATOM      8  C   UNL     1       8.522   5.570   0.854  0.00  0.00    +0.022 A 
ATOM      9  C   UNL     1       9.748   5.349   0.251  0.00  0.00    +0.041 A 
ATOM     10  C   UNL     1       9.977   4.179  -0.451  0.00  0.00    +0.022 A 
ATOM     11  C   UNL     1       8.981   3.228  -0.552  0.00  0.00    +0.025 A 
ATOM     12  C   UNL     1       7.750   3.446   0.052  0.00  0.00    +0.035 A 
ATOM     13 CL   UNL     1      11.002   6.543   0.377  0.00  0.00    -0.084 Cl
ENDBRANCH   1  12
BRANCH   4  14
ATOM     14  N   UNL     1       4.733   0.642  -0.054  0.00  0.00    -0.229 N 
ATOM     15  C   UNL     1       3.756  -0.287  -0.057  0.00  0.00    +0.267 C 
ATOM     16  O   UNL     1       4.041  -1.470  -0.064  0.00  0.00    -0.268 OA
ATOM     17  H   UNL     1       4.506   1.585  -0.049  0.00  0.00    +0.173 HD
BRANCH  15  18
ATOM     18  C   UNL     1       2.351   0.129  -0.052  0.00  0.00    +0.076 A 
ATOM     19  C   UNL     1       1.208  -0.656  -0.053  0.00  0.00    +0.022 A 
ATOM     20  C   UNL     1       0.002  -0.003  -0.047  0.00  0.00    +0.024 A 
ATOM     21  C   UNL     1      -0.017   1.357  -0.039  0.00  0.00    +0.056 A 
ATOM     22  S   UNL     1       1.666   1.776  -0.041  0.00  0.00    -0.077 S 
ATOM     23 BR   UNL     1      -1.514   2.512  -0.035  0.00  0.00    -0.043 Br
ENDBRANCH  15  18
ENDBRANCH   4  14
TORSDOF 3
