REMARK  Name = ZINC11518429
REMARK  15 active torsions:
REMARK  status: ('A' for Active; 'I' for Inactive)
REMARK    1  A    between atoms: C_1  and  C_2
REMARK    2  A    between atoms: C_2  and  O_3
REMARK    3  A    between atoms: O_3  and  C_4
REMARK    4  A    between atoms: C_4  and  C_6
REMARK    5  A    between atoms: C_7  and  C_20
REMARK    6  A    between atoms: C_12  and  C_14
REMARK    7  A    between atoms: C_20  and  O_21
REMARK    8  A    between atoms: O_21  and  C_22
REMARK    9  A    between atoms: C_22  and  C_24
REMARK   10  A    between atoms: C_24  and  C_26
REMARK   11  A    between atoms: C_24  and  N_29
REMARK   12  A    between atoms: C_26  and  C_27
REMARK   13  A    between atoms: C_26  and  C_28
REMARK   14  A    between atoms: C_30  and  C_32
REMARK   15  A    between atoms: C_32  and  C_33
REMARK                            x       y       z     vdW  Elec       q    Type
REMARK                         _______ _______ _______ _____ _____    ______ ____
ROOT
ATOM      1  C   UNL     1       4.757   8.091  -0.505  0.00  0.00    +0.081 C 
ATOM      2  C   UNL     1       3.990   7.443  -1.408  0.00  0.00    +0.061 C 
ATOM      3  N   UNL     1       3.164   8.128  -2.252  0.00  0.00    -0.269 N 
ATOM      4  C   UNL     1       3.051   9.462  -2.260  0.00  0.00    +0.304 C 
ATOM      5  O   UNL     1       2.288   9.983  -3.050  0.00  0.00    -0.252 OA
ATOM      6  N   UNL     1       3.756  10.246  -1.421  0.00  0.00    -0.288 N 
ATOM      7  C   UNL     1       4.678   9.604  -0.469  0.00  0.00    +0.144 C 
ATOM      8  H   UNL     1       2.629   7.619  -2.882  0.00  0.00    +0.156 HD
ATOM      9  H   UNL     1       3.659  11.211  -1.445  0.00  0.00    +0.151 HD
ENDROOT
BRANCH   7  10
ATOM     10  C   UNL     1       6.059  10.151  -0.719  0.00  0.00    -0.022 A 
ATOM     11  C   UNL     1       6.496  10.362  -2.013  0.00  0.00    +0.006 A 
ATOM     12  C   UNL     1       7.762  10.868  -2.241  0.00  0.00    +0.000 A 
ATOM     13  C   UNL     1       8.595  11.155  -1.176  0.00  0.00    +0.000 A 
ATOM     14  C   UNL     1       8.160  10.939   0.118  0.00  0.00    +0.000 A 
ATOM     15  C   UNL     1       6.892  10.437   0.347  0.00  0.00    +0.006 A 
ENDBRANCH   7  10
BRANCH   1  16
ATOM     16  C   UNL     1       5.609   7.383   0.374  0.00  0.00    +0.339 C 
ATOM     17  O   UNL     1       5.272   7.195   1.528  0.00  0.00    -0.245 OA
BRANCH  16  18
ATOM     18  O   UNL     1       6.795   6.915  -0.067  0.00  0.00    -0.462 OA
BRANCH  18  20
ATOM     19  C   UNL     1       8.901   5.758   0.198  0.00  0.00    +0.048 C 
ATOM     20  C   UNL     1       7.605   6.208   0.875  0.00  0.00    +0.229 C 
ENDBRANCH  18  20
ENDBRANCH  16  18
ENDBRANCH   1  16
BRANCH   2  21
ATOM     21  C   UNL     1       4.042   5.939  -1.481  0.00  0.00    +0.283 C 
BRANCH  21  22
ATOM     22  O   UNL     1       2.753   5.390  -1.099  0.00  0.00    -0.457 OA
BRANCH  22  23
ATOM     23  C   UNL     1       2.631   4.054  -1.111  0.00  0.00    +0.328 C 
ATOM     24  O   UNL     1       3.571   3.364  -1.430  0.00  0.00    -0.249 OA
BRANCH  23  25
ATOM     25  C   UNL     1       1.323   3.413  -0.727  0.00  0.00    +0.184 C 
BRANCH  25  26
ATOM     26  N   UNL     1       1.447   1.956  -0.820  0.00  0.00    -0.302 N 
ATOM     27  C   UNL     1       0.351   1.198  -1.024  0.00  0.00    +0.218 C 
ATOM     28  O   UNL     1      -0.737   1.722  -1.135  0.00  0.00    -0.275 OA
ATOM     29  H   UNL     1       2.317   1.537  -0.736  0.00  0.00    +0.150 HD
BRANCH  27  30
ATOM     30  C   UNL     1       0.478  -0.300  -1.120  0.00  0.00    +0.130 C 
BRANCH  30  31
ATOM     31  C   UNL     1      -0.883  -0.907  -1.347  0.00  0.00    -0.039 A 
ATOM     32  C   UNL     1      -1.663  -1.279  -0.269  0.00  0.00    +0.004 A 
ATOM     33  C   UNL     1      -2.913  -1.831  -0.477  0.00  0.00    +0.000 A 
ATOM     34  C   UNL     1      -3.379  -2.019  -1.765  0.00  0.00    +0.000 A 
ATOM     35  C   UNL     1      -2.597  -1.652  -2.844  0.00  0.00    +0.000 A 
ATOM     36  C   UNL     1      -1.349  -1.096  -2.635  0.00  0.00    +0.004 A 
ENDBRANCH  30  31
ENDBRANCH  27  30
ENDBRANCH  25  26
BRANCH  25  37
ATOM     37  C   UNL     1       0.966   3.803   0.709  0.00  0.00    +0.014 C 
ATOM     38  C   UNL     1       0.836   5.325   0.806  0.00  0.00    +0.009 C 
ATOM     39  C   UNL     1      -0.363   3.152   1.099  0.00  0.00    +0.009 C 
ENDBRANCH  25  37
ENDBRANCH  23  25
ENDBRANCH  22  23
ENDBRANCH  21  22
ENDBRANCH   2  21
TORSDOF 12
