REMARK  Name = ZINC20748532
REMARK  9 active torsions:
REMARK  status: ('A' for Active; 'I' for Inactive)
REMARK    1  A    between atoms: C_1  and  C_2
REMARK    2  A    between atoms: C_2  and  O_3
REMARK    3  A    between atoms: O_3  and  C_4
REMARK    4  A    between atoms: C_9  and  C_10
REMARK    5  A    between atoms: C_21  and  S_26
REMARK    6  A    between atoms: S_26  and  N_29
REMARK    7  A    between atoms: N_29  and  C_30
REMARK    8  A    between atoms: C_33  and  C_37
REMARK    9  A    between atoms: C_35  and  C_36
REMARK                            x       y       z     vdW  Elec       q    Type
REMARK                         _______ _______ _______ _____ _____    ______ ____
ROOT
ATOM      1  C   UNL     1       0.420   4.382   0.291  0.00  0.00    +0.108 C 
ATOM      2  C   UNL     1      -0.164   4.446  -1.109  0.00  0.00    +0.029 C 
ATOM      3  C   UNL     1      -0.313   3.117  -1.864  0.00  0.00    +0.033 C 
ATOM      4  C   UNL     1      -0.171   3.572  -3.318  0.00  0.00    -0.030 C 
ATOM      5  C   UNL     1       0.540   4.692  -3.376  0.00  0.00    -0.023 C 
ATOM      6  C   UNL     1       0.957   5.060  -1.999  0.00  0.00    +0.049 C 
ATOM      7  C   UNL     1       1.147   6.468  -1.587  0.00  0.00    -0.018 A 
ATOM      8  C   UNL     1       1.483   7.462  -2.480  0.00  0.00    +0.034 A 
ATOM      9  C   UNL     1       1.688   8.756  -2.039  0.00  0.00    +0.109 A 
ATOM     10  C   UNL     1       1.555   9.057  -0.696  0.00  0.00    +0.030 A 
ATOM     11  C   UNL     1       1.210   8.071   0.205  0.00  0.00    +0.025 A 
ATOM     12  C   UNL     1       0.995   6.769  -0.229  0.00  0.00    +0.031 A 
ATOM     13  N   UNL     1       0.629   5.788   0.701  0.00  0.00    -0.336 N 
ATOM     14  H   UNL     1       0.497   6.080   1.753  0.00  0.00    +0.147 HD
ENDROOT
BRANCH   1  20
ATOM     15  C   UNL     1       1.754   2.259   0.330  0.00  0.00    +0.125 A 
ATOM     16  C   UNL     1       2.965   1.583   0.308  0.00  0.00    +0.046 A 
ATOM     17  C   UNL     1       4.149   2.291   0.236  0.00  0.00    +0.004 A 
ATOM     18  C   UNL     1       4.127   3.673   0.186  0.00  0.00    +0.001 A 
ATOM     19  C   UNL     1       2.922   4.349   0.208  0.00  0.00    +0.009 A 
ATOM     20  C   UNL     1       1.735   3.645   0.274  0.00  0.00    +0.015 A 
BRANCH  15  21
ATOM     21  O   UNL     1       0.588   1.565   0.401  0.00  0.00    -0.492 OA
BRANCH  21  23
ATOM     22  C   UNL     1      -0.721  -0.463   0.527  0.00  0.00    +0.048 C 
ATOM     23  C   UNL     1       0.683   0.140   0.450  0.00  0.00    +0.225 C 
ENDBRANCH  21  23
ENDBRANCH  15  21
ENDBRANCH   1  20
BRANCH   9  24
ATOM     24  S   UNL     1       2.117  10.021  -3.188  0.00  0.00    +0.072 S 
ATOM     25  O   UNL     1       2.788  11.031  -2.448  0.00  0.00    -0.150 OA
ATOM     26  O   UNL     1       2.712   9.372  -4.303  0.00  0.00    -0.150 OA
BRANCH  24  27
ATOM     27  N   UNL     1       0.703  10.691  -3.730  0.00  0.00    -0.216 N 
ATOM     28  H   UNL     1       0.452  10.655  -4.800  0.00  0.00    +0.174 HD
BRANCH  27  29
ATOM     29  C   UNL     1      -0.171  11.303  -2.828  0.00  0.00    +0.051 A 
ATOM     30  C   UNL     1       0.332  12.008  -1.741  0.00  0.00    +0.025 A 
ATOM     31  C   UNL     1      -0.535  12.614  -0.854  0.00  0.00    +0.005 A 
ATOM     32  C   UNL     1      -1.901  12.512  -1.040  0.00  0.00    -0.050 A 
ATOM     33  C   UNL     1      -2.405  11.807  -2.118  0.00  0.00    +0.008 A 
ATOM     34  C   UNL     1      -1.543  11.202  -3.012  0.00  0.00    -0.028 A 
ATOM     35  C   UNL     1      -2.093  10.433  -4.186  0.00  0.00    +0.046 C 
ATOM     36  C   UNL     1      -2.844  13.170  -0.066  0.00  0.00    +0.044 C 
ENDBRANCH  27  29
ENDBRANCH  24  27
ENDBRANCH   9  24
TORSDOF 6
