REMARK  Name = ZINC02131329
REMARK  11 active torsions:
REMARK  status: ('A' for Active; 'I' for Inactive)
REMARK    1  A    between atoms: C_1  and  C_2
REMARK    2  A    between atoms: C_7  and  C_8
REMARK    3  A    between atoms: C_17  and  C_19
REMARK    4  A    between atoms: C_19  and  C_20
REMARK    5  A    between atoms: N_25  and  C_28
REMARK    6  A    between atoms: C_28  and  C_29
REMARK    7  A    between atoms: C_29  and  C_30
REMARK    8  A    between atoms: C_33  and  O_38
REMARK    9  A    between atoms: C_34  and  O_36
REMARK   10  A    between atoms: O_36  and  C_37
REMARK   11  A    between atoms: O_38  and  C_39
REMARK                            x       y       z     vdW  Elec       q    Type
REMARK                         _______ _______ _______ _____ _____    ______ ____
ROOT
ATOM      1  C   UNL     1      -6.986  -1.943  -4.546  0.00  0.00    +0.044 C 
ATOM      2  C   UNL     1      -5.748  -1.233  -4.062  0.00  0.00    -0.046 A 
ATOM      3  C   UNL     1      -4.678  -1.967  -3.582  0.00  0.00    +0.004 A 
ATOM      4  C   UNL     1      -3.542  -1.316  -3.136  0.00  0.00    +0.005 A 
ATOM      5  C   UNL     1      -3.477   0.060  -3.169  0.00  0.00    -0.027 A 
ATOM      6  C   UNL     1      -4.547   0.808  -3.652  0.00  0.00    +0.039 A 
ATOM      7  C   UNL     1      -5.688   0.144  -4.098  0.00  0.00    -0.026 A 
ATOM      8  C   UNL     1      -6.859   0.934  -4.623  0.00  0.00    +0.046 C 
ATOM      9  N   UNL     1      -4.250   2.171  -3.591  0.00  0.00    -0.286 N 
ATOM     10  C   UNL     1      -3.022   2.401  -3.087  0.00  0.00    +0.211 C 
ATOM     11  O   UNL     1      -2.499   3.482  -2.919  0.00  0.00    -0.277 OA
ATOM     12  C   UNL     1      -2.426   1.056  -2.772  0.00  0.00    +0.050 C 
ATOM     13  C   UNL     1      -1.116   0.830  -3.538  0.00  0.00    +0.088 C 
ATOM     14  C   UNL     1       0.001   1.180  -2.513  0.00  0.00    +0.073 C 
ATOM     15  C   UNL     1      -0.753   1.593  -1.232  0.00  0.00    -0.049 C 
ATOM     16  C   UNL     1       0.687  -0.149  -2.283  0.00  0.00    +0.224 C 
ATOM     17  O   UNL     1       1.622  -0.332  -1.533  0.00  0.00    -0.275 OA
ATOM     18  N   UNL     1       0.103  -1.089  -3.034  0.00  0.00    -0.241 N 
ATOM     19  C   UNL     1      -0.918  -0.649  -3.779  0.00  0.00    +0.225 C 
ATOM     20  O   UNL     1      -1.581  -1.331  -4.531  0.00  0.00    -0.275 OA
ATOM     21  H   UNL     1      -4.857   2.871  -3.878  0.00  0.00    +0.155 HD
ATOM     22  N   UNL     1      -2.064   0.955  -1.369  0.00  0.00    +0.394 N 
ATOM     23  H   UNL     1      -2.011  -0.030  -1.086  0.00  0.00    -0.083 HD
ATOM     24  H   UNL     1      -2.757   1.442  -0.788  0.00  0.00    -0.083 HD
ENDROOT
BRANCH  15  25
ATOM     25  C   UNL     1      -0.013   1.086   0.008  0.00  0.00    +0.080 C 
BRANCH  25  26
ATOM     26  C   UNL     1      -0.718   1.572   1.248  0.00  0.00    +0.209 C 
ATOM     27  O   UNL     1      -1.714   2.256   1.150  0.00  0.00    -0.276 OA
ATOM     28  N   UNL     1      -0.242   1.246   2.466  0.00  0.00    -0.329 N 
ATOM     29  H   UNL     1       0.555   0.699   2.544  0.00  0.00    +0.145 HD
ATOM     30  H   UNL     1      -0.696   1.559   3.264  0.00  0.00    +0.145 HD
ENDBRANCH  25  26
ENDBRANCH  15  25
BRANCH  18  31
ATOM     31  C   UNL     1       0.545  -2.486  -3.041  0.00  0.00    +0.121 C 
BRANCH  31  32
ATOM     32  C   UNL     1       1.612  -2.677  -4.121  0.00  0.00    +0.054 C 
BRANCH  32  33
ATOM     33  C   UNL     1       2.067  -4.114  -4.128  0.00  0.00    -0.042 A 
ATOM     34  C   UNL     1       3.133  -4.504  -3.339  0.00  0.00    +0.007 A 
ATOM     35  C   UNL     1       3.550  -5.822  -3.338  0.00  0.00    +0.049 A 
ATOM     36  C   UNL     1       2.907  -6.753  -4.138  0.00  0.00    +0.161 A 
ATOM     37  C   UNL     1       1.838  -6.359  -4.936  0.00  0.00    +0.162 A 
ATOM     38  C   UNL     1       1.421  -5.038  -4.929  0.00  0.00    +0.053 A 
BRANCH  37  39
ATOM     39  O   UNL     1       1.203  -7.269  -5.723  0.00  0.00    -0.491 OA
ATOM     40  C   UNL     1       0.114  -6.794  -6.516  0.00  0.00    +0.277 C 
ENDBRANCH  37  39
BRANCH  36  41
ATOM     41  O   UNL     1       3.320  -8.049  -4.142  0.00  0.00    -0.491 OA
ATOM     42  C   UNL     1       4.424  -8.381  -3.297  0.00  0.00    +0.277 C 
ENDBRANCH  36  41
ENDBRANCH  32  33
ENDBRANCH  31  32
ENDBRANCH  18  31
TORSDOF 7
