REMARK  Name = ZINC02135518
REMARK  6 active torsions:
REMARK  status: ('A' for Active; 'I' for Inactive)
REMARK    1  A    between atoms: C_1  and  C_2
REMARK    2  A    between atoms: C_5  and  C_8
REMARK    3  A    between atoms: N_10  and  N_11
REMARK    4  A    between atoms: N_11  and  C_12
REMARK    5  A    between atoms: C_12  and  N_14
REMARK    6  A    between atoms: C_15  and  C_17
REMARK                            x       y       z     vdW  Elec       q    Type
REMARK                         _______ _______ _______ _____ _____    ______ ____
ROOT
ATOM      1  C   UNL     1       0.107  -7.013   2.298  0.00  0.00    +0.153 C 
ATOM      2  S   UNL     1       0.130  -8.724   2.288  0.00  0.00    -0.017 S 
ENDROOT
BRANCH   1   3
ATOM      3  N   UNL     1       0.104  -6.345   3.469  0.00  0.00    -0.263 N 
ATOM      4  C   UNL     1       0.119  -7.025   4.632  0.00  0.00    +0.251 C 
ATOM      5  O   UNL     1       0.135  -8.240   4.625  0.00  0.00    -0.270 OA
ATOM      6  H   UNL     1       0.091  -5.375   3.474  0.00  0.00    +0.157 HD
BRANCH   4   7
ATOM      7  C   UNL     1       0.115  -6.294   5.915  0.00  0.00    +0.055 A 
ATOM      8  C   UNL     1       0.091  -4.897   5.926  0.00  0.00    +0.016 A 
ATOM      9  C   UNL     1       0.088  -4.220   7.127  0.00  0.00    +0.021 A 
ATOM     10  C   UNL     1       0.109  -4.922   8.322  0.00  0.00    +0.042 A 
ATOM     11  C   UNL     1       0.133  -6.306   8.319  0.00  0.00    +0.040 A 
ATOM     12  C   UNL     1       0.131  -6.996   7.123  0.00  0.00    +0.054 A 
ATOM     13 CL   UNL     1       0.153  -8.732   7.121  0.00  0.00    -0.083 Cl
ATOM     14 CL   UNL     1       0.106  -4.061   9.829  0.00  0.00    -0.083 Cl
ENDBRANCH   4   7
ENDBRANCH   1   3
BRANCH   1  15
ATOM     15  N   UNL     1       0.092  -6.332   1.134  0.00  0.00    -0.245 N 
ATOM     16  H   UNL     1       0.095  -6.813   0.292  0.00  0.00    +0.172 HD
BRANCH  15  19
ATOM     17  C   UNL     1       0.059  -4.251  -0.021  0.00  0.00    +0.260 C 
ATOM     18  O   UNL     1       0.062  -4.853  -1.077  0.00  0.00    -0.269 OA
ATOM     19  N   UNL     1       0.074  -4.931   1.142  0.00  0.00    -0.231 N 
ATOM     20  H   UNL     1       0.072  -4.451   1.985  0.00  0.00    +0.173 HD
BRANCH  17  25
ATOM     21  C   UNL     1      -0.018   1.503   0.010  0.00  0.00    +0.044 C 
ATOM     22  C   UNL     1       0.002  -0.004   0.002  0.00  0.00    -0.050 A 
ATOM     23  C   UNL     1       0.006  -0.686  -1.202  0.00  0.00    +0.004 A 
ATOM     24  C   UNL     1       0.024  -2.066  -1.216  0.00  0.00    +0.013 A 
ATOM     25  C   UNL     1       0.040  -2.773  -0.013  0.00  0.00    +0.038 A 
ATOM     26  C   UNL     1       0.036  -2.079   1.198  0.00  0.00    +0.013 A 
ATOM     27  C   UNL     1       0.023  -0.699   1.198  0.00  0.00    +0.004 A 
ENDBRANCH  17  25
ENDBRANCH  15  19
ENDBRANCH   1  15
TORSDOF 5
