REMARK  Name = ZINC19563008
REMARK  7 active torsions:
REMARK  status: ('A' for Active; 'I' for Inactive)
REMARK    1  A    between atoms: C_1  and  O_2
REMARK    2  A    between atoms: O_2  and  C_3
REMARK    3  A    between atoms: N_13  and  C_16
REMARK    4  A    between atoms: C_16  and  C_17
REMARK    5  A    between atoms: C_17  and  C_19
REMARK    6  A    between atoms: C_17  and  O_27
REMARK    7  A    between atoms: C_29  and  O_31
REMARK                            x       y       z     vdW  Elec       q    Type
REMARK                         _______ _______ _______ _____ _____    ______ ____
ROOT
ATOM      1  C   UNL     1      -7.066   3.895   0.012  0.00  0.00    +0.124 A 
ATOM      2  C   UNL     1      -7.798   3.495   1.121  0.00  0.00    +0.046 A 
ATOM      3  C   UNL     1      -7.155   3.241   2.316  0.00  0.00    +0.013 A 
ATOM      4  C   UNL     1      -5.781   3.384   2.417  0.00  0.00    +0.023 A 
ATOM      5  C   UNL     1      -5.046   3.784   1.314  0.00  0.00    +0.130 A 
ATOM      6  C   UNL     1      -5.692   4.038   0.109  0.00  0.00    +0.091 A 
ATOM      7  O   UNL     1      -3.698   3.945   1.373  0.00  0.00    -0.485 OA
ATOM      8  C   UNL     1      -3.002   3.353   2.467  0.00  0.00    +0.110 C 
ATOM      9  C   UNL     1      -1.565   3.876   2.513  0.00  0.00    +0.029 C 
ATOM     10  C   UNL     1      -0.830   3.446   1.241  0.00  0.00    -0.075 C 
ATOM     11  N   UNL     1      -0.836   1.981   1.143  0.00  0.00    +0.382 N 
ATOM     12  C   UNL     1      -2.206   1.461   1.046  0.00  0.00    -0.075 C 
ATOM     13  C   UNL     1      -2.984   1.831   2.311  0.00  0.00    +0.029 C 
ATOM     14  C   UNL     1      -3.724   3.725   3.767  0.00  0.00    +0.084 C 
ATOM     15  C   UNL     1      -5.118   3.093   3.740  0.00  0.00    +0.152 C 
ATOM     16  H   UNL     1      -0.391   1.581   2.066  0.00  0.00    -0.082 HD
ENDROOT
BRANCH   1  18
ATOM     17  C   UNL     1      -9.114   3.975  -1.192  0.00  0.00    +0.277 C 
ATOM     18  O   UNL     1      -7.695   4.144  -1.166  0.00  0.00    -0.495 OA
ENDBRANCH   1  18
BRANCH  15  19
ATOM     19  O   UNL     1      -5.909   3.640   4.798  0.00  0.00    -0.387 OA
ATOM     20  H   UNL     1      -5.583   3.527   5.842  0.00  0.00    +0.210 HD
ENDBRANCH  15  19
BRANCH  11  21
ATOM     21  C   UNL     1      -0.019   1.526   0.010  0.00  0.00    -0.042 C 
BRANCH  21  22
ATOM     22  C   UNL     1       1.464   1.642   0.372  0.00  0.00    +0.128 C 
BRANCH  22  23
ATOM     23  C   UNL     1       2.302   1.186  -0.794  0.00  0.00    -0.019 A 
ATOM     24  C   UNL     1       2.875   2.119  -1.639  0.00  0.00    +0.007 A 
ATOM     25  C   UNL     1       3.645   1.703  -2.709  0.00  0.00    +0.022 A 
ATOM     26  C   UNL     1       3.842   0.352  -2.935  0.00  0.00    +0.059 A 
ATOM     27  C   UNL     1       3.268  -0.582  -2.089  0.00  0.00    +0.060 A 
ATOM     28  C   UNL     1       2.503  -0.163  -1.016  0.00  0.00    +0.027 A 
ATOM     29 CL   UNL     1       3.515  -2.276  -2.372  0.00  0.00    -0.082 Cl
ATOM     30 CL   UNL     1       4.809  -0.171  -4.279  0.00  0.00    -0.082 Cl
ENDBRANCH  22  23
BRANCH  22  31
ATOM     31  O   UNL     1       1.742   0.821   1.508  0.00  0.00    -0.389 OA
ATOM     32  H   UNL     1       2.763   0.775   1.917  0.00  0.00    +0.210 HD
ENDBRANCH  22  31
ENDBRANCH  21  22
ENDBRANCH  11  21
TORSDOF 6
