REMARK  Name = ZINC63165347
REMARK  9 active torsions:
REMARK  status: ('A' for Active; 'I' for Inactive)
REMARK    1  A    between atoms: C_1  and  C_2
REMARK    2  A    between atoms: C_5  and  O_8
REMARK    3  A    between atoms: O_8  and  C_9
REMARK    4  A    between atoms: C_9  and  C_10
REMARK    5  A    between atoms: C_14  and  S_23
REMARK    6  A    between atoms: N_16  and  C_17
REMARK    7  A    between atoms: C_17  and  C_18
REMARK    8  A    between atoms: S_23  and  C_24
REMARK    9  A    between atoms: C_24  and  C_25
REMARK                            x       y       z     vdW  Elec       q    Type
REMARK                         _______ _______ _______ _____ _____    ______ ____
ROOT
ATOM      1  C   UNL     1       0.090  -6.300   1.040  0.00  0.00    +0.179 C 
ATOM      2  N   UNL     1       1.269  -6.687   0.232  0.00  0.00    -0.234 NA
ATOM      3  N   UNL     1       0.761  -6.764  -1.146  0.00  0.00    -0.229 NA
ATOM      4  C   UNL     1      -0.597  -7.344  -0.972  0.00  0.00    +0.200 C 
ATOM      5  N   UNL     1      -1.102  -6.721   0.275  0.00  0.00    -0.251 NA
ATOM      6  H   UNL     1       2.002  -5.998   0.309  0.00  0.00    +0.142 HD
ATOM      7  H   UNL     1       1.341  -7.365  -1.712  0.00  0.00    +0.143 HD
ENDROOT
BRANCH   1   8
ATOM      8  C   UNL     1       0.072  -4.785   1.249  0.00  0.00    +0.265 C 
BRANCH   8   9
ATOM      9  O   UNL     1       0.057  -4.129  -0.021  0.00  0.00    -0.489 OA
BRANCH   9  14
ATOM     10  C   UNL     1      -0.018   1.503   0.010  0.00  0.00    +0.044 C 
ATOM     11  C   UNL     1       0.002  -0.004   0.002  0.00  0.00    -0.050 A 
ATOM     12  C   UNL     1       0.006  -0.688  -1.200  0.00  0.00    +0.007 A 
ATOM     13  C   UNL     1       0.024  -2.069  -1.210  0.00  0.00    +0.046 A 
ATOM     14  C   UNL     1       0.039  -2.770  -0.013  0.00  0.00    +0.121 A 
ATOM     15  C   UNL     1       0.036  -2.082   1.191  0.00  0.00    +0.046 A 
ATOM     16  C   UNL     1       0.023  -0.701   1.196  0.00  0.00    +0.007 A 
ENDBRANCH   9  14
ENDBRANCH   8   9
ENDBRANCH   1   8
BRANCH   5  17
ATOM     17  C   UNL     1      -1.916  -7.669   1.046  0.00  0.00    +0.162 C 
BRANCH  17  18
ATOM     18  C   UNL     1      -3.233  -7.885   0.348  0.00  0.00    +0.119 A 
ATOM     19  C   UNL     1      -3.489  -8.830  -0.575  0.00  0.00    +0.046 A 
ATOM     20  C   UNL     1      -4.840  -8.672  -0.960  0.00  0.00    +0.041 A 
ATOM     21  C   UNL     1      -5.329  -7.639  -0.250  0.00  0.00    +0.195 A 
ATOM     22  O   UNL     1      -4.353  -7.170   0.544  0.00  0.00    -0.467 OA
ENDBRANCH  17  18
ENDBRANCH   5  17
BRANCH   4  23
ATOM     23  S   UNL     1      -1.658  -6.912  -2.378  0.00  0.00    -0.121 S 
BRANCH  23  24
ATOM     24  C   UNL     1      -1.660  -5.098  -2.384  0.00  0.00    +0.118 C 
BRANCH  24  25
ATOM     25  C   UNL     1      -2.530  -4.593  -3.537  0.00  0.00    +0.184 C 
ATOM     26  N   UNL     1      -3.889  -5.135  -3.417  0.00  0.00    -0.363 N 
ATOM     27  C   UNL     1      -4.122  -5.842  -4.485  0.00  0.00    +0.060 A 
ATOM     28  C   UNL     1      -5.286  -6.618  -4.935  0.00  0.00    +0.027 A 
ATOM     29  C   UNL     1      -5.239  -7.264  -6.117  0.00  0.00    +0.002 A 
ATOM     30  C   UNL     1      -4.109  -7.231  -6.954  0.00  0.00    +0.002 A 
ATOM     31  C   UNL     1      -2.989  -6.550  -6.637  0.00  0.00    +0.027 A 
ATOM     32  C   UNL     1      -2.927  -5.806  -5.371  0.00  0.00    +0.060 A 
ATOM     33  N   UNL     1      -2.001  -5.078  -4.817  0.00  0.00    -0.363 N 
ATOM     34  H   UNL     1      -4.501  -4.992  -2.679  0.00  0.00    +0.162 HD
ATOM     35  H   UNL     1      -1.123  -4.891  -5.184  0.00  0.00    +0.162 HD
ENDBRANCH  24  25
ENDBRANCH  23  24
ENDBRANCH   4  23
TORSDOF 8
