REMARK  Name = ZINC32916069
REMARK  10 active torsions:
REMARK  status: ('A' for Active; 'I' for Inactive)
REMARK    1  A    between atoms: C_1  and  C_2
REMARK    2  A    between atoms: C_2  and  C_3
REMARK    3  A    between atoms: C_2  and  N_14
REMARK    4  A    between atoms: C_7  and  N_9
REMARK    5  A    between atoms: N_9  and  S_10
REMARK    6  A    between atoms: S_10  and  C_13
REMARK    7  A    between atoms: C_15  and  C_17
REMARK    8  A    between atoms: C_17  and  S_18
REMARK    9  A    between atoms: S_18  and  C_19
REMARK   10  A    between atoms: C_19  and  C_20
REMARK                            x       y       z     vdW  Elec       q    Type
REMARK                         _______ _______ _______ _____ _____    ______ ____
ROOT
ATOM      1  N   UNL     1       0.711  -0.489   1.189  0.00  0.00    -0.308 N 
ATOM      2  C   UNL     1       0.051  -0.633   2.355  0.00  0.00    +0.223 C 
ATOM      3  O   UNL     1      -1.129  -0.361   2.423  0.00  0.00    -0.275 OA
ATOM      4  H   UNL     1       1.654  -0.707   1.135  0.00  0.00    +0.149 HD
ENDROOT
BRANCH   1   6
ATOM      5  C   UNL     1      -0.019   1.526   0.010  0.00  0.00    +0.033 C 
ATOM      6  C   UNL     1       0.002  -0.004   0.002  0.00  0.00    +0.100 C 
BRANCH   6   7
ATOM      7  C   UNL     1       0.707  -0.490  -1.238  0.00  0.00    -0.026 A 
ATOM      8  C   UNL     1       2.090  -0.510  -1.283  0.00  0.00    +0.005 A 
ATOM      9  C   UNL     1       2.741  -0.955  -2.419  0.00  0.00    +0.002 A 
ATOM     10  C   UNL     1       2.012  -1.381  -3.512  0.00  0.00    +0.024 A 
ATOM     11  C   UNL     1       0.624  -1.362  -3.470  0.00  0.00    +0.048 A 
ATOM     12  C   UNL     1      -0.027  -0.920  -2.325  0.00  0.00    +0.030 A 
BRANCH  11  13
ATOM     13  N   UNL     1      -0.116  -1.792  -4.574  0.00  0.00    -0.221 N 
ATOM     14  H   UNL     1      -0.875  -1.273  -4.881  0.00  0.00    +0.173 HD
BRANCH  13  15
ATOM     15  S   UNL     1       0.305  -3.189  -5.359  0.00  0.00    +0.040 S 
ATOM     16  O   UNL     1      -0.630  -3.301  -6.424  0.00  0.00    -0.155 OA
ATOM     17  O   UNL     1       1.694  -3.051  -5.626  0.00  0.00    -0.155 OA
ATOM     18  C   UNL     1       0.030  -4.508  -4.145  0.00  0.00    +0.218 C 
ENDBRANCH  13  15
ENDBRANCH  11  13
ENDBRANCH   6   7
ENDBRANCH   1   6
BRANCH   2  19
ATOM     19  C   UNL     1       0.780  -1.133   3.576  0.00  0.00    +0.165 C 
BRANCH  19  20
ATOM     20  S   UNL     1      -0.371  -1.217   4.976  0.00  0.00    -0.144 S 
BRANCH  20  21
ATOM     21  C   UNL     1       0.648  -1.827   6.346  0.00  0.00    +0.143 C 
BRANCH  21  22
ATOM     22  C   UNL     1      -0.198  -1.945   7.588  0.00  0.00    +0.121 A 
ATOM     23  N   UNL     1       0.369  -2.381   8.742  0.00  0.00    -0.310 N 
ATOM     24  H   UNL     1       1.312  -2.610   8.751  0.00  0.00    +0.170 HD
ATOM     25  C   UNL     1      -0.350  -2.501   9.874  0.00  0.00    +0.260 A 
ATOM     26  O   UNL     1       0.172  -2.894  10.903  0.00  0.00    -0.267 OA
ATOM     27  C   UNL     1      -1.741  -2.159   9.847  0.00  0.00    +0.075 A 
ATOM     28  C   UNL     1      -2.710  -2.212  10.951  0.00  0.00    -0.023 A 
ATOM     29  C   UNL     1      -3.970  -1.837  10.672  0.00  0.00    -0.004 A 
ATOM     30  S   UNL     1      -3.947  -1.394   8.951  0.00  0.00    -0.073 S 
ATOM     31  C   UNL     1      -2.237  -1.719   8.612  0.00  0.00    +0.116 A 
ATOM     32  N   UNL     1      -1.462  -1.620   7.535  0.00  0.00    -0.226 NA
ATOM     33  C   UNL     1      -4.872  -1.936  11.874  0.00  0.00    +0.043 C 
ATOM     34  C   UNL     1      -4.103  -2.841  12.861  0.00  0.00    +0.010 C 
ATOM     35  C   UNL     1      -2.642  -2.607  12.429  0.00  0.00    +0.037 C 
ENDBRANCH  21  22
ENDBRANCH  20  21
ENDBRANCH  19  20
ENDBRANCH   2  19
TORSDOF 8
