REMARK  Name = ZINC39688441
REMARK  7 active torsions:
REMARK  status: ('A' for Active; 'I' for Inactive)
REMARK    1  A    between atoms: C_1  and  C_2
REMARK    2  A    between atoms: C_2  and  C_4
REMARK    3  A    between atoms: C_2  and  N_12
REMARK    4  A    between atoms: C_4  and  C_5
REMARK    5  A    between atoms: C_13  and  C_15
REMARK    6  A    between atoms: C_26  and  C_28
REMARK    7  A    between atoms: C_33  and  C_34
REMARK                            x       y       z     vdW  Elec       q    Type
REMARK                         _______ _______ _______ _____ _____    ______ ____
ROOT
ATOM      1  C   UNL     1       0.023  -3.504   2.967  0.00  0.00    +0.100 C 
ATOM      2  C   UNL     1       0.130  -4.374   1.695  0.00  0.00    +0.121 C 
ATOM      3  N   UNL     1       1.541  -4.236   1.265  0.00  0.00    -0.296 N 
ATOM      4  C   UNL     1       2.315  -4.246   2.529  0.00  0.00    +0.115 C 
ATOM      5  C   UNL     1       1.458  -3.426   3.514  0.00  0.00    -0.004 C 
ATOM      6  C   UNL     1       1.526  -4.038   4.910  0.00  0.00    -0.010 C 
ATOM      7  C   UNL     1       2.949  -3.895   5.456  0.00  0.00    -0.082 C 
ATOM      8  N   UNL     1       3.317  -2.475   5.504  0.00  0.00    +0.379 N 
ATOM      9  C   UNL     1       3.340  -1.918   4.146  0.00  0.00    -0.082 C 
ATOM     10  C   UNL     1       1.933  -1.976   3.545  0.00  0.00    -0.010 C 
ATOM     11  C   UNL     1       2.015  -4.127   0.007  0.00  0.00    +0.247 C 
ATOM     12  O   UNL     1       3.209  -4.007  -0.184  0.00  0.00    -0.270 OA
ATOM     13  H   UNL     1       2.643  -1.973   6.061  0.00  0.00    -0.086 HD
ATOM     14  H   UNL     1       4.231  -2.380   5.921  0.00  0.00    -0.086 HD
ENDROOT
BRANCH  11  15
ATOM     15  C   UNL     1       1.081  -4.152  -1.139  0.00  0.00    +0.049 A 
ATOM     16  C   UNL     1       0.187  -3.099  -1.338  0.00  0.00    +0.013 A 
ATOM     17  C   UNL     1      -0.681  -3.129  -2.410  0.00  0.00    +0.001 A 
ATOM     18  C   UNL     1      -0.666  -4.200  -3.286  0.00  0.00    +0.001 A 
ATOM     19  C   UNL     1       0.217  -5.247  -3.095  0.00  0.00    +0.013 A 
ATOM     20  C   UNL     1       1.095  -5.227  -2.030  0.00  0.00    +0.067 A 
BRANCH  20  21
ATOM     21  C   UNL     1       2.061  -6.365  -1.825  0.00  0.00    +0.418 C 
ATOM     22  F   UNL     1       1.885  -7.314  -2.839  0.00  0.00    -0.166 F 
ATOM     23  F   UNL     1       3.371  -5.878  -1.866  0.00  0.00    -0.166 F 
ATOM     24  F   UNL     1       1.823  -6.961  -0.582  0.00  0.00    -0.166 F 
ENDBRANCH  20  21
ENDBRANCH  11  15
BRANCH   1  26
ATOM     25  N   UNL     1      -1.107  -1.384   3.555  0.00  0.00    -0.312 N 
ATOM     26  C   UNL     1      -0.483  -2.127   2.620  0.00  0.00    +0.218 C 
ATOM     27  O   UNL     1      -0.327  -1.689   1.500  0.00  0.00    -0.275 OA
ATOM     28  H   UNL     1      -1.303  -1.764   4.426  0.00  0.00    +0.149 HD
BRANCH  25  30
ATOM     29  C   UNL     1      -0.301   0.925   3.518  0.00  0.00    +0.028 C 
ATOM     30  C   UNL     1      -1.490  -0.002   3.256  0.00  0.00    +0.074 C 
BRANCH  30  31
ATOM     31  C   UNL     1      -2.663   0.408   4.149  0.00  0.00    +0.057 C 
BRANCH  31  32
ATOM     32  C   UNL     1      -3.426  -0.821   4.570  0.00  0.00    -0.045 A 
ATOM     33  C   UNL     1      -4.380  -1.363   3.729  0.00  0.00    +0.006 A 
ATOM     34  C   UNL     1      -5.081  -2.491   4.114  0.00  0.00    +0.038 A 
ATOM     35  C   UNL     1      -4.827  -3.077   5.342  0.00  0.00    +0.123 A 
ATOM     36  C   UNL     1      -3.871  -2.533   6.184  0.00  0.00    +0.038 A 
ATOM     37  C   UNL     1      -3.168  -1.409   5.795  0.00  0.00    +0.006 A 
ATOM     38  F   UNL     1      -5.512  -4.179   5.720  0.00  0.00    -0.205 F 
ENDBRANCH  31  32
ENDBRANCH  30  31
ENDBRANCH  25  30
ENDBRANCH   1  26
TORSDOF 6
