REMARK  Name = ZINC34830276
REMARK  7 active torsions:
REMARK  status: ('A' for Active; 'I' for Inactive)
REMARK    1  A    between atoms: C_1  and  C_2
REMARK    2  A    between atoms: C_7  and  C_8
REMARK    3  A    between atoms: N_17  and  C_18
REMARK    4  A    between atoms: C_18  and  C_19
REMARK    5  A    between atoms: C_19  and  C_20
REMARK    6  A    between atoms: C_26  and  C_29
REMARK    7  A    between atoms: C_30  and  C_32
REMARK                            x       y       z     vdW  Elec       q    Type
REMARK                         _______ _______ _______ _____ _____    ______ ____
ROOT
ATOM      1  C   UNL     1      -3.334  -2.388   5.666  0.00  0.00    +0.214 C 
ATOM      2  O   UNL     1      -4.194  -1.786   5.058  0.00  0.00    -0.276 OA
ATOM      3  N   UNL     1      -3.641  -3.532   6.310  0.00  0.00    -0.298 N 
ATOM      4  C   UNL     1      -2.611  -4.269   7.056  0.00  0.00    +0.127 C 
ATOM      5  C   UNL     1      -2.567  -5.711   6.534  0.00  0.00    +0.127 C 
ATOM      6  N   UNL     1      -3.937  -6.242   6.504  0.00  0.00    -0.292 N 
ATOM      7  C   UNL     1      -4.966  -5.504   5.758  0.00  0.00    +0.091 C 
ATOM      8  C   UNL     1      -5.012  -4.060   6.285  0.00  0.00    +0.130 C 
ATOM      9  C   UNL     1      -4.620  -5.505   4.268  0.00  0.00    +0.029 C 
ATOM     10  C   UNL     1      -4.243  -7.385   7.148  0.00  0.00    +0.247 C 
ATOM     11  O   UNL     1      -3.408  -7.937   7.839  0.00  0.00    -0.270 OA
ENDROOT
BRANCH  10  12
ATOM     12  C   UNL     1      -5.593  -7.968   7.016  0.00  0.00    +0.041 A 
ATOM     13  C   UNL     1      -6.231  -7.981   5.773  0.00  0.00    +0.017 A 
ATOM     14  C   UNL     1      -7.490  -8.526   5.651  0.00  0.00    +0.050 A 
ATOM     15  C   UNL     1      -8.130  -9.064   6.760  0.00  0.00    +0.166 A 
ATOM     16  C   UNL     1      -7.498  -9.054   8.004  0.00  0.00    +0.167 A 
ATOM     17  C   UNL     1      -6.233  -8.514   8.131  0.00  0.00    +0.062 A 
ATOM     18  O   UNL     1      -8.328  -9.636   8.919  0.00  0.00    -0.453 OA
ATOM     19  C   UNL     1      -9.633  -9.631   8.310  0.00  0.00    +0.466 C 
ATOM     20  O   UNL     1      -9.352  -9.652   6.898  0.00  0.00    -0.453 OA
ENDBRANCH  10  12
BRANCH   1  21
ATOM     21  C   UNL     1      -1.924  -1.859   5.700  0.00  0.00    +0.077 C 
BRANCH  21  22
ATOM     22  C   UNL     1      -1.847  -0.559   4.897  0.00  0.00    -0.068 C 
BRANCH  22  31
ATOM     23  C   UNL     1      -0.378   1.136   4.061  0.00  0.00    -0.006 C 
ATOM     24  C   UNL     1       1.024   1.727   4.182  0.00  0.00    -0.047 A 
ATOM     25  C   UNL     1       1.591   2.585   3.244  0.00  0.00    +0.010 A 
ATOM     26  C   UNL     1       2.845   3.060   3.432  0.00  0.00    +0.045 A 
ATOM     27  S   UNL     1       3.299   2.299   4.984  0.00  0.00    -0.101 S 
ATOM     28  C   UNL     1       1.792   1.413   5.263  0.00  0.00    -0.010 A 
ATOM     29  C   UNL     1       1.405   0.523   6.399  0.00  0.00    +0.024 C 
ATOM     30  C   UNL     1      -0.115   0.299   6.315  0.00  0.00    -0.072 C 
ATOM     31  N   UNL     1      -0.472  -0.043   4.931  0.00  0.00    +0.388 N 
ATOM     32  H   UNL     1       0.158  -0.755   4.593  0.00  0.00    -0.080 HD
BRANCH  23  39
ATOM     33  C   UNL     1      -1.387   3.075   2.172  0.00  0.00    +0.044 C 
ATOM     34  C   UNL     1      -1.117   1.660   1.728  0.00  0.00    -0.049 A 
ATOM     35  C   UNL     1      -1.347   1.291   0.416  0.00  0.00    +0.003 A 
ATOM     36  C   UNL     1      -1.100  -0.007   0.009  0.00  0.00    +0.000 A 
ATOM     37  C   UNL     1      -0.622  -0.936   0.915  0.00  0.00    +0.000 A 
ATOM     38  C   UNL     1      -0.391  -0.567   2.227  0.00  0.00    +0.002 A 
ATOM     39  C   UNL     1      -0.634   0.732   2.632  0.00  0.00    -0.054 A 
ENDBRANCH  23  39
ENDBRANCH  22  31
ENDBRANCH  21  22
ENDBRANCH   1  21
TORSDOF 5
