REMARK  Name = ZINC13063736
REMARK  12 active torsions:
REMARK  status: ('A' for Active; 'I' for Inactive)
REMARK    1  A    between atoms: C_1  and  C_2
REMARK    2  A    between atoms: C_2  and  C_3
REMARK    3  A    between atoms: C_10  and  C_15
REMARK    4  A    between atoms: C_15  and  N_66
REMARK    5  A    between atoms: C_16  and  C_17
REMARK    6  A    between atoms: C_16  and  N_66
REMARK    7  A    between atoms: C_22  and  C_24
REMARK    8  A    between atoms: C_22  and  C_26
REMARK    9  A    between atoms: C_22  and  N_66
REMARK   10  A    between atoms: C_24  and  C_25
REMARK   11  A    between atoms: N_30  and  C_31
REMARK   12  A    between atoms: C_31  and  C_32
REMARK                            x       y       z     vdW  Elec       q    Type
REMARK                         _______ _______ _______ _____ _____    ______ ____
ROOT
ATOM      1  N   UNL     1      -3.217   4.629   1.576  0.00  0.00    +0.394 N 
ATOM      2  H   UNL     1      -2.636   5.077   2.295  0.00  0.00    -0.080 HD
ENDROOT
BRANCH   1   3
ATOM      3  C   UNL     1      -2.345   4.155   0.481  0.00  0.00    -0.036 C 
BRANCH   3  11
ATOM      4  C   UNL     1       1.209  -0.480   2.522  0.00  0.00    -0.047 A 
ATOM      5  C   UNL     1       2.283   0.308   2.914  0.00  0.00    +0.005 A 
ATOM      6  C   UNL     1       2.244   1.677   2.758  0.00  0.00    +0.026 A 
ATOM      7  C   UNL     1       1.120   2.277   2.201  0.00  0.00    +0.049 A 
ATOM      8  C   UNL     1       0.034   1.475   1.804  0.00  0.00    -0.001 A 
ATOM      9  C   UNL     1       0.094   0.087   1.973  0.00  0.00    +0.013 A 
ATOM     10  C   UNL     1      -1.148   2.116   1.225  0.00  0.00    +0.017 A 
ATOM     11  C   UNL     1      -1.147   3.464   1.080  0.00  0.00    +0.001 A 
ATOM     12  C   UNL     1      -0.032   4.223   1.493  0.00  0.00    +0.251 A 
ATOM     13  O   UNL     1      -0.054   5.434   1.359  0.00  0.00    -0.268 OA
ATOM     14  N   UNL     1       1.056   3.644   2.032  0.00  0.00    -0.322 N 
ATOM     15  H   UNL     1       1.805   4.195   2.306  0.00  0.00    +0.169 HD
BRANCH   4  17
ATOM     16  C   UNL     1       1.875  -2.615   1.450  0.00  0.00    +0.009 C 
ATOM     17  C   UNL     1       1.274  -1.975   2.703  0.00  0.00    +0.032 C 
ENDBRANCH   4  17
ENDBRANCH   3  11
ENDBRANCH   1   3
BRANCH   1  18
ATOM     18  C   UNL     1      -3.933   3.486   2.182  0.00  0.00    -0.002 C 
BRANCH  18  19
ATOM     19  C   UNL     1      -4.499   3.919   3.510  0.00  0.00    +0.089 A 
ATOM     20  C   UNL     1      -5.755   4.351   3.726  0.00  0.00    +0.042 A 
ATOM     21  C   UNL     1      -5.854   4.648   5.104  0.00  0.00    +0.041 A 
ATOM     22  C   UNL     1      -4.653   4.379   5.648  0.00  0.00    +0.195 A 
ATOM     23  O   UNL     1      -3.838   3.932   4.679  0.00  0.00    -0.470 OA
ENDBRANCH  18  19
ENDBRANCH   1  18
BRANCH   1  24
ATOM     24  C   UNL     1      -4.188   5.616   1.059  0.00  0.00    +0.003 C 
BRANCH  24  25
ATOM     25  C   UNL     1      -4.867   5.089  -0.179  0.00  0.00    +0.138 A 
ATOM     26  N   UNL     1      -4.285   4.547  -1.221  0.00  0.00    -0.115 NA
ATOM     27  N   UNL     1      -5.202   4.225  -2.067  0.00  0.00    -0.023 NA
ATOM     28  N   UNL     1      -6.354   4.548  -1.591  0.00  0.00    -0.044 NA
ATOM     29  N   UNL     1      -6.190   5.079  -0.427  0.00  0.00    -0.226 N 
BRANCH  29  30
ATOM     30  C   UNL     1      -7.245   5.579   0.458  0.00  0.00    +0.182 C 
BRANCH  30  31
ATOM     31  C   UNL     1      -7.608   6.987   0.060  0.00  0.00    -0.026 A 
ATOM     32  C   UNL     1      -6.948   8.058   0.632  0.00  0.00    +0.008 A 
ATOM     33  C   UNL     1      -7.276   9.349   0.265  0.00  0.00    +0.038 A 
ATOM     34  C   UNL     1      -8.275   9.570  -0.668  0.00  0.00    +0.123 A 
ATOM     35  C   UNL     1      -8.940   8.496  -1.236  0.00  0.00    +0.038 A 
ATOM     36  C   UNL     1      -8.606   7.206  -0.872  0.00  0.00    +0.008 A 
ATOM     37  F   UNL     1      -8.600  10.832  -1.024  0.00  0.00    -0.205 F 
ENDBRANCH  30  31
ENDBRANCH  29  30
ENDBRANCH  24  25
BRANCH  24  38
ATOM     38  C   UNL     1      -3.443   6.909   0.720  0.00  0.00    -0.011 C 
ATOM     39  C   UNL     1      -2.824   7.489   1.994  0.00  0.00    +0.002 C 
ENDBRANCH  24  38
ENDBRANCH   1  24
TORSDOF 10
