REMARK  Name = ZINC09303600
REMARK  10 active torsions:
REMARK  status: ('A' for Active; 'I' for Inactive)
REMARK    1  A    between atoms: C_1  and  C_2
REMARK    2  A    between atoms: C_11  and  O_12
REMARK    3  A    between atoms: O_12  and  C_13
REMARK    4  A    between atoms: C_13  and  C_14
REMARK    5  A    between atoms: C_17  and  S_20
REMARK    6  A    between atoms: N_18  and  C_19
REMARK    7  A    between atoms: S_20  and  C_21
REMARK    8  A    between atoms: C_21  and  C_23
REMARK    9  A    between atoms: C_21  and  C_24
REMARK   10  A    between atoms: N_26  and  C_27
REMARK                            x       y       z     vdW  Elec       q    Type
REMARK                         _______ _______ _______ _____ _____    ______ ____
ROOT
ATOM      1  C   UNL     1       1.695   9.446  -0.027  0.00  0.00    +0.172 A 
ATOM      2  N   UNL     1       1.780  10.201   1.031  0.00  0.00    -0.130 NA
ATOM      3  N   UNL     1       1.624  11.435   0.707  0.00  0.00    -0.122 NA
ATOM      4  C   UNL     1       1.429  11.534  -0.588  0.00  0.00    +0.192 A 
ATOM      5  N   UNL     1       1.474  10.268  -1.097  0.00  0.00    -0.306 N 
ATOM      6  C   UNL     1       1.315   9.873  -2.499  0.00  0.00    +0.153 C 
ENDROOT
BRANCH   1   7
ATOM      7  C   UNL     1       1.823   7.945  -0.066  0.00  0.00    +0.305 C 
BRANCH   7   8
ATOM      8  O   UNL     1       0.535   7.352   0.112  0.00  0.00    -0.484 OA
BRANCH   8  19
ATOM      9  C   UNL     1      -1.984   6.187   0.460  0.00  0.00    +0.048 C 
ATOM     10  C   UNL     1      -0.730   5.373   0.268  0.00  0.00    -0.001 A 
ATOM     11  C   UNL     1      -0.795   3.970   0.258  0.00  0.00    -0.012 A 
ATOM     12  C   UNL     1      -2.016   3.295   0.425  0.00  0.00    +0.009 A 
ATOM     13  C   UNL     1      -2.042   1.934   0.405  0.00  0.00    +0.001 A 
ATOM     14  C   UNL     1      -0.873   1.197   0.232  0.00  0.00    +0.001 A 
ATOM     15  C   UNL     1       0.328   1.816   0.067  0.00  0.00    +0.008 A 
ATOM     16  C   UNL     1       0.394   3.220   0.077  0.00  0.00    -0.017 A 
ATOM     17  C   UNL     1       1.617   3.893  -0.091  0.00  0.00    +0.012 A 
ATOM     18  C   UNL     1       1.646   5.252  -0.077  0.00  0.00    +0.046 A 
ATOM     19  C   UNL     1       0.474   5.995   0.102  0.00  0.00    +0.125 A 
ENDBRANCH   8  19
ENDBRANCH   7   8
ENDBRANCH   1   7
BRANCH   4  20
ATOM     20  S   UNL     1       1.167  13.021  -1.496  0.00  0.00    -0.074 S 
BRANCH  20  21
ATOM     21  C   UNL     1       1.252  14.230  -0.152  0.00  0.00    +0.137 C 
ATOM     22  C   UNL     1       0.084  14.006   0.810  0.00  0.00    +0.029 C 
BRANCH  21  23
ATOM     23  C   UNL     1       1.172  15.622  -0.723  0.00  0.00    +0.230 C 
ATOM     24  O   UNL     1       0.633  15.809  -1.794  0.00  0.00    -0.274 OA
ATOM     25  N   UNL     1       1.700  16.660  -0.045  0.00  0.00    -0.284 N 
ATOM     26  H   UNL     1       2.063  16.524   0.845  0.00  0.00    +0.155 HD
BRANCH  25  27
ATOM     27  C   UNL     1       1.725  17.936  -0.624  0.00  0.00    +0.037 A 
ATOM     28  C   UNL     1       1.889  18.073  -1.996  0.00  0.00    +0.027 A 
ATOM     29  C   UNL     1       1.909  19.330  -2.569  0.00  0.00    +0.051 A 
ATOM     30  C   UNL     1       1.775  20.458  -1.775  0.00  0.00    +0.166 A 
ATOM     31  C   UNL     1       1.616  20.324  -0.398  0.00  0.00    +0.168 A 
ATOM     32  C   UNL     1       1.591  19.063   0.175  0.00  0.00    +0.072 A 
ATOM     33  O   UNL     1       1.508  21.569   0.152  0.00  0.00    -0.453 OA
ATOM     34  C   UNL     1       2.011  22.476  -0.847  0.00  0.00    +0.466 C 
ATOM     35  O   UNL     1       1.766  21.787  -2.088  0.00  0.00    -0.453 OA
ENDBRANCH  25  27
ENDBRANCH  21  23
ENDBRANCH  20  21
ENDBRANCH   4  20
TORSDOF 7
