REMARK  Name = ZINC45662631
REMARK  9 active torsions:
REMARK  status: ('A' for Active; 'I' for Inactive)
REMARK    1  A    between atoms: C_1  and  C_2
REMARK    2  A    between atoms: C_2  and  C_3
REMARK    3  A    between atoms: C_3  and  C_5
REMARK    4  A    between atoms: C_3  and  N_24
REMARK    5  A    between atoms: C_5  and  C_7
REMARK    6  A    between atoms: C_5  and  N_14
REMARK    7  A    between atoms: C_16  and  C_23
REMARK    8  A    between atoms: C_19  and  C_21
REMARK    9  A    between atoms: C_19  and  C_22
REMARK                            x       y       z     vdW  Elec       q    Type
REMARK                         _______ _______ _______ _____ _____    ______ ____
ROOT
ATOM      1  C   UNL     1      -1.523  -2.050   0.192  0.00  0.00    +0.073 C 
ENDROOT
BRANCH   1   2
ATOM      2  N   UNL     1      -0.955  -2.424   1.494  0.00  0.00    -0.292 NA
ATOM      3  C   UNL     1       0.384  -1.844   1.671  0.00  0.00    +0.116 C 
ATOM      4  C   UNL     1       0.912  -2.208   3.062  0.00  0.00    +0.130 C 
ATOM      5  O   UNL     1       0.914  -3.630   3.208  0.00  0.00    -0.368 OA
ATOM      6  C   UNL     1      -0.374  -4.228   3.043  0.00  0.00    +0.077 C 
ATOM      7  C   UNL     1      -0.915  -3.885   1.652  0.00  0.00    +0.119 C 
ATOM      8  C   UNL     1      -0.255  -5.747   3.184  0.00  0.00    +0.042 C 
ATOM      9  C   UNL     1      -1.329  -3.689   4.110  0.00  0.00    +0.042 C 
ATOM     10  C   UNL     1       2.337  -1.675   3.223  0.00  0.00    +0.039 C 
ENDBRANCH   1   2
BRANCH   1  11
ATOM     11  C   UNL     1      -2.951  -2.523   0.112  0.00  0.00    -0.032 A 
ATOM     12  C   UNL     1      -3.778  -2.414   1.215  0.00  0.00    +0.006 A 
ATOM     13  C   UNL     1      -5.088  -2.847   1.143  0.00  0.00    +0.015 A 
ATOM     14  C   UNL     1      -5.573  -3.390  -0.034  0.00  0.00    +0.018 A 
ATOM     15  C   UNL     1      -4.746  -3.498  -1.137  0.00  0.00    +0.015 A 
ATOM     16  C   UNL     1      -3.437  -3.060  -1.065  0.00  0.00    +0.006 A 
ATOM     17 BR   UNL     1      -7.366  -3.983  -0.134  0.00  0.00    -0.050 Br
ENDBRANCH   1  11
BRANCH   1  18
ATOM     18  C   UNL     1      -1.479  -0.529   0.034  0.00  0.00    -0.053 C 
BRANCH  18  19
ATOM     19  N   UNL     1      -2.264   0.097   1.106  0.00  0.00    +0.381 N 
ATOM     20  H   UNL     1      -3.220  -0.220   1.052  0.00  0.00    -0.090 HD
ATOM     21  H   UNL     1      -1.875  -0.160   2.002  0.00  0.00    -0.090 HD
ATOM     22  H   UNL     1      -2.235   1.100   1.002  0.00  0.00    -0.090 HD
ENDBRANCH  18  19
BRANCH  18  24
ATOM     23  C   UNL     1      -1.890   1.363  -1.545  0.00  0.00    +0.002 C 
ATOM     24  C   UNL     1      -2.069  -0.140  -1.323  0.00  0.00    -0.018 C 
ENDBRANCH  18  24
ENDBRANCH   1  18
TORSDOF 5
