REMARK  Name = ZINC36032823
REMARK  9 active torsions:
REMARK  status: ('A' for Active; 'I' for Inactive)
REMARK    1  A    between atoms: C_1  and  C_2
REMARK    2  A    between atoms: C_2  and  C_3
REMARK    3  A    between atoms: C_2  and  C_4
REMARK    4  A    between atoms: C_4  and  C_5
REMARK    5  A    between atoms: N_9  and  C_27
REMARK    6  A    between atoms: N_14  and  S_17
REMARK    7  A    between atoms: S_17  and  C_20
REMARK    8  A    between atoms: C_27  and  C_28
REMARK    9  A    between atoms: C_32  and  C_34
REMARK                            x       y       z     vdW  Elec       q    Type
REMARK                         _______ _______ _______ _____ _____    ______ ____
ROOT
ATOM      1  C   UNL     1      -1.517  -1.768  -0.203  0.00  0.00    +0.019 C 
ATOM      2  C   UNL     1      -2.912  -2.347  -0.292  0.00  0.00    +0.201 C 
ATOM      3  O   UNL     1      -3.764  -2.023  -1.093  0.00  0.00    -0.277 OA
ATOM      4  N   UNL     1      -3.049  -3.283   0.670  0.00  0.00    -0.309 N 
ATOM      5  C   UNL     1      -1.805  -3.382   1.437  0.00  0.00    +0.006 C 
ATOM      6  N   UNL     1      -0.753  -2.740   0.615  0.00  0.00    +0.401 N 
ATOM      7  C   UNL     1      -1.447  -4.847   1.679  0.00  0.00    +0.023 C 
ATOM      8  C   UNL     1      -2.559  -5.513   2.497  0.00  0.00    +0.109 C 
ATOM      9  N   UNL     1      -2.782  -4.727   3.718  0.00  0.00    -0.177 NA
ATOM     10  C   UNL     1      -3.060  -3.289   3.594  0.00  0.00    +0.109 C 
ATOM     11  C   UNL     1      -1.944  -2.643   2.767  0.00  0.00    +0.023 C 
ATOM     12  H   UNL     1      -0.295  -3.420   0.026  0.00  0.00    -0.082 HD
ATOM     13  H   UNL     1      -0.082  -2.264   1.200  0.00  0.00    -0.082 HD
ENDROOT
BRANCH   9  14
ATOM     14  S   UNL     1      -2.723  -5.448   5.208  0.00  0.00    +0.061 S 
ATOM     15  O   UNL     1      -3.494  -4.637   6.083  0.00  0.00    -0.153 OA
ATOM     16  O   UNL     1      -3.002  -6.826   5.003  0.00  0.00    -0.153 OA
BRANCH  14  17
ATOM     17  C   UNL     1      -1.056  -5.349   5.769  0.00  0.00    +0.106 A 
ATOM     18  C   UNL     1      -0.164  -6.361   5.464  0.00  0.00    +0.031 A 
ATOM     19  C   UNL     1       1.145  -6.285   5.903  0.00  0.00    +0.040 A 
ATOM     20  C   UNL     1       1.562  -5.194   6.648  0.00  0.00    +0.124 A 
ATOM     21  C   UNL     1       0.668  -4.182   6.952  0.00  0.00    +0.040 A 
ATOM     22  C   UNL     1      -0.639  -4.258   6.507  0.00  0.00    +0.031 A 
ATOM     23  F   UNL     1       2.841  -5.119   7.077  0.00  0.00    -0.205 F 
ENDBRANCH  14  17
ENDBRANCH   9  14
BRANCH   1  24
ATOM     24  C   UNL     1      -1.550  -0.402   0.485  0.00  0.00    -0.004 C 
BRANCH  24  26
ATOM     25  C   UNL     1      -2.377   1.948   0.300  0.00  0.00    +0.007 C 
ATOM     26  C   UNL     1      -2.207   0.622  -0.443  0.00  0.00    -0.018 C 
ATOM     27  C   UNL     1      -1.324   0.835  -1.674  0.00  0.00    +0.007 C 
ENDBRANCH  24  26
ENDBRANCH   1  24
BRANCH   4  28
ATOM     28  C   UNL     1      -4.256  -4.079   0.909  0.00  0.00    +0.141 C 
BRANCH  28  29
ATOM     29  C   UNL     1      -4.346  -5.177  -0.119  0.00  0.00    -0.030 A 
ATOM     30  C   UNL     1      -4.846  -4.904  -1.379  0.00  0.00    +0.005 A 
ATOM     31  C   UNL     1      -4.929  -5.911  -2.322  0.00  0.00    +0.001 A 
ATOM     32  C   UNL     1      -4.511  -7.191  -2.006  0.00  0.00    +0.012 A 
ATOM     33  C   UNL     1      -4.010  -7.463  -0.747  0.00  0.00    +0.055 A 
ATOM     34  C   UNL     1      -3.923  -6.455   0.196  0.00  0.00    +0.017 A 
BRANCH  33  35
ATOM     35  C   UNL     1      -3.555  -8.858  -0.402  0.00  0.00    +0.417 C 
ATOM     36  F   UNL     1      -3.737  -9.694  -1.508  0.00  0.00    -0.166 F 
ATOM     37  F   UNL     1      -2.201  -8.833  -0.053  0.00  0.00    -0.166 F 
ATOM     38  F   UNL     1      -4.306  -9.340   0.675  0.00  0.00    -0.166 F 
ENDBRANCH  33  35
ENDBRANCH  28  29
ENDBRANCH   4  28
TORSDOF 7
