REMARK  Name = ZINC09165309
REMARK  8 active torsions:
REMARK  status: ('A' for Active; 'I' for Inactive)
REMARK    1  A    between atoms: C_1  and  N_2
REMARK    2  A    between atoms: C_10  and  C_12
REMARK    3  A    between atoms: C_12  and  C_14
REMARK    4  A    between atoms: C_12  and  N_65
REMARK    5  A    between atoms: C_14  and  N_15
REMARK    6  A    between atoms: C_16  and  C_18
REMARK    7  A    between atoms: N_20  and  C_21
REMARK    8  A    between atoms: C_25  and  N_27
REMARK                            x       y       z     vdW  Elec       q    Type
REMARK                         _______ _______ _______ _____ _____    ______ ____
ROOT
ATOM      1  C   UNL     1       4.718  11.247  -0.145  0.00  0.00    -0.020 C 
ENDROOT
BRANCH   1  11
ATOM      2  C   UNL     1       2.883  16.963   1.821  0.00  0.00    +0.129 C 
ATOM      3  N   UNL     1       2.510  16.435   0.502  0.00  0.00    -0.333 N 
ATOM      4  C   UNL     1       2.840  17.390  -0.558  0.00  0.00    +0.105 C 
ATOM      5  C   UNL     1       2.454  16.775  -1.909  0.00  0.00    +0.024 C 
ATOM      6  C   UNL     1       3.396  15.599  -2.178  0.00  0.00    +0.038 C 
ATOM      7  C   UNL     1       3.489  14.732  -0.947  0.00  0.00    -0.026 A 
ATOM      8  C   UNL     1       3.065  15.173   0.294  0.00  0.00    +0.033 A 
ATOM      9  C   UNL     1       3.186  14.329   1.399  0.00  0.00    +0.023 A 
ATOM     10  C   UNL     1       3.713  13.063   1.256  0.00  0.00    +0.004 A 
ATOM     11  C   UNL     1       4.137  12.628   0.013  0.00  0.00    -0.059 A 
ATOM     12  C   UNL     1       4.022  13.460  -1.083  0.00  0.00    +0.007 A 
ENDBRANCH   1  11
BRANCH   1  18
ATOM     13  C   UNL     1       6.657  11.941   1.126  0.00  0.00    -0.078 C 
ATOM     14  C   UNL     1       7.450  11.681   2.409  0.00  0.00    -0.019 C 
ATOM     15  C   UNL     1       8.043  10.270   2.359  0.00  0.00    -0.004 C 
ATOM     16  C   UNL     1       6.910   9.255   2.180  0.00  0.00    -0.019 C 
ATOM     17  C   UNL     1       6.132   9.586   0.904  0.00  0.00    -0.078 C 
ATOM     18  N   UNL     1       5.568  10.947   1.026  0.00  0.00    +0.385 N 
ATOM     19  H   UNL     1       4.994  10.995   1.875  0.00  0.00    -0.081 HD
ENDBRANCH   1  18
BRANCH   1  20
ATOM     20  C   UNL     1       3.583  10.222  -0.210  0.00  0.00    +0.094 C 
BRANCH  20  21
ATOM     21  N   UNL     1       2.772  10.465  -1.405  0.00  0.00    -0.309 N 
ATOM     22  C   UNL     1       1.650   9.749  -1.615  0.00  0.00    +0.299 C 
ATOM     23  O   UNL     1       1.311   8.903  -0.814  0.00  0.00    -0.265 OA
ATOM     24  H   UNL     1       3.043  11.142  -2.045  0.00  0.00    +0.149 HD
BRANCH  22  25
ATOM     25  C   UNL     1       0.823   9.998  -2.834  0.00  0.00    +0.303 C 
ATOM     26  O   UNL     1       1.162  10.844  -3.635  0.00  0.00    -0.265 OA
ATOM     27  N   UNL     1      -0.299   9.282  -3.044  0.00  0.00    -0.278 N 
ATOM     28  H   UNL     1      -0.610   8.658  -2.369  0.00  0.00    +0.155 HD
BRANCH  27  29
ATOM     29  C   UNL     1      -1.015   9.439  -4.234  0.00  0.00    +0.036 A 
ATOM     30  C   UNL     1      -2.401   9.338  -4.231  0.00  0.00    +0.023 A 
ATOM     31  C   UNL     1      -3.106   9.493  -5.408  0.00  0.00    +0.004 A 
ATOM     32  C   UNL     1      -2.433   9.750  -6.590  0.00  0.00    +0.033 A 
ATOM     33  C   UNL     1      -1.054   9.846  -6.597  0.00  0.00    +0.128 A 
ATOM     34  C   UNL     1      -0.343   9.696  -5.422  0.00  0.00    +0.056 A 
BRANCH  33  35
ATOM     35  N   UNL     1      -0.338  10.114  -7.864  0.00  0.00    +0.056 N 
ATOM     36  O   UNL     1      -0.965  10.250  -8.900  0.00  0.00    -0.126 OA
ATOM     37  O   UNL     1       0.877  10.199  -7.872  0.00  0.00    -0.126 OA
ENDBRANCH  33  35
ENDBRANCH  27  29
ENDBRANCH  22  25
ENDBRANCH  20  21
ENDBRANCH   1  20
TORSDOF 7
