REMARK  Name = ZINC31163849
REMARK  4 active torsions:
REMARK  status: ('A' for Active; 'I' for Inactive)
REMARK    1  A    between atoms: C_1  and  C_2
REMARK    2  A    between atoms: C_9  and  C_15
REMARK    3  A    between atoms: C_9  and  O_16
REMARK    4  A    between atoms: C_10  and  C_14
REMARK                            x       y       z     vdW  Elec       q    Type
REMARK                         _______ _______ _______ _____ _____    ______ ____
ROOT
ATOM      1  C   UNL     1       4.174  -0.371   4.596  0.00  0.00    +0.055 C 
ATOM      2  C   UNL     1       3.429   0.171   3.403  0.00  0.00    +0.081 A 
ATOM      3  C   UNL     1       3.521   1.506   3.060  0.00  0.00    +0.197 A 
ATOM      4  C   UNL     1       2.800   1.969   1.930  0.00  0.00    +0.066 A 
ATOM      5  C   UNL     1       2.057   1.108   1.216  0.00  0.00    +0.152 A 
ATOM      6  O   UNL     1       1.969  -0.190   1.558  0.00  0.00    -0.423 OA
ATOM      7  C   UNL     1       2.630  -0.665   2.617  0.00  0.00    +0.344 A 
ATOM      8  O   UNL     1       2.534  -1.847   2.903  0.00  0.00    -0.245 OA
ATOM      9  C   UNL     1       1.286   1.562  -0.002  0.00  0.00    +0.147 C 
ATOM     10  C   UNL     1       1.143   3.083   0.008  0.00  0.00    +0.154 C 
ATOM     11  O   UNL     1       2.435   3.655   0.246  0.00  0.00    -0.369 OA
ATOM     12  C   UNL     1       2.903   3.429   1.574  0.00  0.00    +0.203 C 
ATOM     13  C   UNL     1       0.609   3.560  -1.345  0.00  0.00    +0.041 C 
ATOM     14  C   UNL     1       2.036   1.130  -1.264  0.00  0.00    +0.052 C 
ATOM     15  O   UNL     1       4.282   2.356   3.789  0.00  0.00    -0.287 OA
ENDROOT
BRANCH   9  16
ATOM     16  O   UNL     1      -0.011   0.963   0.007  0.00  0.00    -0.379 OA
ATOM     17  H   UNL     1      -0.721   1.176  -0.805  0.00  0.00    +0.211 HD
ENDBRANCH   9  16
TORSDOF 1
