REMARK  Name = ZINC19724358
REMARK  8 active torsions:
REMARK  status: ('A' for Active; 'I' for Inactive)
REMARK    1  A    between atoms: C_1  and  C_2
REMARK    2  A    between atoms: C_2  and  C_3
REMARK    3  A    between atoms: C_6  and  N_9
REMARK    4  A    between atoms: C_11  and  C_20
REMARK    5  A    between atoms: N_13  and  C_17
REMARK    6  A    between atoms: C_17  and  C_18
REMARK    7  A    between atoms: C_17  and  C_19
REMARK    8  A    between atoms: C_20  and  N_21
REMARK                            x       y       z     vdW  Elec       q    Type
REMARK                         _______ _______ _______ _____ _____    ______ ____
ROOT
ATOM      1  N   UNL     1      -0.209   1.700   2.128  0.00  0.00    -0.192 N 
ATOM      2  C   UNL     1      -0.933   1.286   0.913  0.00  0.00    +0.151 C 
ATOM      3  C   UNL     1       0.017   1.304  -0.283  0.00  0.00    +0.083 C 
ATOM      4  N   UNL     1       1.183   2.159  -0.019  0.00  0.00    -0.158 NA
ATOM      5  S   UNL     1       0.977   2.724   1.539  0.00  0.00    +0.115 S 
ATOM      6  O   UNL     1       2.173   2.443   2.254  0.00  0.00    -0.138 OA
ATOM      7  O   UNL     1       0.410   4.023   1.449  0.00  0.00    -0.138 OA
ENDROOT
BRANCH   1  11
ATOM      8  C   UNL     1      -0.939   0.593   6.075  0.00  0.00    -0.048 A 
ATOM      9  C   UNL     1      -0.300   1.788   5.801  0.00  0.00    +0.005 A 
ATOM     10  C   UNL     1      -0.056   2.158   4.493  0.00  0.00    +0.025 A 
ATOM     11  C   UNL     1      -0.453   1.329   3.452  0.00  0.00    +0.052 A 
ATOM     12  C   UNL     1      -1.100   0.131   3.731  0.00  0.00    +0.025 A 
ATOM     13  C   UNL     1      -1.336  -0.236   5.041  0.00  0.00    +0.005 A 
BRANCH   8  15
ATOM     14  C   UNL     1      -2.570   0.727   7.938  0.00  0.00    +0.009 C 
ATOM     15  C   UNL     1      -1.204   0.192   7.503  0.00  0.00    +0.032 C 
ENDBRANCH   8  15
ENDBRANCH   1  11
BRANCH   4  16
ATOM     16  C   UNL     1       2.292   2.454  -0.931  0.00  0.00    +0.075 C 
ATOM     17  C   UNL     1       2.284   3.944  -1.278  0.00  0.00    +0.026 C 
ATOM     18  C   UNL     1       3.617   2.094  -0.255  0.00  0.00    +0.026 C 
ENDBRANCH   4  16
BRANCH   3  19
ATOM     19  C   UNL     1      -0.731   1.838  -1.507  0.00  0.00    -0.064 C 
BRANCH  19  20
ATOM     20  N   UNL     1       0.184   1.888  -2.655  0.00  0.00    +0.379 N 
ATOM     21  H   UNL     1      -0.353   2.272  -3.535  0.00  0.00    -0.090 HD
ATOM     22  H   UNL     1       0.561   0.877  -2.868  0.00  0.00    -0.090 HD
ATOM     23  H   UNL     1       1.029   2.553  -2.423  0.00  0.00    -0.090 HD
ENDBRANCH  19  20
ENDBRANCH   3  19
TORSDOF 5
