REMARK  Name = ZINC20690811
REMARK  9 active torsions:
REMARK  status: ('A' for Active; 'I' for Inactive)
REMARK    1  A    between atoms: C_1  and  C_2
REMARK    2  A    between atoms: C_2  and  C_3
REMARK    3  A    between atoms: C_3  and  C_5
REMARK    4  A    between atoms: C_3  and  O_6
REMARK    5  A    between atoms: O_6  and  C_7
REMARK    6  A    between atoms: C_20  and  C_23
REMARK    7  A    between atoms: C_26  and  O_30
REMARK    8  A    between atoms: C_27  and  O_29
REMARK    9  A    between atoms: O_30  and  C_31
REMARK                            x       y       z     vdW  Elec       q    Type
REMARK                         _______ _______ _______ _____ _____    ______ ____
ROOT
ATOM      1  C   UNL     1       1.075   5.461  -1.002  0.00  0.00    +0.121 A 
ATOM      2  C   UNL     1       1.841   5.505  -2.158  0.00  0.00    +0.047 A 
ATOM      3  C   UNL     1       2.337   4.334  -2.693  0.00  0.00    +0.027 A 
ATOM      4  C   UNL     1       2.069   3.118  -2.077  0.00  0.00    +0.032 A 
ATOM      5  C   UNL     1       1.306   3.067  -0.921  0.00  0.00    -0.016 A 
ATOM      6  C   UNL     1       0.810   4.249  -0.390  0.00  0.00    +0.051 A 
ATOM      7  C   UNL     1       0.998   1.781  -0.222  0.00  0.00    +0.049 C 
ATOM      8  C   UNL     1      -0.428   1.348  -0.465  0.00  0.00    -0.023 C 
ATOM      9  C   UNL     1      -0.495   0.042  -0.562  0.00  0.00    -0.030 C 
ATOM     10  C   UNL     1       0.880  -0.574  -0.392  0.00  0.00    +0.033 C 
ATOM     11  C   UNL     1       1.845   0.600  -0.734  0.00  0.00    +0.029 C 
ATOM     12  C   UNL     1       1.961   0.663  -2.260  0.00  0.00    +0.105 C 
ATOM     13  N   UNL     1       2.579   1.938  -2.637  0.00  0.00    -0.336 N 
ATOM     14  H   UNL     1       3.423   1.953  -3.343  0.00  0.00    +0.147 HD
ENDROOT
BRANCH  12  15
ATOM     15  C   UNL     1       2.816  -0.477  -2.748  0.00  0.00    -0.023 A 
ATOM     16  C   UNL     1       4.194  -0.387  -2.675  0.00  0.00    +0.009 A 
ATOM     17  C   UNL     1       4.983  -1.430  -3.122  0.00  0.00    +0.050 A 
ATOM     18  C   UNL     1       4.394  -2.570  -3.645  0.00  0.00    +0.161 A 
ATOM     19  C   UNL     1       3.007  -2.661  -3.719  0.00  0.00    +0.159 A 
ATOM     20  C   UNL     1       2.222  -1.614  -3.264  0.00  0.00    +0.054 A 
BRANCH  19  21
ATOM     21  O   UNL     1       2.424  -3.777  -4.231  0.00  0.00    -0.503 OA
ATOM     22  H   UNL     1       1.328  -3.848  -4.289  0.00  0.00    +0.292 HD
ENDBRANCH  19  21
BRANCH  18  23
ATOM     23  O   UNL     1       5.169  -3.596  -4.086  0.00  0.00    -0.491 OA
ATOM     24  C   UNL     1       6.584  -3.433  -3.980  0.00  0.00    +0.277 C 
ENDBRANCH  18  23
ENDBRANCH  12  15
BRANCH   1  25
ATOM     25  O   UNL     1       0.582   6.612  -0.471  0.00  0.00    -0.489 OA
BRANCH  25  26
ATOM     26  C   UNL     1       0.791   7.813  -1.217  0.00  0.00    +0.170 C 
ATOM     27  C   UNL     1       2.170   8.387  -0.883  0.00  0.00    +0.052 C 
BRANCH  26  29
ATOM     28  C   UNL     1      -1.655   8.312  -1.301  0.00  0.00    +0.007 C 
ATOM     29  C   UNL     1      -0.288   8.834  -0.853  0.00  0.00    +0.041 C 
ENDBRANCH  26  29
ENDBRANCH  25  26
ENDBRANCH   1  25
TORSDOF 6
