REMARK  Name = ZINC38628863
REMARK  7 active torsions:
REMARK  status: ('A' for Active; 'I' for Inactive)
REMARK    1  A    between atoms: C_4  and  C_7
REMARK    2  A    between atoms: C_7  and  N_8
REMARK    3  A    between atoms: C_9  and  C_11
REMARK    4  A    between atoms: C_11  and  S_12
REMARK    5  A    between atoms: S_12  and  C_13
REMARK    6  A    between atoms: C_17  and  C_25
REMARK    7  A    between atoms: N_18  and  C_19
REMARK                            x       y       z     vdW  Elec       q    Type
REMARK                         _______ _______ _______ _____ _____    ______ ____
ROOT
ATOM      1  C   UNL     1       7.385  -2.681   4.473  0.00  0.00    +0.241 C 
ATOM      2  N   UNL     1       6.330  -3.410   5.197  0.00  0.00    -0.237 N 
ATOM      3  N   UNL     1       6.342  -2.927   6.511  0.00  0.00    -0.169 NA
ATOM      4  C   UNL     1       7.259  -2.010   6.671  0.00  0.00    +0.151 C 
ATOM      5  N   UNL     1       7.964  -1.779   5.482  0.00  0.00    -0.254 N 
ATOM      6  H   UNL     1       5.742  -4.091   4.834  0.00  0.00    +0.171 HD
ENDROOT
BRANCH   4   7
ATOM      7  C   UNL     1       7.508  -1.342   7.880  0.00  0.00    +0.022 C 
ATOM      8  C   UNL     1       6.919  -1.594   9.119  0.00  0.00    +0.006 A 
ATOM      9  C   UNL     1       5.950  -2.529   9.542  0.00  0.00    +0.010 A 
ATOM     10  C   UNL     1       5.554  -2.548  10.840  0.00  0.00    +0.001 A 
ATOM     11  C   UNL     1       6.082  -1.660  11.779  0.00  0.00    +0.002 A 
ATOM     12  C   UNL     1       7.015  -0.735  11.443  0.00  0.00    +0.026 A 
ATOM     13  C   UNL     1       7.479  -0.655  10.105  0.00  0.00    +0.043 A 
ATOM     14  N   UNL     1       8.363   0.140   9.534  0.00  0.00    -0.380 N 
ATOM     15  C   UNL     1       8.477  -0.204   8.114  0.00  0.00    +0.152 C 
ATOM     16  H   UNL     1       8.863   0.839   9.985  0.00  0.00    +0.160 HD
ENDBRANCH   4   7
BRANCH   5  17
ATOM     17  C   UNL     1       9.008  -0.871   5.290  0.00  0.00    +0.038 A 
ATOM     18  C   UNL     1      10.326  -1.283   5.445  0.00  0.00    +0.023 A 
ATOM     19  C   UNL     1      11.356  -0.384   5.254  0.00  0.00    +0.002 A 
ATOM     20  C   UNL     1      11.077   0.926   4.909  0.00  0.00    +0.000 A 
ATOM     21  C   UNL     1       9.767   1.340   4.754  0.00  0.00    +0.002 A 
ATOM     22  C   UNL     1       8.732   0.444   4.939  0.00  0.00    +0.023 A 
ENDBRANCH   5  17
BRANCH   1  23
ATOM     23  S   UNL     1       6.673  -1.728   3.104  0.00  0.00    -0.108 S 
BRANCH  23  24
ATOM     24  C   UNL     1       5.440  -0.664   3.904  0.00  0.00    +0.168 C 
BRANCH  24  26
ATOM     25  N   UNL     1       3.807   1.066   3.229  0.00  0.00    -0.311 N 
ATOM     26  C   UNL     1       4.765   0.192   2.864  0.00  0.00    +0.223 C 
ATOM     27  O   UNL     1       5.084   0.094   1.698  0.00  0.00    -0.275 OA
ATOM     28  H   UNL     1       3.551   1.144   4.162  0.00  0.00    +0.149 HD
BRANCH  25  29
ATOM     29  C   UNL     1       3.150   1.898   2.218  0.00  0.00    +0.139 C 
BRANCH  29  33
ATOM     30  C   UNL     1       0.246   4.404   4.099  0.00  0.00    +0.000 A 
ATOM     31  C   UNL     1       1.548   4.845   3.952  0.00  0.00    +0.000 A 
ATOM     32  C   UNL     1       2.488   4.034   3.344  0.00  0.00    +0.005 A 
ATOM     33  C   UNL     1       2.126   2.782   2.882  0.00  0.00    -0.030 A 
ATOM     34  C   UNL     1       0.824   2.341   3.030  0.00  0.00    +0.005 A 
ATOM     35  C   UNL     1      -0.116   3.152   3.638  0.00  0.00    +0.000 A 
ENDBRANCH  29  33
ENDBRANCH  25  29
ENDBRANCH  24  26
ENDBRANCH  23  24
ENDBRANCH   1  23
TORSDOF 7
