REMARK  Name = ZINC58989171
REMARK  10 active torsions:
REMARK  status: ('A' for Active; 'I' for Inactive)
REMARK    1  A    between atoms: C_1  and  C_2
REMARK    2  A    between atoms: C_2  and  O_3
REMARK    3  A    between atoms: O_3  and  C_4
REMARK    4  A    between atoms: C_7  and  C_10
REMARK    5  A    between atoms: N_11  and  N_12
REMARK    6  A    between atoms: C_13  and  C_15
REMARK    7  A    between atoms: C_15  and  S_16
REMARK    8  A    between atoms: S_16  and  C_17
REMARK    9  A    between atoms: C_20  and  C_23
REMARK   10  A    between atoms: N_21  and  N_22
REMARK                            x       y       z     vdW  Elec       q    Type
REMARK                         _______ _______ _______ _____ _____    ______ ____
ROOT
ATOM      1  C   UNL     1      -4.770  -9.996  -0.015  0.00  0.00    +0.174 C 
ENDROOT
BRANCH   1   3
ATOM      2  N   UNL     1      -3.354  -7.967  -0.013  0.00  0.00    -0.206 N 
ATOM      3  C   UNL     1      -4.593  -8.499  -0.009  0.00  0.00    +0.242 C 
ATOM      4  O   UNL     1      -5.565  -7.773  -0.000  0.00  0.00    -0.273 OA
ATOM      5  H   UNL     1      -2.577  -8.548  -0.020  0.00  0.00    +0.177 HD
BRANCH   2   7
ATOM      6  C   UNL     1      -1.997  -6.064  -0.011  0.00  0.00    +0.138 C 
ATOM      7  N   UNL     1      -3.190  -6.576  -0.007  0.00  0.00    -0.188 NA
BRANCH   6  11
ATOM      8  C   UNL     1      -1.498  -1.848   0.006  0.00  0.00    +0.121 A 
ATOM      9  C   UNL     1      -0.384  -2.677  -0.003  0.00  0.00    +0.046 A 
ATOM     10  C   UNL     1      -0.541  -4.046  -0.008  0.00  0.00    +0.013 A 
ATOM     11  C   UNL     1      -1.824  -4.600  -0.004  0.00  0.00    -0.005 A 
ATOM     12  C   UNL     1      -2.942  -3.762   0.005  0.00  0.00    +0.013 A 
ATOM     13  C   UNL     1      -2.775  -2.394   0.016  0.00  0.00    +0.046 A 
BRANCH   8  14
ATOM     14  O   UNL     1      -1.339  -0.499   0.012  0.00  0.00    -0.492 OA
BRANCH  14  16
ATOM     15  C   UNL     1      -0.019   1.526   0.010  0.00  0.00    +0.048 C 
ATOM     16  C   UNL     1       0.002  -0.004   0.002  0.00  0.00    +0.225 C 
ENDBRANCH  14  16
ENDBRANCH   8  14
ENDBRANCH   6  11
ENDBRANCH   2   7
ENDBRANCH   1   3
BRANCH   1  17
ATOM     17  S   UNL     1      -6.539 -10.395  -0.008  0.00  0.00    -0.075 S 
BRANCH  17  18
ATOM     18  C   UNL     1      -6.579 -12.157  -0.017  0.00  0.00    +0.209 A 
ATOM     19  N   UNL     1      -5.538 -12.960  -0.020  0.00  0.00    -0.121 NA
ATOM     20  N   UNL     1      -5.926 -14.185  -0.026  0.00  0.00    -0.127 NA
ATOM     21  C   UNL     1      -7.238 -14.239  -0.026  0.00  0.00    +0.182 A 
ATOM     22  N   UNL     1      -7.696 -12.942  -0.015  0.00  0.00    -0.224 N 
BRANCH  21  23
ATOM     23  C   UNL     1      -8.066 -15.464  -0.033  0.00  0.00    +0.021 A 
ATOM     24  C   UNL     1      -9.423 -15.390  -0.351  0.00  0.00    +0.013 A 
ATOM     25  C   UNL     1     -10.191 -16.536  -0.355  0.00  0.00    +0.016 A 
ATOM     26  C   UNL     1      -9.619 -17.758  -0.043  0.00  0.00    +0.018 A 
ATOM     27  C   UNL     1      -8.273 -17.837   0.274  0.00  0.00    +0.016 A 
ATOM     28  C   UNL     1      -7.494 -16.699   0.275  0.00  0.00    +0.013 A 
ATOM     29 BR   UNL     1     -10.679 -19.323  -0.050  0.00  0.00    -0.050 Br
ENDBRANCH  21  23
BRANCH  22  30
ATOM     30  N   UNL     1      -8.997 -12.526  -0.005  0.00  0.00    -0.295 N 
ATOM     31  H   UNL     1      -9.347 -12.412  -0.945  0.00  0.00    +0.163 HD
ATOM     32  H   UNL     1      -9.577 -13.163   0.521  0.00  0.00    +0.163 HD
ENDBRANCH  22  30
ENDBRANCH  17  18
ENDBRANCH   1  17
TORSDOF 9
