REMARK  Name = ZINC39452466
REMARK  8 active torsions:
REMARK  status: ('A' for Active; 'I' for Inactive)
REMARK    1  A    between atoms: C_1  and  C_2
REMARK    2  A    between atoms: C_2  and  C_3
REMARK    3  A    between atoms: C_2  and  S_4
REMARK    4  A    between atoms: S_4  and  C_7
REMARK    5  A    between atoms: N_19  and  S_22
REMARK    6  A    between atoms: S_22  and  C_23
REMARK    7  A    between atoms: C_27  and  C_30
REMARK    8  A    between atoms: C_30  and  C_31
REMARK                            x       y       z     vdW  Elec       q    Type
REMARK                         _______ _______ _______ _____ _____    ______ ____
ROOT
ATOM      1  C   UNL     1      -2.252  -0.079  -1.422  0.00  0.00    +0.098 A 
ATOM      2  C   UNL     1      -2.756  -0.898  -2.386  0.00  0.00    +0.028 A 
ATOM      3  C   UNL     1      -3.231  -0.395  -3.594  0.00  0.00    +0.004 A 
ATOM      4  C   UNL     1      -3.215   0.937  -3.871  0.00  0.00    +0.028 A 
ATOM      5  C   UNL     1      -2.708   1.840  -2.918  0.00  0.00    +0.074 A 
ATOM      6  C   UNL     1      -2.214   1.307  -1.646  0.00  0.00    +0.026 A 
ATOM      7  C   UNL     1      -1.710   2.200  -0.686  0.00  0.00    +0.027 A 
ATOM      8  C   UNL     1      -1.716   3.551  -0.995  0.00  0.00    +0.068 A 
ATOM      9  C   UNL     1      -2.219   3.999  -2.246  0.00  0.00    +0.100 A 
ATOM     10  N   UNL     1      -2.678   3.151  -3.148  0.00  0.00    -0.245 NA
ATOM     11  C   UNL     1      -2.205   5.447  -2.517  0.00  0.00    +0.082 A 
ATOM     12  C   UNL     1      -1.708   6.320  -1.570  0.00  0.00    +0.122 A 
ATOM     13  N   UNL     1      -1.220   5.854  -0.354  0.00  0.00    -0.245 N 
ATOM     14  C   UNL     1      -1.204   4.547  -0.039  0.00  0.00    +0.271 A 
ATOM     15  O   UNL     1      -0.768   4.187   1.038  0.00  0.00    -0.266 OA
ATOM     16  C   UNL     1      -1.686   7.708  -1.836  0.00  0.00    +0.184 C 
ATOM     17  O   UNL     1      -1.293   8.478  -0.983  0.00  0.00    -0.290 OA
ATOM     18  C   UNL     1      -2.146   8.242  -3.168  0.00  0.00    +0.103 C 
ATOM     19  C   UNL     1      -3.214   7.308  -3.748  0.00  0.00    +0.082 C 
ATOM     20  N   UNL     1      -2.691   5.934  -3.715  0.00  0.00    -0.337 N 
ATOM     21  H   UNL     1      -2.688   5.383  -4.514  0.00  0.00    +0.146 HD
ENDROOT
BRANCH   1  22
ATOM     22  S   UNL     1      -1.660  -0.751   0.095  0.00  0.00    -0.000 S 
ATOM     23  O   UNL     1      -0.365  -0.190   0.260  0.00  0.00    -0.169 OA
ATOM     24  O   UNL     1      -1.828  -2.156  -0.040  0.00  0.00    -0.169 OA
BRANCH  22  26
ATOM     25  C   UNL     1      -4.212  -0.573   1.063  0.00  0.00    +0.032 C 
ATOM     26  C   UNL     1      -2.786  -0.106   1.362  0.00  0.00    +0.130 C 
ATOM     27  C   UNL     1      -2.358  -0.624   2.737  0.00  0.00    +0.032 C 
ENDBRANCH  22  26
ENDBRANCH   1  22
BRANCH  13  28
ATOM     28  S   UNL     1      -0.638   6.948   0.745  0.00  0.00    -0.044 S 
ATOM     29  C   UNL     1      -2.091   7.388   1.738  0.00  0.00    +0.110 C 
ENDBRANCH  13  28
BRANCH  19  30
ATOM     30  C   UNL     1      -4.489   7.397  -2.906  0.00  0.00    +0.057 C 
BRANCH  30  31
ATOM     31  C   UNL     1      -5.574   6.572  -3.550  0.00  0.00    -0.046 A 
ATOM     32  C   UNL     1      -6.419   7.148  -4.480  0.00  0.00    +0.004 A 
ATOM     33  C   UNL     1      -7.415   6.392  -5.071  0.00  0.00    +0.000 A 
ATOM     34  C   UNL     1      -7.565   5.061  -4.731  0.00  0.00    +0.000 A 
ATOM     35  C   UNL     1      -6.720   4.485  -3.801  0.00  0.00    +0.000 A 
ATOM     36  C   UNL     1      -5.721   5.240  -3.213  0.00  0.00    +0.004 A 
ENDBRANCH  30  31
ENDBRANCH  19  30
TORSDOF 5
