REMARK  Name = ZINC57230014
REMARK  5 active torsions:
REMARK  status: ('A' for Active; 'I' for Inactive)
REMARK    1  A    between atoms: C_5  and  C_14
REMARK    2  A    between atoms: C_9  and  N_11
REMARK    3  A    between atoms: N_16  and  C_17
REMARK    4  A    between atoms: C_17  and  C_18
REMARK    5  A    between atoms: C_18  and  N_23
REMARK                            x       y       z     vdW  Elec       q    Type
REMARK                         _______ _______ _______ _____ _____    ______ ____
ROOT
ATOM      1  C   UNL     1       5.950   0.713  -0.152  0.00  0.00    +0.260 C 
ATOM      2  O   UNL     1       6.536   1.777  -0.081  0.00  0.00    -0.269 OA
ATOM      3  N   UNL     1       6.647  -0.440  -0.153  0.00  0.00    -0.311 N 
ATOM      4  H   UNL     1       6.180  -1.289  -0.210  0.00  0.00    +0.149 HD
ENDROOT
BRANCH   1   9
ATOM      5  C   UNL     1      -0.052   1.248  -0.474  0.00  0.00    +0.003 A 
ATOM      6  C   UNL     1       1.098   1.977  -0.383  0.00  0.00    +0.010 A 
ATOM      7  C   UNL     1       2.336   1.323  -0.336  0.00  0.00    +0.003 A 
ATOM      8  C   UNL     1       3.673   1.778  -0.243  0.00  0.00    +0.041 A 
ATOM      9  C   UNL     1       4.482   0.686  -0.236  0.00  0.00    +0.103 A 
ATOM     10  N   UNL     1       3.706  -0.454  -0.321  0.00  0.00    -0.349 N 
ATOM     11  H   UNL     1       4.040  -1.364  -0.334  0.00  0.00    +0.166 HD
ATOM     12  C   UNL     1       2.383  -0.085  -0.383  0.00  0.00    +0.078 A 
ATOM     13  C   UNL     1       1.196  -0.806  -0.476  0.00  0.00    +0.150 A 
ATOM     14  C   UNL     1      -0.008  -0.140  -0.521  0.00  0.00    +0.035 A 
BRANCH  13  15
ATOM     15  N   UNL     1       1.229  -2.285  -0.527  0.00  0.00    +0.058 N 
ATOM     16  O   UNL     1       0.197  -2.910  -0.608  0.00  0.00    -0.126 OA
ATOM     17  O   UNL     1       2.287  -2.868  -0.488  0.00  0.00    -0.126 OA
ENDBRANCH  13  15
ENDBRANCH   1   9
BRANCH   3  18
ATOM     18  C   UNL     1       8.109  -0.413  -0.070  0.00  0.00    +0.092 C 
BRANCH  18  19
ATOM     19  C   UNL     1       8.641  -1.844   0.034  0.00  0.00    -0.050 C 
ATOM     20  C   UNL     1       8.106  -2.515   1.316  0.00  0.00    -0.010 C 
ATOM     21  C   UNL     1       9.290  -3.381   1.813  0.00  0.00    -0.001 C 
ATOM     22  C   UNL     1      10.519  -2.492   1.502  0.00  0.00    -0.001 C 
ATOM     23  C   UNL     1      10.175  -1.829   0.152  0.00  0.00    -0.010 C 
BRANCH  19  24
ATOM     24  N   UNL     1       8.235  -2.618  -1.147  0.00  0.00    +0.386 N 
ATOM     25  C   UNL     1       8.595  -4.023  -0.948  0.00  0.00    -0.067 C 
ATOM     26  C   UNL     1       7.864  -4.899  -1.972  0.00  0.00    +0.050 C 
ATOM     27  S   UNL     1       8.410  -4.406  -3.637  0.00  0.00    -0.164 S 
ATOM     28  C   UNL     1       8.213  -2.597  -3.600  0.00  0.00    +0.050 C 
ATOM     29  C   UNL     1       8.892  -2.065  -2.333  0.00  0.00    -0.067 C 
ATOM     30  H   UNL     1       7.234  -2.547  -1.261  0.00  0.00    -0.081 HD
ENDBRANCH  19  24
ENDBRANCH  18  19
ENDBRANCH   3  18
TORSDOF 5
