REMARK  Name = ZINC33292491
REMARK  9 active torsions:
REMARK  status: ('A' for Active; 'I' for Inactive)
REMARK    1  A    between atoms: C_3  and  S_32
REMARK    2  A    between atoms: C_6  and  C_7
REMARK    3  A    between atoms: C_7  and  C_8
REMARK    4  A    between atoms: C_8  and  N_9
REMARK    5  A    between atoms: C_10  and  C_12
REMARK    6  A    between atoms: C_14  and  C_17
REMARK    7  A    between atoms: C_17  and  N_18
REMARK    8  A    between atoms: C_23  and  C_25
REMARK    9  A    between atoms: S_32  and  N_35
REMARK                            x       y       z     vdW  Elec       q    Type
REMARK                         _______ _______ _______ _____ _____    ______ ____
ROOT
ATOM      1  C   UNL     1      -2.013  -1.840  -3.319  0.00  0.00    +0.313 A 
ATOM      2  N   UNL     1      -1.414  -2.043  -2.163  0.00  0.00    -0.186 NA
ATOM      3  C   UNL     1      -1.717  -0.977  -1.408  0.00  0.00    +0.194 A 
ATOM      4  N   UNL     1      -2.474  -0.193  -2.119  0.00  0.00    -0.059 NA
ATOM      5  O   UNL     1      -2.653  -0.665  -3.221  0.00  0.00    -0.328 OA
ENDROOT
BRANCH   1   7
ATOM      6  N   UNL     1      -2.650  -2.396  -5.621  0.00  0.00    -0.307 N 
ATOM      7  C   UNL     1      -1.985  -2.737  -4.499  0.00  0.00    +0.302 C 
ATOM      8  O   UNL     1      -1.363  -3.780  -4.455  0.00  0.00    -0.265 OA
ATOM      9  H   UNL     1      -3.213  -1.452  -5.661  0.00  0.00    +0.149 HD
BRANCH   6  10
ATOM     10  C   UNL     1      -2.623  -3.282  -6.787  0.00  0.00    +0.109 C 
BRANCH  10  11
ATOM     11  C   UNL     1      -3.450  -2.666  -7.916  0.00  0.00    +0.054 C 
BRANCH  11  17
ATOM     12  C   UNL     1      -2.438  -3.427 -10.075  0.00  0.00    +0.005 A 
ATOM     13  C   UNL     1      -2.409  -4.266 -11.173  0.00  0.00    +0.029 A 
ATOM     14  C   UNL     1      -3.370  -5.250 -11.316  0.00  0.00    +0.105 A 
ATOM     15  C   UNL     1      -4.358  -5.396 -10.360  0.00  0.00    +0.029 A 
ATOM     16  C   UNL     1      -4.384  -4.560  -9.260  0.00  0.00    +0.005 A 
ATOM     17  C   UNL     1      -3.422  -3.577  -9.116  0.00  0.00    -0.046 A 
BRANCH  14  18
ATOM     18  S   UNL     1      -3.337  -6.317 -12.718  0.00  0.00    +0.056 S 
ATOM     19  O   UNL     1      -1.995  -6.328 -13.188  0.00  0.00    -0.153 OA
ATOM     20  O   UNL     1      -4.022  -7.503 -12.342  0.00  0.00    -0.153 OA
BRANCH  18  21
ATOM     21  N   UNL     1      -4.246  -5.599 -13.902  0.00  0.00    -0.204 NA
ATOM     22  H   UNL     1      -4.251  -6.237 -14.798  0.00  0.00    +0.144 HD
ATOM     23  H   UNL     1      -3.816  -4.619 -14.151  0.00  0.00    +0.144 HD
ENDBRANCH  18  21
ENDBRANCH  14  18
ENDBRANCH  11  17
ENDBRANCH  10  11
ENDBRANCH   6  10
ENDBRANCH   1   7
BRANCH   3  24
ATOM     24  C   UNL     1      -1.268  -0.734   0.010  0.00  0.00    +0.227 C 
BRANCH  24  25
ATOM     25  N   UNL     1       0.002  -0.004   0.002  0.00  0.00    -0.221 N 
ATOM     26  C   UNL     1      -0.016   1.342   0.009  0.00  0.00    +0.268 A 
ATOM     27  O   UNL     1      -1.079   1.942   0.018  0.00  0.00    -0.266 OA
ATOM     28  C   UNL     1       1.204   2.054   0.002  0.00  0.00    +0.074 A 
ATOM     29  C   UNL     1       2.362   1.336  -0.013  0.00  0.00    +0.035 A 
ATOM     30  C   UNL     1       2.275  -0.076  -0.021  0.00  0.00    +0.092 A 
ATOM     31  N   UNL     1       1.102  -0.665  -0.013  0.00  0.00    -0.168 NA
BRANCH  30  32
ATOM     32  C   UNL     1       3.513  -0.893  -0.037  0.00  0.00    +0.002 A 
ATOM     33  C   UNL     1       4.760  -0.271  -0.051  0.00  0.00    +0.013 A 
ATOM     34  C   UNL     1       5.909  -1.035  -0.061  0.00  0.00    +0.039 A 
ATOM     35  C   UNL     1       5.824  -2.418  -0.067  0.00  0.00    +0.123 A 
ATOM     36  C   UNL     1       4.586  -3.040  -0.058  0.00  0.00    +0.039 A 
ATOM     37  C   UNL     1       3.432  -2.284  -0.043  0.00  0.00    +0.013 A 
ATOM     38  F   UNL     1       6.951  -3.162  -0.082  0.00  0.00    -0.205 F 
ENDBRANCH  30  32
ENDBRANCH  24  25
ENDBRANCH   3  24
TORSDOF 9
