REMARK  Name = ZINC14832231
REMARK  11 active torsions:
REMARK  status: ('A' for Active; 'I' for Inactive)
REMARK    1  A    between atoms: C_1  and  C_2
REMARK    2  A    between atoms: C_2  and  C_3
REMARK    3  A    between atoms: C_3  and  C_5
REMARK    4  A    between atoms: C_3  and  C_6
REMARK    5  A    between atoms: C_9  and  O_13
REMARK    6  A    between atoms: O_13  and  C_14
REMARK    7  A    between atoms: C_14  and  C_15
REMARK    8  A    between atoms: N_17  and  N_18
REMARK    9  A    between atoms: C_19  and  C_21
REMARK   10  A    between atoms: C_21  and  O_22
REMARK   11  A    between atoms: O_22  and  C_23
REMARK                            x       y       z     vdW  Elec       q    Type
REMARK                         _______ _______ _______ _____ _____    ______ ____
ROOT
ATOM      1  C   UNL     1       5.407  -4.043  -0.074  0.00  0.00    +0.267 C 
ATOM      2  O   UNL     1       4.456  -4.796  -0.069  0.00  0.00    -0.271 OA
ATOM      3  N   UNL     1       5.211  -2.710  -0.065  0.00  0.00    -0.231 N 
ATOM      4  H   UNL     1       5.972  -2.108  -0.069  0.00  0.00    +0.173 HD
ENDROOT
BRANCH   3   5
ATOM      5  N   UNL     1       3.909  -2.193  -0.049  0.00  0.00    -0.231 N 
ATOM      6  C   UNL     1       3.713  -0.860  -0.040  0.00  0.00    +0.267 C 
ATOM      7  O   UNL     1       4.664  -0.107  -0.044  0.00  0.00    -0.271 OA
ATOM      8  H   UNL     1       3.148  -2.795  -0.045  0.00  0.00    +0.173 HD
BRANCH   6   9
ATOM      9  C   UNL     1       2.312  -0.304  -0.023  0.00  0.00    +0.326 C 
BRANCH   9  10
ATOM     10  O   UNL     1       2.366   1.123  -0.015  0.00  0.00    -0.481 OA
BRANCH  10  11
ATOM     11  C   UNL     1       1.179   1.786   0.000  0.00  0.00    +0.140 A 
ATOM     12  C   UNL     1      -0.013   1.076   0.008  0.00  0.00    +0.048 A 
ATOM     13  C   UNL     1      -1.218   1.751   0.017  0.00  0.00    +0.023 A 
ATOM     14  C   UNL     1      -1.238   3.134   0.031  0.00  0.00    +0.043 A 
ATOM     15  C   UNL     1      -0.051   3.845   0.023  0.00  0.00    +0.043 A 
ATOM     16  C   UNL     1       1.157   3.174   0.008  0.00  0.00    +0.084 A 
ATOM     17 CL   UNL     1       2.647   4.066  -0.002  0.00  0.00    -0.080 Cl
ATOM     18 CL   UNL     1      -2.754   3.979   0.049  0.00  0.00    -0.083 Cl
ENDBRANCH  10  11
ENDBRANCH   9  10
ENDBRANCH   6   9
ENDBRANCH   3   5
BRANCH   1  19
ATOM     19  C   UNL     1       6.808  -4.599  -0.091  0.00  0.00    +0.326 C 
BRANCH  19  20
ATOM     20  O   UNL     1       6.754  -6.027  -0.099  0.00  0.00    -0.482 OA
BRANCH  20  24
ATOM     21  C   UNL     1      10.357  -8.037  -0.145  0.00  0.00    -0.043 A 
ATOM     22  C   UNL     1      10.338  -6.654  -0.137  0.00  0.00    +0.007 A 
ATOM     23  C   UNL     1       9.133  -5.979  -0.128  0.00  0.00    +0.047 A 
ATOM     24  C   UNL     1       7.941  -6.689  -0.114  0.00  0.00    +0.135 A 
ATOM     25  C   UNL     1       7.963  -8.076  -0.122  0.00  0.00    +0.060 A 
ATOM     26  C   UNL     1       9.171  -8.747  -0.138  0.00  0.00    +0.022 A 
ATOM     27 BR   UNL     1       6.341  -9.049  -0.113  0.00  0.00    -0.047 Br
BRANCH  21  28
ATOM     28  C   UNL     1      11.674  -8.770  -0.162  0.00  0.00    +0.016 C 
ATOM     29  C   UNL     1      12.458  -8.382  -1.417  0.00  0.00    +0.012 C 
BRANCH  28  31
ATOM     30  C   UNL     1      13.762  -9.233   1.128  0.00  0.00    +0.004 C 
ATOM     31  C   UNL     1      12.482  -8.396   1.081  0.00  0.00    +0.004 C 
ENDBRANCH  28  31
ENDBRANCH  21  28
ENDBRANCH  20  24
ENDBRANCH  19  20
ENDBRANCH   1  19
TORSDOF 9
