REMARK  Name = ZINC11228859
REMARK  12 active torsions:
REMARK  status: ('A' for Active; 'I' for Inactive)
REMARK    1  A    between atoms: C_4  and  C_7
REMARK    2  A    between atoms: C_7  and  O_8
REMARK    3  A    between atoms: O_8  and  C_9
REMARK    4  A    between atoms: C_9  and  C_10
REMARK    5  A    between atoms: C_10  and  C_11
REMARK    6  A    between atoms: C_11  and  N_12
REMARK    7  A    between atoms: C_13  and  C_15
REMARK    8  A    between atoms: C_15  and  S_16
REMARK    9  A    between atoms: S_16  and  C_17
REMARK   10  A    between atoms: C_20  and  C_29
REMARK   11  A    between atoms: N_21  and  C_22
REMARK   12  A    between atoms: C_29  and  N_67
REMARK                            x       y       z     vdW  Elec       q    Type
REMARK                         _______ _______ _______ _____ _____    ______ ____
ROOT
ATOM      1  C   UNL     1       0.187  -7.908   8.136  0.00  0.00    +0.197 A 
ATOM      2  N   UNL     1       0.188  -6.936   9.019  0.00  0.00    -0.122 NA
ATOM      3  N   UNL     1       0.200  -7.426  10.208  0.00  0.00    -0.135 NA
ATOM      4  C   UNL     1       0.217  -8.727  10.157  0.00  0.00    +0.122 A 
ATOM      5  N   UNL     1       0.209  -9.084   8.835  0.00  0.00    -0.276 N 
ENDROOT
BRANCH   5   6
ATOM      6  C   UNL     1       0.223 -10.384   8.306  0.00  0.00    +0.050 A 
ATOM      7  C   UNL     1      -0.850 -11.236   8.530  0.00  0.00    +0.029 A 
ATOM      8  C   UNL     1      -0.838 -12.513   8.005  0.00  0.00    +0.040 A 
ATOM      9  C   UNL     1       0.248 -12.947   7.265  0.00  0.00    +0.124 A 
ATOM     10  C   UNL     1       1.322 -12.101   7.045  0.00  0.00    +0.040 A 
ATOM     11  C   UNL     1       1.311 -10.821   7.564  0.00  0.00    +0.029 A 
ATOM     12  F   UNL     1       0.261 -14.199   6.756  0.00  0.00    -0.205 F 
ENDBRANCH   5   6
BRANCH   1  13
ATOM     13  S   UNL     1       0.168  -7.731   6.383  0.00  0.00    -0.076 S 
BRANCH  13  14
ATOM     14  C   UNL     1       0.142  -5.926   6.250  0.00  0.00    +0.173 C 
BRANCH  14  16
ATOM     15  N   UNL     1       0.102  -4.226   4.453  0.00  0.00    -0.315 N 
ATOM     16  C   UNL     1       0.123  -5.529   4.796  0.00  0.00    +0.223 C 
ATOM     17  O   UNL     1       0.126  -6.383   3.935  0.00  0.00    -0.275 OA
ATOM     18  H   UNL     1       0.099  -3.543   5.142  0.00  0.00    +0.149 HD
BRANCH  15  19
ATOM     19  C   UNL     1       0.083  -3.841   3.040  0.00  0.00    +0.106 C 
BRANCH  19  20
ATOM     20  C   UNL     1       0.061  -2.315   2.928  0.00  0.00    +0.047 C 
BRANCH  20  21
ATOM     21  C   UNL     1       0.042  -1.913   1.452  0.00  0.00    +0.162 C 
BRANCH  21  22
ATOM     22  O   UNL     1       0.021  -0.488   1.347  0.00  0.00    -0.375 OA
BRANCH  22  23
ATOM     23  C   UNL     1       0.002  -0.004   0.002  0.00  0.00    +0.195 C 
BRANCH  23  27
ATOM     24  C   UNL     1      -0.056   4.267   0.025  0.00  0.00    +0.000 A 
ATOM     25  C   UNL     1       1.151   3.592   0.010  0.00  0.00    +0.000 A 
ATOM     26  C   UNL     1       1.169   2.210   0.003  0.00  0.00    +0.006 A 
ATOM     27  C   UNL     1      -0.018   1.503   0.010  0.00  0.00    -0.022 A 
ATOM     28  C   UNL     1      -1.225   2.178   0.020  0.00  0.00    +0.006 A 
ATOM     29  C   UNL     1      -1.244   3.560   0.032  0.00  0.00    +0.000 A 
ENDBRANCH  23  27
ENDBRANCH  22  23
ENDBRANCH  21  22
ENDBRANCH  20  21
ENDBRANCH  19  20
ENDBRANCH  15  19
ENDBRANCH  14  16
ENDBRANCH  13  14
ENDBRANCH   1  13
BRANCH   4  30
ATOM     30  C   UNL     1       0.241  -9.667  11.335  0.00  0.00    -0.001 C 
BRANCH  30  36
ATOM     31  C   UNL     1       2.318 -10.700  10.641  0.00  0.00    -0.078 C 
ATOM     32  C   UNL     1       3.799 -10.853  10.995  0.00  0.00    -0.019 C 
ATOM     33  C   UNL     1       3.927 -11.595  12.328  0.00  0.00    -0.004 C 
ATOM     34  C   UNL     1       3.165 -10.821  13.408  0.00  0.00    -0.019 C 
ATOM     35  C   UNL     1       1.702 -10.669  12.985  0.00  0.00    -0.078 C 
ATOM     36  N   UNL     1       1.647  -9.926  11.707  0.00  0.00    +0.384 N 
ATOM     37  H   UNL     1       2.133  -9.029  11.823  0.00  0.00    -0.081 HD
ENDBRANCH  30  36
ENDBRANCH   4  30
TORSDOF 12
