REMARK  Name = ZINC09370647
REMARK  13 active torsions:
REMARK  status: ('A' for Active; 'I' for Inactive)
REMARK    1  A    between atoms: C_1  and  C_2
REMARK    2  A    between atoms: C_2  and  C_3
REMARK    3  A    between atoms: C_3  and  O_4
REMARK    4  A    between atoms: O_4  and  C_5
REMARK    5  A    between atoms: C_8  and  C_13
REMARK    6  A    between atoms: C_10  and  O_11
REMARK    7  A    between atoms: O_11  and  C_12
REMARK    8  A    between atoms: C_16  and  C_27
REMARK    9  A    between atoms: C_22  and  N_26
REMARK   10  A    between atoms: C_23  and  C_24
REMARK   11  A    between atoms: C_27  and  S_28
REMARK   12  A    between atoms: S_28  and  C_29
REMARK   13  A    between atoms: C_32  and  C_35
REMARK                            x       y       z     vdW  Elec       q    Type
REMARK                         _______ _______ _______ _____ _____    ______ ____
ROOT
ATOM      1  C   UNL     1      -6.403  -4.585   0.038  0.00  0.00    +0.101 C 
ATOM      2  C   UNL     1      -7.179  -4.183   1.265  0.00  0.00    +0.050 A 
ATOM      3  C   UNL     1      -6.974  -4.537   2.591  0.00  0.00    +0.081 A 
ATOM      4  N   UNL     1      -7.894  -3.949   3.318  0.00  0.00    -0.175 NA
ATOM      5  N   UNL     1      -8.718  -3.196   2.466  0.00  0.00    -0.246 N 
ATOM      6  H   UNL     1      -9.479  -2.659   2.736  0.00  0.00    +0.192 HD
ATOM      7  C   UNL     1      -8.265  -3.353   1.212  0.00  0.00    +0.223 A 
ATOM      8  O   UNL     1      -8.730  -2.830   0.051  0.00  0.00    -0.423 OA
ATOM      9  C   UNL     1      -8.270  -3.358  -1.101  0.00  0.00    +0.200 C 
ATOM     10  C   UNL     1      -7.198  -4.179  -1.178  0.00  0.00    +0.098 C 
ENDROOT
BRANCH   1  14
ATOM     11  C   UNL     1      -2.617  -2.596   0.013  0.00  0.00    +0.162 A 
ATOM     12  C   UNL     1      -3.790  -1.859   0.022  0.00  0.00    +0.050 A 
ATOM     13  C   UNL     1      -5.013  -2.505   0.030  0.00  0.00    +0.008 A 
ATOM     14  C   UNL     1      -5.068  -3.886   0.029  0.00  0.00    -0.031 A 
ATOM     15  C   UNL     1      -3.901  -4.628   0.020  0.00  0.00    +0.054 A 
ATOM     16  C   UNL     1      -2.673  -3.987   0.006  0.00  0.00    +0.162 A 
BRANCH  16  17
ATOM     17  O   UNL     1      -1.524  -4.715  -0.009  0.00  0.00    -0.491 OA
ATOM     18  C   UNL     1      -1.658  -6.138  -0.015  0.00  0.00    +0.277 C 
ENDBRANCH  16  17
BRANCH  11  19
ATOM     19  O   UNL     1      -1.414  -1.962   0.005  0.00  0.00    -0.488 OA
BRANCH  19  20
ATOM     20  C   UNL     1      -1.433  -0.534   0.013  0.00  0.00    +0.229 C 
BRANCH  20  22
ATOM     21  C   UNL     1      -0.019   1.526   0.010  0.00  0.00    +0.007 C 
ATOM     22  C   UNL     1       0.002  -0.004   0.002  0.00  0.00    +0.038 C 
ENDBRANCH  20  22
ENDBRANCH  19  20
ENDBRANCH  11  19
ENDBRANCH   1  14
BRANCH   9  23
ATOM     23  N   UNL     1      -8.926  -3.043  -2.265  0.00  0.00    -0.328 N 
ATOM     24  H   UNL     1      -9.698  -2.456  -2.243  0.00  0.00    +0.145 HD
ATOM     25  H   UNL     1      -8.618  -3.408  -3.110  0.00  0.00    +0.145 HD
ENDBRANCH   9  23
BRANCH  10  26
ATOM     26  C   UNL     1      -6.804  -4.683  -2.459  0.00  0.00    +0.101 C 
ATOM     27  N   UNL     1      -6.491  -5.083  -3.475  0.00  0.00    -0.191 NA
ENDBRANCH  10  26
BRANCH   3  28
ATOM     28  C   UNL     1      -5.884  -5.441   3.107  0.00  0.00    +0.132 C 
BRANCH  28  29
ATOM     29  S   UNL     1      -4.420  -4.451   3.516  0.00  0.00    -0.119 S 
BRANCH  29  30
ATOM     30  C   UNL     1      -3.252  -5.636   4.096  0.00  0.00    +0.008 A 
ATOM     31  C   UNL     1      -3.590  -6.984   4.138  0.00  0.00    +0.015 A 
ATOM     32  C   UNL     1      -2.672  -7.910   4.593  0.00  0.00    +0.004 A 
ATOM     33  C   UNL     1      -1.418  -7.498   5.006  0.00  0.00    -0.050 A 
ATOM     34  C   UNL     1      -1.078  -6.157   4.965  0.00  0.00    +0.004 A 
ATOM     35  C   UNL     1      -1.989  -5.227   4.506  0.00  0.00    +0.015 A 
ATOM     36  C   UNL     1      -0.419  -8.511   5.502  0.00  0.00    +0.044 C 
ENDBRANCH  29  30
ENDBRANCH  28  29
ENDBRANCH   3  28
TORSDOF 10
