REMARK  Name = ZINC28056244
REMARK  2 active torsions:
REMARK  status: ('A' for Active; 'I' for Inactive)
REMARK    1  A    between atoms: C_9  and  C_17
REMARK    2  A    between atoms: C_24  and  C_27
REMARK                            x       y       z     vdW  Elec       q    Type
REMARK                         _______ _______ _______ _____ _____    ______ ____
ROOT
ATOM      1  C   UNL     1      -2.140   3.922   5.514  0.00  0.00    +0.001 A 
ATOM      2  C   UNL     1      -3.099   2.947   5.728  0.00  0.00    +0.004 A 
ATOM      3  C   UNL     1      -3.194   1.859   4.879  0.00  0.00    +0.046 A 
ATOM      4  C   UNL     1      -2.327   1.744   3.809  0.00  0.00    +0.131 A 
ATOM      5  C   UNL     1      -1.354   2.730   3.593  0.00  0.00    +0.038 A 
ATOM      6  C   UNL     1      -1.265   3.820   4.450  0.00  0.00    +0.013 A 
ATOM      7  C   UNL     1      -0.437   2.574   2.438  0.00  0.00    +0.050 C 
ATOM      8  C   UNL     1      -0.766   1.707   1.478  0.00  0.00    +0.025 C 
ATOM      9  C   UNL     1       0.113   1.461   0.277  0.00  0.00    +0.174 C 
ATOM     10  N   UNL     1       1.425   2.056   0.485  0.00  0.00    -0.201 N 
ATOM     11  C   UNL     1       1.709   2.937   1.480  0.00  0.00    +0.240 A 
ATOM     12  N   UNL     1       2.962   3.268   1.361  0.00  0.00    -0.092 NA
ATOM     13  N   UNL     1       3.494   2.650   0.362  0.00  0.00    -0.021 NA
ATOM     14  N   UNL     1       2.619   1.893  -0.218  0.00  0.00    -0.042 NA
ATOM     15  N   UNL     1       0.745   3.323   2.397  0.00  0.00    -0.282 N 
ATOM     16  C   UNL     1      -2.070   0.949   1.585  0.00  0.00    +0.234 C 
ATOM     17  O   UNL     1      -2.390   0.693   2.952  0.00  0.00    -0.479 OA
ATOM     18  H   UNL     1       0.877   4.179   3.075  0.00  0.00    +0.155 HD
ENDROOT
BRANCH   9  19
ATOM     19  C   UNL     1      -0.526   2.076  -0.941  0.00  0.00    -0.016 A 
ATOM     20  C   UNL     1      -0.870   1.280  -2.018  0.00  0.00    +0.006 A 
ATOM     21  C   UNL     1      -1.457   1.842  -3.136  0.00  0.00    +0.003 A 
ATOM     22  C   UNL     1      -1.701   3.202  -3.178  0.00  0.00    +0.038 A 
ATOM     23  C   UNL     1      -1.357   4.001  -2.101  0.00  0.00    +0.124 A 
ATOM     24  C   UNL     1      -0.774   3.435  -0.979  0.00  0.00    +0.044 A 
ATOM     25  F   UNL     1      -1.595   5.330  -2.141  0.00  0.00    -0.205 F 
ENDBRANCH   9  19
BRANCH  16  26
ATOM     26  C   UNL     1      -3.172   1.766   0.961  0.00  0.00    -0.002 A 
ATOM     27  C   UNL     1      -3.686   1.407  -0.271  0.00  0.00    +0.007 A 
ATOM     28  C   UNL     1      -4.700   2.152  -0.842  0.00  0.00    +0.002 A 
ATOM     29  C   UNL     1      -5.194   3.264  -0.185  0.00  0.00    +0.020 A 
ATOM     30  C   UNL     1      -4.677   3.627   1.045  0.00  0.00    +0.041 A 
ATOM     31  C   UNL     1      -3.666   2.877   1.619  0.00  0.00    +0.027 A 
ATOM     32 CL   UNL     1      -5.297   5.023   1.870  0.00  0.00    -0.084 Cl
ENDBRANCH  16  26
TORSDOF 2
