REMARK  Name = ZINC36660262
REMARK  13 active torsions:
REMARK  status: ('A' for Active; 'I' for Inactive)
REMARK    1  A    between atoms: C_1  and  C_2
REMARK    2  A    between atoms: C_2  and  O_3
REMARK    3  A    between atoms: O_3  and  C_4
REMARK    4  A    between atoms: C_4  and  C_6
REMARK    5  A    between atoms: C_10  and  N_11
REMARK    6  A    between atoms: C_12  and  C_14
REMARK    7  A    between atoms: N_19  and  S_20
REMARK    8  A    between atoms: S_20  and  C_23
REMARK    9  A    between atoms: C_26  and  C_29
REMARK   10  A    between atoms: C_30  and  C_36
REMARK   11  A    between atoms: C_30  and  C_37
REMARK   12  A    between atoms: C_32  and  C_34
REMARK   13  A    between atoms: C_32  and  C_35
REMARK                            x       y       z     vdW  Elec       q    Type
REMARK                         _______ _______ _______ _____ _____    ______ ____
ROOT
ATOM      1  C   UNL     1       2.121  -2.557  -3.370  0.00  0.00    +0.091 A 
ATOM      2  C   UNL     1       3.443  -3.127  -3.500  0.00  0.00    -0.024 A 
ATOM      3  C   UNL     1       3.576  -4.024  -4.504  0.00  0.00    -0.016 A 
ATOM      4  S   UNL     1       1.969  -4.102  -5.238  0.00  0.00    -0.079 S 
ATOM      5  C   UNL     1       1.156  -2.997  -4.269  0.00  0.00    +0.086 A 
ATOM      6  C   UNL     1       4.822  -4.754  -4.879  0.00  0.00    -0.041 C 
ATOM      7  N   UNL     1       5.887  -4.582  -3.892  0.00  0.00    +0.389 N 
ATOM      8  C   UNL     1       5.485  -4.121  -2.571  0.00  0.00    -0.069 C 
ATOM      9  C   UNL     1       4.660  -2.830  -2.636  0.00  0.00    +0.024 C 
ATOM     10  C   UNL     1       6.756  -3.827  -1.752  0.00  0.00    -0.010 C 
ATOM     11  C   UNL     1       4.689  -5.198  -1.831  0.00  0.00    -0.010 C 
ATOM     12  C   UNL     1       5.312  -4.210  -6.235  0.00  0.00    -0.005 C 
ATOM     13  C   UNL     1       4.504  -6.246  -5.058  0.00  0.00    -0.005 C 
ATOM     14  H   UNL     1       6.380  -5.472  -3.789  0.00  0.00    -0.084 HD
ATOM     15  H   UNL     1       6.576  -3.929  -4.269  0.00  0.00    -0.084 HD
ENDROOT
BRANCH   5  16
ATOM     16  N   UNL     1      -0.172  -2.610  -4.346  0.00  0.00    -0.278 N 
ATOM     17  C   UNL     1      -0.975  -3.142  -5.289  0.00  0.00    +0.236 C 
ATOM     18  O   UNL     1      -0.535  -3.959  -6.070  0.00  0.00    -0.274 OA
ATOM     19  H   UNL     1      -0.524  -1.956  -3.722  0.00  0.00    +0.155 HD
BRANCH  17  20
ATOM     20  C   UNL     1      -2.420  -2.721  -5.373  0.00  0.00    +0.166 C 
ATOM     21  C   UNL     1      -3.282  -3.620  -4.462  0.00  0.00    +0.031 C 
ATOM     22  C   UNL     1      -4.577  -3.818  -5.293  0.00  0.00    +0.019 C 
ATOM     23  C   UNL     1      -4.016  -3.872  -6.736  0.00  0.00    +0.110 C 
ATOM     24  N   UNL     1      -2.911  -2.890  -6.749  0.00  0.00    -0.165 NA
BRANCH  24  25
ATOM     25  S   UNL     1      -2.323  -2.111  -8.086  0.00  0.00    +0.062 S 
ATOM     26  O   UNL     1      -1.040  -1.612  -7.734  0.00  0.00    -0.153 OA
ATOM     27  O   UNL     1      -2.523  -2.986  -9.187  0.00  0.00    -0.153 OA
BRANCH  25  28
ATOM     28  C   UNL     1      -3.350  -0.707  -8.365  0.00  0.00    +0.106 A 
ATOM     29  C   UNL     1      -4.515  -0.838  -9.098  0.00  0.00    +0.029 A 
ATOM     30  C   UNL     1      -5.321   0.264  -9.317  0.00  0.00    +0.005 A 
ATOM     31  C   UNL     1      -4.963   1.496  -8.802  0.00  0.00    -0.050 A 
ATOM     32  C   UNL     1      -3.799   1.626  -8.068  0.00  0.00    +0.005 A 
ATOM     33  C   UNL     1      -2.995   0.524  -7.846  0.00  0.00    +0.029 A 
ATOM     34  C   UNL     1      -5.841   2.696  -9.041  0.00  0.00    +0.044 C 
ENDBRANCH  25  28
ENDBRANCH  24  25
ENDBRANCH  17  20
ENDBRANCH   5  16
BRANCH   1  35
ATOM     35  C   UNL     1       1.800  -1.564  -2.343  0.00  0.00    +0.342 C 
ATOM     36  O   UNL     1       1.399  -1.925  -1.253  0.00  0.00    -0.245 OA
BRANCH  35  37
ATOM     37  O   UNL     1       1.948  -0.249  -2.606  0.00  0.00    -0.461 OA
BRANCH  37  39
ATOM     38  C   UNL     1       1.845   2.098  -2.039  0.00  0.00    +0.048 C 
ATOM     39  C   UNL     1       1.615   0.663  -1.558  0.00  0.00    +0.229 C 
ENDBRANCH  37  39
ENDBRANCH  35  37
ENDBRANCH   1  35
TORSDOF 7
