REMARK  Name = ZINC36590594
REMARK  15 active torsions:
REMARK  status: ('A' for Active; 'I' for Inactive)
REMARK    1  A    between atoms: C_1  and  C_2
REMARK    2  A    between atoms: C_5  and  S_8
REMARK    3  A    between atoms: S_8  and  C_11
REMARK    4  A    between atoms: C_11  and  N_12
REMARK    5  A    between atoms: C_13  and  C_15
REMARK    6  A    between atoms: C_15  and  C_17
REMARK    7  A    between atoms: C_15  and  N_29
REMARK    8  A    between atoms: C_26  and  O_27
REMARK    9  A    between atoms: O_27  and  C_28
REMARK   10  A    between atoms: N_29  and  C_34
REMARK   11  A    between atoms: C_30  and  C_32
REMARK   12  A    between atoms: C_32  and  O_33
REMARK   13  A    between atoms: C_34  and  C_35
REMARK   14  A    between atoms: C_34  and  C_36
REMARK   15  A    between atoms: C_34  and  C_37
REMARK                            x       y       z     vdW  Elec       q    Type
REMARK                         _______ _______ _______ _____ _____    ______ ____
ROOT
ATOM      1  C   UNL     1       2.850  -4.810   3.844  0.00  0.00    +0.197 C 
ENDROOT
BRANCH   1   2
ATOM      2  C   UNL     1       4.224  -4.539   3.288  0.00  0.00    +0.031 A 
ATOM      3  C   UNL     1       4.797  -3.262   3.412  0.00  0.00    -0.009 A 
ATOM      4  C   UNL     1       4.112  -2.215   4.051  0.00  0.00    +0.009 A 
ATOM      5  C   UNL     1       4.697  -0.991   4.154  0.00  0.00    +0.001 A 
ATOM      6  C   UNL     1       5.968  -0.757   3.633  0.00  0.00    +0.001 A 
ATOM      7  C   UNL     1       6.662  -1.747   3.008  0.00  0.00    +0.008 A 
ATOM      8  C   UNL     1       6.090  -3.025   2.883  0.00  0.00    -0.017 A 
ATOM      9  C   UNL     1       6.778  -4.072   2.243  0.00  0.00    +0.012 A 
ATOM     10  C   UNL     1       6.196  -5.296   2.139  0.00  0.00    +0.046 A 
ATOM     11  C   UNL     1       4.922  -5.534   2.665  0.00  0.00    +0.126 A 
BRANCH  11  12
ATOM     12  O   UNL     1       4.369  -6.770   2.550  0.00  0.00    -0.495 OA
ATOM     13  C   UNL     1       5.098  -7.739   1.793  0.00  0.00    +0.277 C 
ENDBRANCH  11  12
ENDBRANCH   1   2
BRANCH   1  15
ATOM     14  N   UNL     1       0.638  -4.043   3.047  0.00  0.00    -0.294 N 
ATOM     15  C   UNL     1       1.822  -4.618   2.759  0.00  0.00    +0.239 C 
ATOM     16  O   UNL     1       2.061  -4.981   1.627  0.00  0.00    -0.273 OA
ATOM     17  H   UNL     1       0.447  -3.753   3.953  0.00  0.00    +0.150 HD
BRANCH  14  18
ATOM     18  C   UNL     1      -0.362  -3.857   1.993  0.00  0.00    +0.278 C 
BRANCH  18  19
ATOM     19  S   UNL     1      -1.525  -5.249   2.009  0.00  0.00    +0.013 S 
ATOM     20  O   UNL     1      -0.816  -6.478   2.078  0.00  0.00    -0.168 OA
ATOM     21  O   UNL     1      -2.538  -5.051   1.032  0.00  0.00    -0.168 OA
BRANCH  19  26
ATOM     22  C   UNL     1      -4.386  -4.823   7.304  0.00  0.00    +0.044 C 
ATOM     23  C   UNL     1      -3.671  -4.929   5.981  0.00  0.00    -0.050 A 
ATOM     24  C   UNL     1      -4.178  -4.285   4.868  0.00  0.00    +0.005 A 
ATOM     25  C   UNL     1      -3.522  -4.383   3.655  0.00  0.00    +0.027 A 
ATOM     26  C   UNL     1      -2.360  -5.123   3.555  0.00  0.00    +0.090 A 
ATOM     27  C   UNL     1      -1.852  -5.767   4.669  0.00  0.00    +0.027 A 
ATOM     28  C   UNL     1      -2.506  -5.666   5.883  0.00  0.00    +0.005 A 
ENDBRANCH  19  26
ENDBRANCH  18  19
ENDBRANCH  14  18
ENDBRANCH   1  15
BRANCH   1  29
ATOM     29  N   UNL     1       2.787  -6.188   4.338  0.00  0.00    -0.279 N 
ATOM     30  C   UNL     1       1.939  -7.069   3.772  0.00  0.00    +0.242 C 
ATOM     31  O   UNL     1       1.355  -7.877   4.463  0.00  0.00    -0.273 OA
BRANCH  29  32
ATOM     32  C   UNL     1       3.647  -6.608   5.448  0.00  0.00    +0.030 C 
ATOM     33  C   UNL     1       4.434  -5.404   5.968  0.00  0.00    +0.031 C 
ATOM     34  C   UNL     1       2.783  -7.177   6.575  0.00  0.00    +0.031 C 
ATOM     35  C   UNL     1       4.621  -7.682   4.960  0.00  0.00    +0.031 C 
ENDBRANCH  29  32
BRANCH  30  36
ATOM     36  C   UNL     1       1.715  -7.049   2.282  0.00  0.00    +0.251 C 
BRANCH  36  37
ATOM     37  O   UNL     1       0.848  -8.124   1.916  0.00  0.00    -0.386 OA
ATOM     38  H   UNL     1       0.659  -8.172   0.969  0.00  0.00    +0.210 HD
ENDBRANCH  36  37
ENDBRANCH  30  36
ENDBRANCH   1  29
TORSDOF 10
