REMARK  Name = ZINC39935903
REMARK  7 active torsions:
REMARK  status: ('A' for Active; 'I' for Inactive)
REMARK    1  A    between atoms: C_1  and  C_2
REMARK    2  A    between atoms: C_2  and  N_3
REMARK    3  A    between atoms: C_7  and  S_31
REMARK    4  A    between atoms: C_11  and  S_12
REMARK    5  A    between atoms: S_12  and  C_13
REMARK    6  A    between atoms: C_15  and  C_25
REMARK    7  A    between atoms: S_31  and  N_34
REMARK                            x       y       z     vdW  Elec       q    Type
REMARK                         _______ _______ _______ _____ _____    ______ ____
ROOT
ATOM      1  S   UNL     1       3.293  -0.199   0.216  0.00  0.00    -0.070 S 
ENDROOT
BRANCH   1   2
ATOM      2  C   UNL     1       4.702  -0.858  -0.717  0.00  0.00    +0.171 C 
ATOM      3  C   UNL     1       5.839  -1.089   0.260  0.00  0.00    -0.009 C 
ATOM      4  C   UNL     1       7.041  -0.422   0.005  0.00  0.00    +0.001 A 
ATOM      5  C   UNL     1       8.150  -0.582   0.862  0.00  0.00    +0.010 A 
ATOM      6  C   UNL     1       9.307   0.079   0.591  0.00  0.00    +0.001 A 
ATOM      7  C   UNL     1       9.422   0.912  -0.519  0.00  0.00    +0.002 A 
ATOM      8  C   UNL     1       8.387   1.106  -1.383  0.00  0.00    +0.024 A 
ATOM      9  C   UNL     1       7.160   0.455  -1.165  0.00  0.00    +0.041 A 
ATOM     10  N   UNL     1       6.145   0.646  -2.014  0.00  0.00    -0.284 N 
ATOM     11  C   UNL     1       4.965   0.073  -1.879  0.00  0.00    +0.235 C 
ATOM     12  O   UNL     1       4.087   0.293  -2.692  0.00  0.00    -0.274 OA
ATOM     13  H   UNL     1       6.284   1.238  -2.770  0.00  0.00    +0.155 HD
BRANCH   3  14
ATOM     14  C   UNL     1       5.690  -1.944   1.382  0.00  0.00    -0.020 A 
ATOM     15  C   UNL     1       5.765  -1.421   2.683  0.00  0.00    +0.008 A 
ATOM     16  C   UNL     1       5.619  -2.260   3.766  0.00  0.00    +0.001 A 
ATOM     17  C   UNL     1       5.398  -3.614   3.575  0.00  0.00    +0.000 A 
ATOM     18  C   UNL     1       5.322  -4.139   2.295  0.00  0.00    +0.001 A 
ATOM     19  C   UNL     1       5.460  -3.317   1.198  0.00  0.00    +0.008 A 
ENDBRANCH   3  14
ENDBRANCH   1   2
BRANCH   1  28
ATOM     20  N   UNL     1       0.692   0.200  -0.687  0.00  0.00    -0.319 N 
ATOM     21  C   UNL     1      -0.037   0.034  -1.853  0.00  0.00    +0.070 A 
ATOM     22  C   UNL     1      -1.356   0.278  -2.205  0.00  0.00    +0.030 A 
ATOM     23  C   UNL     1      -1.789  -0.002  -3.485  0.00  0.00    +0.030 A 
ATOM     24  C   UNL     1      -0.913  -0.527  -4.423  0.00  0.00    +0.107 A 
ATOM     25  C   UNL     1       0.400  -0.775  -4.092  0.00  0.00    +0.058 A 
ATOM     26  C   UNL     1       0.854  -0.496  -2.800  0.00  0.00    +0.092 A 
ATOM     27  N   UNL     1       2.059  -0.628  -2.186  0.00  0.00    -0.222 NA
ATOM     28  C   UNL     1       1.968  -0.214  -0.946  0.00  0.00    +0.171 A 
BRANCH  24  29
ATOM     29  S   UNL     1      -1.485  -0.879  -6.052  0.00  0.00    +0.056 S 
ATOM     30  O   UNL     1      -0.616  -1.870  -6.583  0.00  0.00    -0.153 OA
ATOM     31  O   UNL     1      -2.890  -1.069  -5.957  0.00  0.00    -0.153 OA
BRANCH  29  32
ATOM     32  N   UNL     1      -1.253   0.488  -6.958  0.00  0.00    -0.204 NA
ATOM     33  H   UNL     1      -1.080   0.415  -7.910  0.00  0.00    +0.144 HD
ATOM     34  H   UNL     1      -1.290   1.361  -6.537  0.00  0.00    +0.144 HD
ENDBRANCH  29  32
ENDBRANCH  24  29
BRANCH  20  36
ATOM     35  C   UNL     1       0.365   2.247   0.611  0.00  0.00    +0.027 C 
ATOM     36  C   UNL     1       0.190   0.727   0.584  0.00  0.00    +0.121 C 
ENDBRANCH  20  36
ENDBRANCH   1  28
TORSDOF 6
