REMARK  Name = ZINC05031318
REMARK  1 active torsions:
REMARK  status: ('A' for Active; 'I' for Inactive)
REMARK    1  A    between atoms: C_8  and  C_10
REMARK                            x       y       z     vdW  Elec       q    Type
REMARK                         _______ _______ _______ _____ _____    ______ ____
ROOT
ATOM      1  C   UNL     1       0.715   3.285   0.013  0.00  0.00    +0.031 C 
ATOM      2  C   UNL     1       1.054   1.818   0.002  0.00  0.00    -0.030 C 
ATOM      3  C   UNL     1      -0.013   1.076   0.008  0.00  0.00    -0.027 C 
ATOM      4  C   UNL     1      -1.271   1.902   0.018  0.00  0.00    +0.030 C 
ATOM      5  C   UNL     1      -0.821   3.374   0.033  0.00  0.00    +0.015 C 
ATOM      6  C   UNL     1      -1.567   2.788   1.235  0.00  0.00    +0.113 C 
ENDROOT
BRANCH   6   7
ATOM      7  C   UNL     1      -0.772   2.537   2.490  0.00  0.00    +0.360 C 
ATOM      8  O   UNL     1       0.408   2.796   2.520  0.00  0.00    -0.246 OA
ATOM      9  O   UNL     1      -1.375   2.024   3.575  0.00  0.00    -0.246 OA
ENDBRANCH   6   7
TORSDOF 1
