REMARK  Name = ZINC09138141
REMARK  7 active torsions:
REMARK  status: ('A' for Active; 'I' for Inactive)
REMARK    1  A    between atoms: C_1  and  N_2
REMARK    2  A    between atoms: C_10  and  C_12
REMARK    3  A    between atoms: C_12  and  C_14
REMARK    4  A    between atoms: C_12  and  N_66
REMARK    5  A    between atoms: C_14  and  N_15
REMARK    6  A    between atoms: C_16  and  C_18
REMARK    7  A    between atoms: N_20  and  C_21
REMARK                            x       y       z     vdW  Elec       q    Type
REMARK                         _______ _______ _______ _____ _____    ______ ____
ROOT
ATOM      1  C   UNL     1      -4.537   0.842  -0.893  0.00  0.00    -0.020 C 
ENDROOT
BRANCH   1  11
ATOM      2  C   UNL     1      -9.357   4.061   1.620  0.00  0.00    +0.129 C 
ATOM      3  N   UNL     1      -9.565   2.962   0.667  0.00  0.00    -0.333 N 
ATOM      4  C   UNL     1     -10.435   3.380  -0.434  0.00  0.00    +0.105 C 
ATOM      5  C   UNL     1     -10.593   2.206  -1.407  0.00  0.00    +0.024 C 
ATOM      6  C   UNL     1      -9.241   1.970  -2.085  0.00  0.00    +0.038 C 
ATOM      7  C   UNL     1      -8.149   1.954  -1.046  0.00  0.00    -0.026 A 
ATOM      8  C   UNL     1      -8.347   2.439   0.235  0.00  0.00    +0.033 A 
ATOM      9  C   UNL     1      -7.294   2.407   1.151  0.00  0.00    +0.023 A 
ATOM     10  C   UNL     1      -6.070   1.888   0.788  0.00  0.00    +0.004 A 
ATOM     11  C   UNL     1      -5.876   1.406  -0.493  0.00  0.00    -0.059 A 
ATOM     12  C   UNL     1      -6.913   1.438  -1.405  0.00  0.00    +0.007 A 
ENDBRANCH   1  11
BRANCH   1  18
ATOM     13  C   UNL     1      -5.526  -1.206  -0.061  0.00  0.00    -0.078 C 
ATOM     14  C   UNL     1      -5.207  -2.561   0.574  0.00  0.00    -0.019 C 
ATOM     15  C   UNL     1      -4.604  -2.339   1.963  0.00  0.00    -0.004 C 
ATOM     16  C   UNL     1      -3.352  -1.468   1.834  0.00  0.00    -0.019 C 
ATOM     17  C   UNL     1      -3.724  -0.144   1.163  0.00  0.00    -0.078 C 
ATOM     18  N   UNL     1      -4.276  -0.425  -0.180  0.00  0.00    +0.385 N 
ATOM     19  H   UNL     1      -3.591  -0.974  -0.713  0.00  0.00    -0.081 HD
ENDBRANCH   1  18
BRANCH   1  20
ATOM     20  C   UNL     1      -3.437   1.850  -0.555  0.00  0.00    +0.094 C 
BRANCH  20  21
ATOM     21  N   UNL     1      -2.146   1.338  -1.022  0.00  0.00    -0.309 N 
ATOM     22  C   UNL     1      -1.014   2.015  -0.746  0.00  0.00    +0.299 C 
ATOM     23  O   UNL     1      -1.064   3.047  -0.110  0.00  0.00    -0.265 OA
ATOM     24  H   UNL     1      -2.106   0.513  -1.530  0.00  0.00    +0.149 HD
BRANCH  22  25
ATOM     25  C   UNL     1       0.302   1.494  -1.222  0.00  0.00    +0.303 C 
ATOM     26  O   UNL     1       0.352   0.461  -1.857  0.00  0.00    -0.265 OA
ATOM     27  N   UNL     1       1.434   2.173  -0.950  0.00  0.00    -0.278 N 
ATOM     28  H   UNL     1       1.389   3.029  -0.495  0.00  0.00    +0.155 HD
BRANCH  27  29
ATOM     29  C   UNL     1       2.674   1.645  -1.324  0.00  0.00    +0.038 A 
ATOM     30  C   UNL     1       3.786   1.842  -0.515  0.00  0.00    +0.027 A 
ATOM     31  C   UNL     1       5.010   1.316  -0.880  0.00  0.00    +0.051 A 
ATOM     32  C   UNL     1       5.134   0.599  -2.059  0.00  0.00    +0.166 A 
ATOM     33  C   UNL     1       4.022   0.404  -2.876  0.00  0.00    +0.168 A 
ATOM     34  C   UNL     1       2.795   0.927  -2.506  0.00  0.00    +0.072 A 
ATOM     35  O   UNL     1       4.403  -0.326  -3.965  0.00  0.00    -0.453 OA
ATOM     36  C   UNL     1       5.839  -0.226  -4.012  0.00  0.00    +0.466 C 
ATOM     37  O   UNL     1       6.212  -0.009  -2.638  0.00  0.00    -0.453 OA
ENDBRANCH  27  29
ENDBRANCH  22  25
ENDBRANCH  20  21
ENDBRANCH   1  20
TORSDOF 6
