REMARK  Name = ZINC39710384
REMARK  10 active torsions:
REMARK  status: ('A' for Active; 'I' for Inactive)
REMARK    1  A    between atoms: C_1  and  C_2
REMARK    2  A    between atoms: C_2  and  C_3
REMARK    3  A    between atoms: C_10  and  C_15
REMARK    4  A    between atoms: C_15  and  C_17
REMARK    5  A    between atoms: C_15  and  N_27
REMARK    6  A    between atoms: N_22  and  C_23
REMARK    7  A    between atoms: C_23  and  C_24
REMARK    8  A    between atoms: C_23  and  C_25
REMARK    9  A    between atoms: C_23  and  C_26
REMARK   10  A    between atoms: C_33  and  C_35
REMARK                            x       y       z     vdW  Elec       q    Type
REMARK                         _______ _______ _______ _____ _____    ______ ____
ROOT
ATOM      1  C   UNL     1       5.794  -3.093  -3.090  0.00  0.00    -0.009 C 
ENDROOT
BRANCH   1   9
ATOM      2  C   UNL     1       3.001  -4.355  -8.055  0.00  0.00    -0.047 A 
ATOM      3  C   UNL     1       3.680  -3.352  -8.748  0.00  0.00    +0.005 A 
ATOM      4  C   UNL     1       4.416  -2.398  -8.121  0.00  0.00    +0.024 A 
ATOM      5  C   UNL     1       4.523  -2.385  -6.719  0.00  0.00    +0.040 A 
ATOM      6  N   UNL     1       5.248  -1.444  -6.115  0.00  0.00    -0.285 N 
ATOM      7  C   UNL     1       5.391  -1.374  -4.802  0.00  0.00    +0.223 C 
ATOM      8  O   UNL     1       6.066  -0.491  -4.307  0.00  0.00    -0.275 OA
ATOM      9  C   UNL     1       4.712  -2.396  -3.918  0.00  0.00    +0.088 C 
ATOM     10  C   UNL     1       3.886  -3.469  -4.600  0.00  0.00    -0.006 C 
ATOM     11  C   UNL     1       3.816  -3.432  -5.961  0.00  0.00    -0.007 A 
ATOM     12  C   UNL     1       3.037  -4.427  -6.700  0.00  0.00    +0.013 A 
ATOM     13  H   UNL     1       5.691  -0.778  -6.664  0.00  0.00    +0.155 HD
BRANCH   2  15
ATOM     14  C   UNL     1       0.772  -4.873  -9.012  0.00  0.00    +0.009 C 
ATOM     15  C   UNL     1       2.205  -5.376  -8.827  0.00  0.00    +0.032 C 
ENDBRANCH   2  15
ENDBRANCH   1   9
BRANCH   1  16
ATOM     16  N   UNL     1       6.897  -3.501  -3.970  0.00  0.00    +0.387 N 
ATOM     17  C   UNL     1       7.625  -4.616  -3.353  0.00  0.00    -0.059 C 
ATOM     18  C   UNL     1       8.704  -5.118  -4.319  0.00  0.00    +0.089 C 
ATOM     19  N   UNL     1       9.550  -3.978  -4.705  0.00  0.00    -0.299 N 
ATOM     20  C   UNL     1       8.890  -2.754  -5.183  0.00  0.00    +0.089 C 
ATOM     21  C   UNL     1       7.803  -2.364  -4.175  0.00  0.00    -0.059 C 
ATOM     22  C   UNL     1      10.893  -4.054  -4.623  0.00  0.00    +0.282 C 
ATOM     23  O   UNL     1      11.426  -5.105  -4.317  0.00  0.00    -0.267 OA
ATOM     24  H   UNL     1       6.524  -3.797  -4.859  0.00  0.00    -0.081 HD
BRANCH  22  25
ATOM     25  C   UNL     1      11.713  -2.871  -4.902  0.00  0.00    +0.189 A 
ATOM     26  C   UNL     1      13.077  -2.835  -4.960  0.00  0.00    +0.054 A 
ATOM     27  C   UNL     1      13.434  -1.509  -5.253  0.00  0.00    +0.042 A 
ATOM     28  C   UNL     1      12.287  -0.803  -5.361  0.00  0.00    +0.196 A 
ATOM     29  O   UNL     1      11.252  -1.628  -5.154  0.00  0.00    -0.458 OA
ENDBRANCH  22  25
ENDBRANCH   1  16
BRANCH   1  30
ATOM     30  C   UNL     1       5.199  -4.328  -2.411  0.00  0.00    +0.205 C 
ATOM     31  N   UNL     1       4.580  -5.213  -3.407  0.00  0.00    -0.152 NA
ATOM     32  N   UNL     1       3.378  -5.319  -3.154  0.00  0.00    -0.070 NA
ATOM     33  N   UNL     1       2.993  -4.586  -2.032  0.00  0.00    -0.179 N 
ATOM     34  N   UNL     1       4.089  -3.940  -1.515  0.00  0.00    -0.183 NA
ATOM     35  H   UNL     1       2.093  -4.540  -1.673  0.00  0.00    +0.191 HD
BRANCH  34  36
ATOM     36  C   UNL     1       3.893  -2.484  -1.519  0.00  0.00    +0.035 C 
ATOM     37  C   UNL     1       2.944  -2.100  -2.656  0.00  0.00    +0.029 C 
ATOM     38  C   UNL     1       3.292  -2.047  -0.182  0.00  0.00    +0.029 C 
ATOM     39  C   UNL     1       5.241  -1.789  -1.724  0.00  0.00    +0.029 C 
ENDBRANCH  34  36
ENDBRANCH   1  30
TORSDOF 6
