REMARK  Name = ZINC04888843
REMARK  7 active torsions:
REMARK  status: ('A' for Active; 'I' for Inactive)
REMARK    1  A    between atoms: C_1  and  C_2
REMARK    2  A    between atoms: C_5  and  S_8
REMARK    3  A    between atoms: S_8  and  C_9
REMARK    4  A    between atoms: C_9  and  C_10
REMARK    5  A    between atoms: C_17  and  N_28
REMARK    6  A    between atoms: C_18  and  C_26
REMARK    7  A    between atoms: C_19  and  C_21
REMARK                            x       y       z     vdW  Elec       q    Type
REMARK                         _______ _______ _______ _____ _____    ______ ____
ROOT
ATOM      1  C   UNL     1       0.097  -6.482   1.870  0.00  0.00    +0.054 A 
ATOM      2  C   UNL     1      -0.976  -7.285   1.942  0.00  0.00    +0.050 A 
ATOM      3  C   UNL     1      -0.520  -8.616   2.063  0.00  0.00    +0.245 A 
ATOM      4  N   UNL     1       0.782  -8.598   2.062  0.00  0.00    -0.135 NA
ATOM      5  N   UNL     1       1.200  -7.263   1.936  0.00  0.00    -0.277 N 
ATOM      6  H   UNL     1       2.119  -6.955   1.904  0.00  0.00    +0.189 HD
ATOM      7  O   UNL     1      -1.378  -9.666   2.160  0.00  0.00    -0.421 OA
ATOM      8  C   UNL     1      -2.673  -9.388   2.410  0.00  0.00    +0.201 C 
ATOM      9  C   UNL     1      -3.224  -8.160   2.315  0.00  0.00    +0.099 C 
ATOM     10  C   UNL     1      -2.442  -6.937   1.908  0.00  0.00    +0.108 C 
ENDROOT
BRANCH  10  11
ATOM     11  C   UNL     1      -2.835  -6.525   0.513  0.00  0.00    +0.003 A 
ATOM     12  C   UNL     1      -3.346  -5.345   0.084  0.00  0.00    +0.012 A 
ATOM     13  C   UNL     1      -3.635  -5.188  -1.259  0.00  0.00    +0.008 A 
ATOM     14  C   UNL     1      -3.397  -6.219  -2.107  0.00  0.00    +0.045 A 
ATOM     15  S   UNL     1      -2.741  -7.460  -1.005  0.00  0.00    -0.101 S 
ENDBRANCH  10  11
BRANCH   8  16
ATOM     16  N   UNL     1      -3.488 -10.426   2.787  0.00  0.00    -0.328 N 
ATOM     17  H   UNL     1      -3.127 -11.323   2.865  0.00  0.00    +0.145 HD
ATOM     18  H   UNL     1      -4.426 -10.263   2.975  0.00  0.00    +0.145 HD
ENDBRANCH   8  16
BRANCH   9  19
ATOM     19  C   UNL     1      -4.616  -8.011   2.616  0.00  0.00    +0.101 C 
ATOM     20  N   UNL     1      -5.721  -7.893   2.854  0.00  0.00    -0.191 NA
ENDBRANCH   9  19
BRANCH   1  21
ATOM     21  C   UNL     1       0.077  -4.981   1.735  0.00  0.00    +0.129 C 
BRANCH  21  22
ATOM     22  S   UNL     1       0.062  -4.533  -0.023  0.00  0.00    -0.119 S 
BRANCH  22  27
ATOM     23  C   UNL     1      -0.018   1.503   0.010  0.00  0.00    +0.044 C 
ATOM     24  C   UNL     1       0.002  -0.004   0.002  0.00  0.00    -0.050 A 
ATOM     25  C   UNL     1       0.006  -0.687  -1.200  0.00  0.00    +0.004 A 
ATOM     26  C   UNL     1       0.024  -2.068  -1.212  0.00  0.00    +0.015 A 
ATOM     27  C   UNL     1       0.039  -2.771  -0.013  0.00  0.00    +0.008 A 
ATOM     28  C   UNL     1       0.036  -2.081   1.193  0.00  0.00    +0.015 A 
ATOM     29  C   UNL     1       0.023  -0.700   1.197  0.00  0.00    +0.004 A 
ENDBRANCH  22  27
ENDBRANCH  21  22
ENDBRANCH   1  21
TORSDOF 6
