REMARK  Name = ZINC35576914
REMARK  6 active torsions:
REMARK  status: ('A' for Active; 'I' for Inactive)
REMARK    1  A    between atoms: C_1  and  N_2
REMARK    2  A    between atoms: C_3  and  N_27
REMARK    3  A    between atoms: C_5  and  C_20
REMARK    4  A    between atoms: N_11  and  C_12
REMARK    5  A    between atoms: C_12  and  C_13
REMARK    6  A    between atoms: C_13  and  C_14
REMARK                            x       y       z     vdW  Elec       q    Type
REMARK                         _______ _______ _______ _____ _____    ______ ____
ROOT
ATOM      1  C   UNL     1      -1.106   1.269  -0.017  0.00  0.00    +0.174 C 
ATOM      2  N   UNL     1      -0.610  -0.110  -0.013  0.00  0.00    -0.251 N 
ATOM      3  C   UNL     1      -0.283  -0.816  -1.109  0.00  0.00    +0.126 A 
ATOM      4  C   UNL     1       0.142  -2.070  -0.688  0.00  0.00    +0.086 A 
ATOM      5  C   UNL     1       0.608  -3.246  -1.319  0.00  0.00    +0.090 A 
ATOM      6  N   UNL     1       0.931  -4.282  -0.556  0.00  0.00    -0.214 NA
ATOM      7  C   UNL     1       0.830  -4.244   0.769  0.00  0.00    +0.218 A 
ATOM      8  N   UNL     1       0.406  -3.191   1.438  0.00  0.00    -0.193 NA
ATOM      9  C   UNL     1       0.045  -2.070   0.783  0.00  0.00    +0.188 A 
ATOM     10  N   UNL     1      -0.400  -0.884   1.134  0.00  0.00    -0.149 NA
ATOM     11  N   UNL     1       1.189  -5.372   1.485  0.00  0.00    -0.313 N 
ATOM     12  H   UNL     1       1.505  -6.162   1.019  0.00  0.00    +0.149 HD
ENDROOT
BRANCH   5  13
ATOM     13  C   UNL     1       0.731  -3.319  -2.792  0.00  0.00    +0.020 A 
ATOM     14  C   UNL     1       1.518  -2.392  -3.476  0.00  0.00    +0.011 A 
ATOM     15  C   UNL     1       1.628  -2.466  -4.849  0.00  0.00    +0.001 A 
ATOM     16  C   UNL     1       0.961  -3.457  -5.549  0.00  0.00    +0.001 A 
ATOM     17  C   UNL     1       0.179  -4.379  -4.878  0.00  0.00    +0.020 A 
ATOM     18  C   UNL     1       0.065  -4.320  -3.502  0.00  0.00    +0.050 A 
ATOM     19 CL   UNL     1      -0.911  -5.483  -2.659  0.00  0.00    -0.083 Cl
ENDBRANCH   5  13
BRANCH   3  20
ATOM     20  N   UNL     1      -0.356  -0.374  -2.417  0.00  0.00    -0.343 N 
ATOM     21  H   UNL     1      -0.552   0.557  -2.604  0.00  0.00    +0.144 HD
ATOM     22  H   UNL     1      -0.210  -0.995  -3.148  0.00  0.00    +0.144 HD
ENDBRANCH   3  20
BRANCH  11  23
ATOM     23  C   UNL     1       1.093  -5.373   2.947  0.00  0.00    +0.110 C 
BRANCH  23  24
ATOM     24  C   UNL     1       1.547  -6.731   3.487  0.00  0.00    +0.074 C 
BRANCH  24  25
ATOM     25  C   UNL     1       1.448  -6.732   4.991  0.00  0.00    +0.043 A 
ATOM     26  C   UNL     1       0.717  -7.718   5.627  0.00  0.00    +0.023 A 
ATOM     27  C   UNL     1       0.632  -7.710   7.010  0.00  0.00    +0.003 A 
ATOM     28  C   UNL     1       1.289  -6.706   7.706  0.00  0.00    +0.020 A 
ATOM     29  C   UNL     1       2.002  -5.754   7.002  0.00  0.00    +0.111 A 
ATOM     30  N   UNL     1       2.065  -5.796   5.685  0.00  0.00    -0.260 NA
ENDBRANCH  24  25
ENDBRANCH  23  24
ENDBRANCH  11  23
TORSDOF 5
