REMARK  Name = ZINC02136033
REMARK  7 active torsions:
REMARK  status: ('A' for Active; 'I' for Inactive)
REMARK    1  A    between atoms: C_1  and  C_2
REMARK    2  A    between atoms: C_2  and  C_3
REMARK    3  A    between atoms: C_17  and  C_19
REMARK    4  A    between atoms: C_19  and  C_20
REMARK    5  A    between atoms: C_20  and  S_21
REMARK    6  A    between atoms: S_21  and  C_22
REMARK    7  A    between atoms: N_25  and  C_28
REMARK                            x       y       z     vdW  Elec       q    Type
REMARK                         _______ _______ _______ _____ _____    ______ ____
ROOT
ATOM      1  C   UNL     1      -0.047   3.843   0.021  0.00  0.00    -0.026 A 
ATOM      2  C   UNL     1       1.155   3.166   0.007  0.00  0.00    +0.005 A 
ATOM      3  C   UNL     1       1.177   1.784   0.000  0.00  0.00    +0.001 A 
ATOM      4  C   UNL     1      -0.013   1.076   0.008  0.00  0.00    +0.004 A 
ATOM      5  C   UNL     1      -1.214   1.748   0.017  0.00  0.00    -0.027 A 
ATOM      6  C   UNL     1      -1.248   3.139   0.029  0.00  0.00    +0.039 A 
ATOM      7  N   UNL     1      -2.571   3.589   0.042  0.00  0.00    -0.286 N 
ATOM      8  C   UNL     1      -3.453   2.572   0.047  0.00  0.00    +0.211 C 
ATOM      9  O   UNL     1      -4.663   2.663   0.058  0.00  0.00    -0.277 OA
ATOM     10  C   UNL     1      -2.648   1.302   0.037  0.00  0.00    +0.050 C 
ATOM     11  C   UNL     1      -2.957   0.434   1.263  0.00  0.00    +0.088 C 
ATOM     12  C   UNL     1      -3.980  -0.618   0.750  0.00  0.00    +0.073 C 
ATOM     13  C   UNL     1      -4.196  -0.269  -0.737  0.00  0.00    -0.057 C 
ATOM     14  C   UNL     1      -3.221  -1.922   0.853  0.00  0.00    +0.224 C 
ATOM     15  O   UNL     1      -3.654  -3.010   0.541  0.00  0.00    -0.275 OA
ATOM     16  N   UNL     1      -1.998  -1.687   1.343  0.00  0.00    -0.239 N 
ATOM     17  C   UNL     1      -1.739  -0.389   1.621  0.00  0.00    +0.225 C 
ATOM     18  O   UNL     1      -0.706   0.051   2.078  0.00  0.00    -0.275 OA
ATOM     19  H   UNL     1      -2.824   4.526   0.046  0.00  0.00    +0.155 HD
ATOM     20  N   UNL     1      -2.987   0.472  -1.106  0.00  0.00    +0.394 N 
ATOM     21  H   UNL     1      -2.221  -0.179  -1.312  0.00  0.00    -0.083 HD
ATOM     22  H   UNL     1      -3.168   1.058  -1.929  0.00  0.00    -0.083 HD
ENDROOT
BRANCH  16  23
ATOM     23  C   UNL     1      -1.017  -2.752   1.567  0.00  0.00    +0.084 C 
ATOM     24  C   UNL     1      -0.742  -3.503   0.248  0.00  0.00    +0.023 C 
ATOM     25  C   UNL     1      -0.570  -4.981   0.682  0.00  0.00    +0.002 C 
ATOM     26  C   UNL     1      -1.629  -5.134   1.802  0.00  0.00    +0.002 C 
ATOM     27  C   UNL     1      -1.581  -3.788   2.555  0.00  0.00    +0.023 C 
ENDBRANCH  16  23
BRANCH   1  29
ATOM     28  C   UNL     1      -0.177   5.852   1.469  0.00  0.00    +0.009 C 
ATOM     29  C   UNL     1      -0.060   5.350   0.029  0.00  0.00    +0.033 C 
ENDBRANCH   1  29
BRANCH  13  30
ATOM     30  C   UNL     1      -4.343  -1.546  -1.567  0.00  0.00    -0.004 C 
BRANCH  30  31
ATOM     31  C   UNL     1      -4.680  -1.177  -3.014  0.00  0.00    +0.067 C 
BRANCH  31  32
ATOM     32  S   UNL     1      -4.855  -2.691  -3.998  0.00  0.00    -0.164 S 
ATOM     33  C   UNL     1      -5.248  -2.088  -5.663  0.00  0.00    +0.084 C 
ENDBRANCH  31  32
ENDBRANCH  30  31
ENDBRANCH  13  30
TORSDOF 5
