REMARK  Name = ZINC02505834
REMARK  9 active torsions:
REMARK  status: ('A' for Active; 'I' for Inactive)
REMARK    1  A    between atoms: C_1  and  C_2
REMARK    2  A    between atoms: C_2  and  O_3
REMARK    3  A    between atoms: O_3  and  C_4
REMARK    4  A    between atoms: C_6  and  C_11
REMARK    5  A    between atoms: C_9  and  O_10
REMARK    6  A    between atoms: C_13  and  C_25
REMARK    7  A    between atoms: C_15  and  C_20
REMARK    8  A    between atoms: C_15  and  O_24
REMARK    9  A    between atoms: C_25  and  C_27
REMARK                            x       y       z     vdW  Elec       q    Type
REMARK                         _______ _______ _______ _____ _____    ______ ____
ROOT
ATOM      1  C   UNL     1       2.094   1.625   1.353  0.00  0.00    +0.120 C 
ATOM      2  C   UNL     1       1.219   2.370   0.339  0.00  0.00    +0.144 C 
ATOM      3  C   UNL     1      -0.122   1.637   0.220  0.00  0.00    +0.243 C 
ATOM      4  N   UNL     1       0.125   0.237  -0.131  0.00  0.00    -0.264 N 
ATOM      5  C   UNL     1       1.253  -0.386   0.241  0.00  0.00    +0.302 C 
ATOM      6  O   UNL     1       1.405  -1.552  -0.067  0.00  0.00    -0.253 OA
ATOM      7  N   UNL     1       2.221   0.226   0.940  0.00  0.00    -0.292 N 
ATOM      8  H   UNL     1      -0.540  -0.249  -0.642  0.00  0.00    +0.153 HD
ATOM      9  H   UNL     1       3.021  -0.268   1.177  0.00  0.00    +0.151 HD
ENDROOT
BRANCH   1  12
ATOM     10  C   UNL     1       4.999   3.792   2.418  0.00  0.00    +0.162 A 
ATOM     11  C   UNL     1       3.744   3.206   2.370  0.00  0.00    +0.055 A 
ATOM     12  C   UNL     1       3.459   2.261   1.403  0.00  0.00    -0.023 A 
ATOM     13  C   UNL     1       4.425   1.895   0.484  0.00  0.00    +0.009 A 
ATOM     14  C   UNL     1       5.677   2.480   0.522  0.00  0.00    +0.049 A 
ATOM     15  C   UNL     1       5.969   3.427   1.490  0.00  0.00    +0.158 A 
BRANCH  15  16
ATOM     16  O   UNL     1       7.202   4.000   1.532  0.00  0.00    -0.503 OA
ATOM     17  H   UNL     1       7.837   3.527   2.086  0.00  0.00    +0.292 HD
ENDBRANCH  15  16
BRANCH  10  18
ATOM     18  O   UNL     1       5.281   4.722   3.369  0.00  0.00    -0.489 OA
BRANCH  18  20
ATOM     19  C   UNL     1       4.737   6.104   5.276  0.00  0.00    +0.048 C 
ATOM     20  C   UNL     1       4.237   5.048   4.288  0.00  0.00    +0.226 C 
ENDBRANCH  18  20
ENDBRANCH  10  18
ENDBRANCH   1  12
BRANCH   3  21
ATOM     21  C   UNL     1      -0.969   2.295  -0.871  0.00  0.00    +0.436 C 
ATOM     22  F   UNL     1      -2.239   1.708  -0.892  0.00  0.00    -0.166 F 
ATOM     23  F   UNL     1      -1.092   3.663  -0.603  0.00  0.00    -0.166 F 
ATOM     24  F   UNL     1      -0.351   2.116  -2.113  0.00  0.00    -0.166 F 
ENDBRANCH   3  21
BRANCH   3  25
ATOM     25  O   UNL     1      -0.814   1.701   1.469  0.00  0.00    -0.364 OA
ATOM     26  H   UNL     1      -1.671   1.252   1.467  0.00  0.00    +0.212 HD
ENDBRANCH   3  25
BRANCH   2  27
ATOM     27  C   UNL     1       1.905   2.391  -1.002  0.00  0.00    +0.173 C 
ATOM     28  O   UNL     1       2.103   1.354  -1.599  0.00  0.00    -0.292 OA
BRANCH  27  29
ATOM     29  C   UNL     1       2.334   3.670  -1.588  0.00  0.00    +0.018 A 
ATOM     30  C   UNL     1       2.002   4.877  -0.963  0.00  0.00    +0.013 A 
ATOM     31  C   UNL     1       2.412   6.071  -1.515  0.00  0.00    +0.020 A 
ATOM     32  C   UNL     1       3.143   6.079  -2.692  0.00  0.00    +0.041 A 
ATOM     33  C   UNL     1       3.472   4.888  -3.320  0.00  0.00    +0.020 A 
ATOM     34  C   UNL     1       3.073   3.686  -2.776  0.00  0.00    +0.013 A 
ATOM     35 CL   UNL     1       3.649   7.589  -3.384  0.00  0.00    -0.084 Cl
ENDBRANCH  27  29
ENDBRANCH   2  27
TORSDOF 8
