REMARK  Name = ZINC62119172
REMARK  2 active torsions:
REMARK  status: ('A' for Active; 'I' for Inactive)
REMARK    1  A    between atoms: C_2  and  C_3
REMARK    2  A    between atoms: C_8  and  C_11
REMARK                            x       y       z     vdW  Elec       q    Type
REMARK                         _______ _______ _______ _____ _____    ______ ____
ROOT
ATOM      1  C   UNL     1       1.286  -0.722  -0.014  0.00  0.00    +0.239 C 
ATOM      2  O   UNL     1       2.331  -0.100  -0.021  0.00  0.00    -0.271 OA
ATOM      3  N   UNL     1       1.304  -2.070  -0.021  0.00  0.00    -0.297 N 
ATOM      4  C   UNL     1       0.121  -2.943  -0.021  0.00  0.00    +0.109 C 
ATOM      5  C   UNL     1       0.627  -4.401  -0.005  0.00  0.00    +0.035 C 
ATOM      6  C   UNL     1       2.060  -4.264   0.574  0.00  0.00    +0.121 C 
ATOM      7  C   UNL     1       2.514  -2.913  -0.038  0.00  0.00    +0.123 C 
ENDROOT
BRANCH   6   8
ATOM      8  C   UNL     1       2.943  -5.391   0.103  0.00  0.00    +0.361 C 
ATOM      9  O   UNL     1       4.141  -5.212  -0.032  0.00  0.00    -0.246 OA
ATOM     10  O   UNL     1       2.458  -6.483  -0.143  0.00  0.00    -0.246 OA
ENDBRANCH   6   8
BRANCH   1  12
ATOM     11  C   UNL     1      -0.016   1.326   0.009  0.00  0.00    +0.013 C 
ATOM     12  C   UNL     1       0.002  -0.004   0.002  0.00  0.00    +0.060 C 
ENDBRANCH   1  12
TORSDOF 2
