REMARK  Name = ZINC14125422
REMARK  8 active torsions:
REMARK  status: ('A' for Active; 'I' for Inactive)
REMARK    1  A    between atoms: C_1  and  C_2
REMARK    2  A    between atoms: C_3  and  C_14
REMARK    3  A    between atoms: C_6  and  C_7
REMARK    4  A    between atoms: C_14  and  S_15
REMARK    5  A    between atoms: S_15  and  C_16
REMARK    6  A    between atoms: C_18  and  C_22
REMARK    7  A    between atoms: C_22  and  C_23
REMARK    8  A    between atoms: C_22  and  C_24
REMARK                            x       y       z     vdW  Elec       q    Type
REMARK                         _______ _______ _______ _____ _____    ______ ____
ROOT
ATOM      1  C   UNL     1      -0.329   1.480   0.046  0.00  0.00    +0.050 C 
ATOM      2  C   UNL     1      -0.133  -0.014   0.018  0.00  0.00    +0.020 A 
ATOM      3  C   UNL     1      -0.172  -0.829  -1.123  0.00  0.00    +0.097 A 
ATOM      4  N   UNL     1       0.042  -2.061  -0.753  0.00  0.00    -0.082 NA
ATOM      5  O   UNL     1       0.226  -2.075   0.651  0.00  0.00    -0.354 OA
ATOM      6  C   UNL     1       0.119  -0.809   1.093  0.00  0.00    +0.170 A 
ENDROOT
BRANCH   6   7
ATOM      7  C   UNL     1       0.249  -0.362   2.496  0.00  0.00    +0.020 A 
ATOM      8  C   UNL     1       1.038   0.746   2.808  0.00  0.00    +0.014 A 
ATOM      9  C   UNL     1       1.155   1.160   4.119  0.00  0.00    +0.039 A 
ATOM     10  C   UNL     1       0.490   0.477   5.125  0.00  0.00    +0.123 A 
ATOM     11  C   UNL     1      -0.295  -0.624   4.821  0.00  0.00    +0.039 A 
ATOM     12  C   UNL     1      -0.423  -1.042   3.513  0.00  0.00    +0.014 A 
ATOM     13  F   UNL     1       0.609   0.885   6.407  0.00  0.00    -0.205 F 
ENDBRANCH   6   7
BRANCH   3  14
ATOM     14  C   UNL     1      -0.419  -0.361  -2.534  0.00  0.00    +0.136 C 
BRANCH  14  15
ATOM     15  S   UNL     1       1.163   0.053  -3.319  0.00  0.00    -0.080 S 
BRANCH  15  16
ATOM     16  C   UNL     1       0.711   0.576  -4.940  0.00  0.00    +0.185 A 
ATOM     17  N   UNL     1      -0.513   0.634  -5.423  0.00  0.00    -0.205 NA
ATOM     18  C   UNL     1      -0.479   1.074  -6.681  0.00  0.00    +0.154 A 
ATOM     19  N   UNL     1       0.761   1.303  -7.021  0.00  0.00    -0.157 NA
ATOM     20  H   UNL     1       2.522   1.064  -5.844  0.00  0.00    +0.191 HD
ATOM     21  N   UNL     1       1.557   0.994  -5.907  0.00  0.00    -0.254 N 
BRANCH  18  22
ATOM     22  C   UNL     1      -1.680   1.274  -7.569  0.00  0.00    +0.053 C 
ATOM     23  C   UNL     1      -1.761   2.742  -7.994  0.00  0.00    +0.015 C 
ATOM     24  C   UNL     1      -1.549   0.390  -8.811  0.00  0.00    +0.015 C 
ENDBRANCH  18  22
ENDBRANCH  15  16
ENDBRANCH  14  15
ENDBRANCH   3  14
TORSDOF 5
