REMARK  Name = ZINC39485147
REMARK  4 active torsions:
REMARK  status: ('A' for Active; 'I' for Inactive)
REMARK    1  A    between atoms: C_1  and  C_2
REMARK    2  A    between atoms: C_4  and  C_15
REMARK    3  A    between atoms: C_7  and  C_10
REMARK    4  A    between atoms: C_15  and  N_16
REMARK                            x       y       z     vdW  Elec       q    Type
REMARK                         _______ _______ _______ _____ _____    ______ ____
ROOT
ATOM      1  C   UNL     1      -0.278   1.738  -0.066  0.00  0.00    +0.039 C 
ATOM      2  C   UNL     1      -0.112   0.218  -0.021  0.00  0.00    +0.133 C 
ATOM      3  C   UNL     1      -1.489  -0.477   0.053  0.00  0.00    +0.068 C 
ATOM      4  N   UNL     1      -1.288  -1.613   0.982  0.00  0.00    -0.284 NA
ATOM      5  C   UNL     1       0.137  -1.562   1.380  0.00  0.00    +0.219 C 
ATOM      6  O   UNL     1       0.545  -0.186   1.203  0.00  0.00    -0.353 OA
ATOM      7  H   UNL     1      -1.891  -1.533   1.787  0.00  0.00    +0.125 HD
ENDROOT
BRANCH   5   8
ATOM      8  C   UNL     1       0.290  -1.972   2.822  0.00  0.00    +0.003 A 
ATOM      9  C   UNL     1       1.450  -2.584   3.258  0.00  0.00    +0.015 A 
ATOM     10  C   UNL     1       1.555  -2.940   4.561  0.00  0.00    +0.045 A 
ATOM     11  S   UNL     1      -0.017  -2.407   5.218  0.00  0.00    -0.105 S 
ATOM     12  C   UNL     1      -0.706  -1.741   3.712  0.00  0.00    +0.052 A 
ENDBRANCH   5   8
BRANCH   3  13
ATOM     13  C   UNL     1      -1.907  -0.983  -1.329  0.00  0.00    -0.057 C 
BRANCH  13  14
ATOM     14  N   UNL     1      -3.167  -1.729  -1.217  0.00  0.00    +0.384 N 
ATOM     15  C   UNL     1      -3.489  -2.340  -2.514  0.00  0.00    -0.072 C 
ATOM     16  C   UNL     1      -4.623  -3.359  -2.345  0.00  0.00    +0.039 C 
ATOM     17  C   UNL     1      -5.745  -2.681  -1.589  0.00  0.00    +0.061 C 
ATOM     18  C   UNL     1      -5.552  -1.540  -0.913  0.00  0.00    -0.040 C 
ATOM     19  C   UNL     1      -4.246  -0.810  -0.813  0.00  0.00    -0.044 C 
ATOM     20  C   UNL     1      -6.895  -1.210  -0.322  0.00  0.00    +0.197 C 
ATOM     21  N   UNL     1      -7.739  -2.326  -0.794  0.00  0.00    -0.183 NA
ATOM     22  N   UNL     1      -7.029  -3.075  -1.475  0.00  0.00    -0.159 NA
ATOM     23  H   UNL     1      -3.066  -2.454  -0.523  0.00  0.00    -0.081 HD
ENDBRANCH  13  14
ENDBRANCH   3  13
TORSDOF 3
