REMARK  Name = ZINC38596360
REMARK  12 active torsions:
REMARK  status: ('A' for Active; 'I' for Inactive)
REMARK    1  A    between atoms: C_1  and  C_2
REMARK    2  A    between atoms: C_2  and  O_3
REMARK    3  A    between atoms: O_3  and  C_4
REMARK    4  A    between atoms: C_7  and  S_11
REMARK    5  A    between atoms: S_11  and  N_14
REMARK    6  A    between atoms: N_14  and  C_15
REMARK    7  A    between atoms: C_15  and  C_17
REMARK    8  A    between atoms: C_15  and  C_18
REMARK    9  A    between atoms: C_18  and  C_20
REMARK   10  A    between atoms: C_18  and  N_25
REMARK   11  A    between atoms: N_28  and  C_31
REMARK   12  A    between atoms: C_31  and  C_32
REMARK                            x       y       z     vdW  Elec       q    Type
REMARK                         _______ _______ _______ _____ _____    ______ ____
ROOT
ATOM      1  C   UNL     1      -1.848  -6.162  -4.415  0.00  0.00    +0.112 C 
ENDROOT
BRANCH   1   2
ATOM      2  N   UNL     1      -2.011  -6.202  -5.875  0.00  0.00    -0.297 NA
ATOM      3  C   UNL     1      -3.432  -6.267  -6.244  0.00  0.00    +0.066 C 
ATOM      4  C   UNL     1      -3.557  -6.368  -7.765  0.00  0.00    -0.063 C 
ATOM      5  N   UNL     1      -2.926  -5.196  -8.387  0.00  0.00    +0.384 N 
ATOM      6  C   UNL     1      -1.502  -5.158  -8.029  0.00  0.00    -0.063 C 
ATOM      7  C   UNL     1      -1.360  -5.048  -6.510  0.00  0.00    +0.066 C 
ATOM      8  H   UNL     1      -3.378  -4.356  -8.057  0.00  0.00    -0.081 HD
BRANCH   5   9
ATOM      9  C   UNL     1      -3.061  -5.284  -9.847  0.00  0.00    -0.043 C 
BRANCH   9  10
ATOM     10  C   UNL     1      -2.524  -4.025 -10.478  0.00  0.00    -0.064 A 
ATOM     11  C   UNL     1      -3.362  -2.947 -10.691  0.00  0.00    +0.002 A 
ATOM     12  C   UNL     1      -2.868  -1.792 -11.270  0.00  0.00    +0.000 A 
ATOM     13  C   UNL     1      -1.537  -1.716 -11.635  0.00  0.00    +0.000 A 
ATOM     14  C   UNL     1      -0.699  -2.795 -11.421  0.00  0.00    +0.000 A 
ATOM     15  C   UNL     1      -1.192  -3.948 -10.838  0.00  0.00    +0.002 A 
ENDBRANCH   9  10
ENDBRANCH   5   9
ENDBRANCH   1   2
BRANCH   1  16
ATOM     16  C   UNL     1      -2.553  -7.342  -3.798  0.00  0.00    +0.008 A 
ATOM     17  C   UNL     1      -3.345  -7.384  -2.699  0.00  0.00    +0.013 A 
ATOM     18  C   UNL     1      -3.893  -8.593  -2.313  0.00  0.00    +0.008 A 
ATOM     19  C   UNL     1      -3.622  -9.701  -3.045  0.00  0.00    +0.045 A 
ATOM     20  S   UNL     1      -2.568  -9.046  -4.329  0.00  0.00    -0.100 S 
ENDBRANCH   1  16
BRANCH   1  21
ATOM     21  C   UNL     1      -0.359  -6.218  -4.067  0.00  0.00    +0.095 C 
ATOM     22  C   UNL     1       0.267  -7.460  -4.705  0.00  0.00    +0.027 C 
BRANCH  21  23
ATOM     23  N   UNL     1      -0.199  -6.283  -2.612  0.00  0.00    -0.185 NA
ATOM     24  H   UNL     1      -0.844  -6.770  -2.075  0.00  0.00    +0.148 HD
BRANCH  23  25
ATOM     25  S   UNL     1       1.081  -5.526  -1.885  0.00  0.00    +0.059 S 
ATOM     26  O   UNL     1       2.244  -5.911  -2.606  0.00  0.00    -0.153 OA
ATOM     27  O   UNL     1       0.944  -5.747  -0.488  0.00  0.00    -0.153 OA
BRANCH  25  31
ATOM     28  C   UNL     1       0.557  -1.075  -2.546  0.00  0.00    +0.156 A 
ATOM     29  C   UNL     1       0.012  -1.681  -1.424  0.00  0.00    +0.050 A 
ATOM     30  C   UNL     1       0.173  -3.039  -1.225  0.00  0.00    +0.032 A 
ATOM     31  C   UNL     1       0.878  -3.795  -2.143  0.00  0.00    +0.108 A 
ATOM     32  C   UNL     1       1.424  -3.196  -3.263  0.00  0.00    +0.070 A 
ATOM     33  C   UNL     1       1.260  -1.838  -3.471  0.00  0.00    +0.167 A 
ATOM     34  F   UNL     1       1.788  -1.253  -4.568  0.00  0.00    -0.202 F 
BRANCH  28  35
ATOM     35  O   UNL     1       0.400   0.260  -2.744  0.00  0.00    -0.489 OA
BRANCH  35  37
ATOM     36  C   UNL     1      -0.406   2.458  -2.143  0.00  0.00    +0.048 C 
ATOM     37  C   UNL     1      -0.334   0.981  -1.752  0.00  0.00    +0.226 C 
ENDBRANCH  35  37
ENDBRANCH  28  35
ENDBRANCH  25  31
ENDBRANCH  23  25
ENDBRANCH  21  23
ENDBRANCH   1  21
TORSDOF 10
