REMARK  Name = ZINC32945379
REMARK  6 active torsions:
REMARK  status: ('A' for Active; 'I' for Inactive)
REMARK    1  A    between atoms: C_1  and  C_2
REMARK    2  A    between atoms: C_10  and  C_16
REMARK    3  A    between atoms: C_16  and  O_18
REMARK    4  A    between atoms: O_18  and  C_19
REMARK    5  A    between atoms: C_19  and  C_20
REMARK    6  A    between atoms: N_22  and  C_23
REMARK                            x       y       z     vdW  Elec       q    Type
REMARK                         _______ _______ _______ _____ _____    ______ ____
ROOT
ATOM      1  C   UNL     1       7.849  -0.964   0.093  0.00  0.00    +0.008 C 
ATOM      2  C   UNL     1       7.150   0.373   0.348  0.00  0.00    -0.009 C 
ATOM      3  C   UNL     1       7.818   1.467  -0.490  0.00  0.00    +0.009 C 
ATOM      4  C   UNL     1       7.291   2.839  -0.055  0.00  0.00    +0.054 C 
ATOM      5  C   UNL     1       5.780   2.790  -0.039  0.00  0.00    +0.020 A 
ATOM      6  C   UNL     1       5.072   1.645  -0.037  0.00  0.00    -0.019 A 
ATOM      7  C   UNL     1       3.658   2.009  -0.022  0.00  0.00    +0.004 A 
ATOM      8  C   UNL     1       2.467   1.286  -0.015  0.00  0.00    +0.025 A 
ATOM      9  C   UNL     1       1.253   1.966   0.001  0.00  0.00    +0.060 A 
ATOM     10  C   UNL     1       1.233   3.368   0.003  0.00  0.00    +0.017 A 
ATOM     11  C   UNL     1       2.396   4.079   0.001  0.00  0.00    +0.027 A 
ATOM     12  C   UNL     1       3.624   3.419  -0.014  0.00  0.00    +0.047 A 
ATOM     13  N   UNL     1       4.927   3.857  -0.025  0.00  0.00    -0.358 N 
ATOM     14  H   UNL     1       5.328   4.882  -0.023  0.00  0.00    +0.166 HD
ATOM     15  C   UNL     1       5.672   0.263  -0.048  0.00  0.00    +0.040 C 
ENDROOT
BRANCH   9  16
ATOM     16  C   UNL     1      -0.014   1.211   0.009  0.00  0.00    +0.340 C 
ATOM     17  O   UNL     1       0.002  -0.004   0.002  0.00  0.00    -0.245 OA
BRANCH  16  18
ATOM     18  O   UNL     1      -1.190   1.869   0.018  0.00  0.00    -0.452 OA
BRANCH  18  19
ATOM     19  C   UNL     1      -2.397   1.061   0.019  0.00  0.00    +0.328 C 
BRANCH  19  20
ATOM     20  C   UNL     1      -3.605   1.963   0.030  0.00  0.00    +0.251 C 
ATOM     21  O   UNL     1      -3.462   3.167   0.036  0.00  0.00    -0.272 OA
ATOM     22  N   UNL     1      -4.843   1.431   0.033  0.00  0.00    -0.310 N 
ATOM     23  H   UNL     1      -4.972   0.339   0.028  0.00  0.00    +0.149 HD
BRANCH  22  24
ATOM     24  C   UNL     1      -6.017   2.307   0.043  0.00  0.00    +0.073 C 
ATOM     25  C   UNL     1      -6.343   2.705   1.484  0.00  0.00    +0.022 C 
ATOM     26  C   UNL     1      -7.569   3.621   1.495  0.00  0.00    +0.002 C 
ATOM     27  C   UNL     1      -8.763   2.882   0.887  0.00  0.00    +0.000 C 
ATOM     28  C   UNL     1      -8.436   2.484  -0.554  0.00  0.00    +0.002 C 
ATOM     29  C   UNL     1      -7.210   1.568  -0.565  0.00  0.00    +0.022 C 
ENDBRANCH  22  24
ENDBRANCH  19  20
ENDBRANCH  18  19
ENDBRANCH  16  18
ENDBRANCH   9  16
TORSDOF 5
