REMARK  Name = ZINC65481839
REMARK  10 active torsions:
REMARK  status: ('A' for Active; 'I' for Inactive)
REMARK    1  A    between atoms: C_1  and  C_2
REMARK    2  A    between atoms: C_2  and  N_3
REMARK    3  A    between atoms: N_3  and  C_4
REMARK    4  A    between atoms: N_3  and  C_6
REMARK    5  A    between atoms: C_4  and  C_5
REMARK    6  A    between atoms: C_6  and  C_7
REMARK    7  A    between atoms: C_6  and  C_25
REMARK    8  A    between atoms: C_7  and  N_8
REMARK    9  A    between atoms: C_19  and  N_20
REMARK   10  A    between atoms: C_21  and  C_23
REMARK                            x       y       z     vdW  Elec       q    Type
REMARK                         _______ _______ _______ _____ _____    ______ ____
ROOT
ATOM      1  N   UNL     1       2.543  -1.728  -2.453  0.00  0.00    -0.300 N 
ATOM      2  C   UNL     1       3.286  -1.907  -3.562  0.00  0.00    +0.302 C 
ATOM      3  O   UNL     1       2.774  -2.352  -4.572  0.00  0.00    -0.253 OA
ATOM      4  N   UNL     1       4.597  -1.594  -3.553  0.00  0.00    -0.281 N 
ATOM      5  C   UNL     1       5.411  -1.669  -4.778  0.00  0.00    +0.114 C 
ATOM      6  C   UNL     1       5.882  -0.255  -5.116  0.00  0.00    +0.056 C 
ATOM      7  C   UNL     1       6.440   0.430  -3.896  0.00  0.00    -0.020 A 
ATOM      8  C   UNL     1       6.150   0.025  -2.614  0.00  0.00    -0.025 A 
ATOM      9  C   UNL     1       6.687   0.712  -1.533  0.00  0.00    +0.005 A 
ATOM     10  C   UNL     1       7.520   1.795  -1.731  0.00  0.00    +0.002 A 
ATOM     11  C   UNL     1       7.823   2.202  -3.015  0.00  0.00    +0.023 A 
ATOM     12  C   UNL     1       7.285   1.523  -4.097  0.00  0.00    +0.037 A 
ATOM     13  C   UNL     1       5.269  -1.159  -2.324  0.00  0.00    +0.144 C 
ATOM     14  H   UNL     1       2.932  -1.306  -1.671  0.00  0.00    +0.150 HD
ENDROOT
BRANCH  12  15
ATOM     15  N   UNL     1       7.590   1.935  -5.399  0.00  0.00    -0.285 N 
ATOM     16  C   UNL     1       8.801   2.458  -5.673  0.00  0.00    +0.214 C 
ATOM     17  O   UNL     1       9.654   2.499  -4.811  0.00  0.00    -0.276 OA
ATOM     18  C   UNL     1       9.097   2.992  -7.051  0.00  0.00    +0.109 C 
ATOM     19  H   UNL     1       6.930   1.844  -6.104  0.00  0.00    +0.155 HD
ENDBRANCH  12  15
BRANCH   1  20
ATOM     20  C   UNL     1       1.146  -2.170  -2.427  0.00  0.00    +0.098 C 
BRANCH  20  21
ATOM     21  C   UNL     1       0.499  -1.738  -1.110  0.00  0.00    +0.016 C 
BRANCH  21  22
ATOM     22  C   UNL     1      -0.954  -2.139  -1.109  0.00  0.00    +0.093 A 
ATOM     23  C   UNL     1      -1.501  -3.112  -0.359  0.00  0.00    +0.043 A 
ATOM     24  C   UNL     1      -2.879  -3.146  -0.674  0.00  0.00    +0.041 A 
ATOM     25  C   UNL     1      -3.091  -2.191  -1.597  0.00  0.00    +0.195 A 
ATOM     26  O   UNL     1      -1.923  -1.581  -1.853  0.00  0.00    -0.469 OA
ENDBRANCH  21  22
BRANCH  21  27
ATOM     27  N   UNL     1       0.605  -0.280  -0.966  0.00  0.00    +0.387 N 
ATOM     28  H   UNL     1       1.578  -0.013  -0.965  0.00  0.00    -0.081 HD
BRANCH  27  30
ATOM     29  C   UNL     1       0.166   1.882  -2.029  0.00  0.00    -0.017 C 
ATOM     30  C   UNL     1      -0.082   0.373  -2.088  0.00  0.00    -0.081 C 
ENDBRANCH  27  30
BRANCH  27  31
ATOM     31  C   UNL     1      -0.019   0.134   0.298  0.00  0.00    -0.081 C 
ATOM     32  C   UNL     1       0.780  -0.436   1.472  0.00  0.00    -0.017 C 
ENDBRANCH  27  31
ENDBRANCH  21  27
ENDBRANCH  20  21
ENDBRANCH   1  20
TORSDOF 7
