REMARK  Name = ZINC20610483
REMARK  8 active torsions:
REMARK  status: ('A' for Active; 'I' for Inactive)
REMARK    1  A    between atoms: C_1  and  C_2
REMARK    2  A    between atoms: C_2  and  C_3
REMARK    3  A    between atoms: C_3  and  C_4
REMARK    4  A    between atoms: C_4  and  C_5
REMARK    5  A    between atoms: C_8  and  N_11
REMARK    6  A    between atoms: C_16  and  C_35
REMARK    7  A    between atoms: C_26  and  C_34
REMARK    8  A    between atoms: C_35  and  C_36
REMARK                            x       y       z     vdW  Elec       q    Type
REMARK                         _______ _______ _______ _____ _____    ______ ____
ROOT
ATOM      1  N   UNL     1      -6.737  -4.028   0.045  0.00  0.00    -0.210 N 
ATOM      2  C   UNL     1      -7.375  -4.367   1.171  0.00  0.00    +0.232 C 
ATOM      3  O   UNL     1      -6.908  -4.300   2.288  0.00  0.00    -0.274 OA
ATOM      4  C   UNL     1      -8.769  -4.847   0.835  0.00  0.00    +0.108 C 
ATOM      5  C   UNL     1      -9.797  -3.822   1.361  0.00  0.00    +0.076 C 
ATOM      6  N   UNL     1     -10.751  -3.627   0.238  0.00  0.00    -0.295 NA
ATOM      7  C   UNL     1      -9.899  -3.643  -0.966  0.00  0.00    +0.136 C 
ATOM      8  C   UNL     1      -8.824  -4.729  -0.714  0.00  0.00    +0.123 C 
ATOM      9  C   UNL     1      -7.459  -4.185  -1.071  0.00  0.00    +0.233 C 
ATOM     10  O   UNL     1      -7.077  -3.933  -2.193  0.00  0.00    -0.274 OA
ATOM     11  C   UNL     1     -10.700  -3.944  -2.202  0.00  0.00    +0.005 A 
ATOM     12  C   UNL     1     -11.486  -5.007  -2.586  0.00  0.00    +0.011 A 
ATOM     13  C   UNL     1     -12.113  -4.995  -3.819  0.00  0.00    -0.049 A 
ATOM     14  C   UNL     1     -11.947  -3.914  -4.665  0.00  0.00    +0.025 A 
ATOM     15  C   UNL     1     -11.159  -2.846  -4.285  0.00  0.00    +0.063 A 
ATOM     16  C   UNL     1     -10.525  -2.851  -3.044  0.00  0.00    +0.057 A 
ATOM     17  N   UNL     1      -9.690  -1.905  -2.442  0.00  0.00    -0.282 N 
ATOM     18  C   UNL     1      -9.281  -2.295  -1.219  0.00  0.00    +0.243 C 
ATOM     19  O   UNL     1      -8.555  -1.679  -0.468  0.00  0.00    -0.273 OA
ATOM     20 CL   UNL     1     -10.958  -1.495  -5.356  0.00  0.00    -0.082 Cl
ATOM     21  C   UNL     1     -12.974  -6.159  -4.240  0.00  0.00    +0.044 C 
ATOM     22  H   UNL     1     -11.432  -4.371   0.209  0.00  0.00    +0.124 HD
ATOM     23  H   UNL     1      -9.436  -1.066  -2.856  0.00  0.00    +0.155 HD
ENDROOT
BRANCH   1  27
ATOM     24  C   UNL     1      -2.827  -2.584   0.016  0.00  0.00    -0.047 A 
ATOM     25  C   UNL     1      -3.837  -1.829   0.583  0.00  0.00    +0.005 A 
ATOM     26  C   UNL     1      -5.133  -2.305   0.594  0.00  0.00    +0.024 A 
ATOM     27  C   UNL     1      -5.422  -3.542   0.035  0.00  0.00    +0.044 A 
ATOM     28  C   UNL     1      -4.406  -4.298  -0.534  0.00  0.00    +0.024 A 
ATOM     29  C   UNL     1      -3.112  -3.815  -0.546  0.00  0.00    +0.005 A 
BRANCH  24  30
ATOM     30  C   UNL     1      -1.413  -2.062   0.006  0.00  0.00    +0.035 C 
BRANCH  30  31
ATOM     31  C   UNL     1      -1.179  -1.248  -1.268  0.00  0.00    +0.004 C 
BRANCH  31  33
ATOM     32  C   UNL     1       0.490   0.096  -2.552  0.00  0.00    +0.004 C 
ATOM     33  C   UNL     1       0.256  -0.718  -1.278  0.00  0.00    -0.003 C 
ENDBRANCH  31  33
ENDBRANCH  30  31
ENDBRANCH  24  30
ENDBRANCH   1  27
BRANCH   5  34
ATOM     34  C   UNL     1     -10.522  -4.378   2.588  0.00  0.00    +0.115 C 
BRANCH  34  35
ATOM     35  C   UNL     1     -11.430  -3.319   3.159  0.00  0.00    +0.212 C 
ATOM     36  O   UNL     1     -11.490  -2.227   2.635  0.00  0.00    -0.276 OA
ATOM     37  N   UNL     1     -12.174  -3.586   4.250  0.00  0.00    -0.329 N 
ATOM     38  H   UNL     1     -12.125  -4.459   4.669  0.00  0.00    +0.145 HD
ATOM     39  H   UNL     1     -12.758  -2.904   4.617  0.00  0.00    +0.145 HD
ENDBRANCH  34  35
ENDBRANCH   5  34
TORSDOF 6
