REMARK  Name = ZINC67430911
REMARK  3 active torsions:
REMARK  status: ('A' for Active; 'I' for Inactive)
REMARK    1  A    between atoms: C_6  and  N_7
REMARK    2  A    between atoms: C_8  and  C_10
REMARK    3  A    between atoms: N_12  and  C_13
REMARK                            x       y       z     vdW  Elec       q    Type
REMARK                         _______ _______ _______ _____ _____    ______ ____
ROOT
ATOM      1  N   UNL     1      -1.200  -0.719   0.010  0.00  0.00    -0.278 N 
ATOM      2  C   UNL     1      -2.372  -0.065   0.127  0.00  0.00    +0.303 C 
ATOM      3  O   UNL     1      -2.393   1.148   0.134  0.00  0.00    -0.265 OA
ATOM      4  H   UNL     1      -1.189  -1.687  -0.063  0.00  0.00    +0.155 HD
ENDROOT
BRANCH   1  10
ATOM      5  C   UNL     1       1.139  -0.542   0.583  0.00  0.00    +0.027 A 
ATOM      6  C   UNL     1       2.328   0.162   0.569  0.00  0.00    +0.049 A 
ATOM      7  C   UNL     1       2.388   1.407  -0.033  0.00  0.00    +0.142 A 
ATOM      8  C   UNL     1       1.248   1.951  -0.624  0.00  0.00    +0.077 A 
ATOM      9  C   UNL     1       0.057   1.246  -0.611  0.00  0.00    +0.050 A 
ATOM     10  C   UNL     1       0.002  -0.003  -0.006  0.00  0.00    +0.036 A 
ATOM     11  N   UNL     1       1.325   3.214  -1.228  0.00  0.00    -0.280 N 
ATOM     12  C   UNL     1       2.541   3.734  -1.505  0.00  0.00    +0.255 C 
ATOM     13  O   UNL     1       2.633   4.838  -1.999  0.00  0.00    -0.272 OA
ATOM     14  C   UNL     1       3.783   2.937  -1.198  0.00  0.00    +0.325 C 
ATOM     15  O   UNL     1       3.553   2.110  -0.054  0.00  0.00    -0.481 OA
ATOM     16  H   UNL     1       0.518   3.707  -1.443  0.00  0.00    +0.155 HD
ENDBRANCH   1  10
BRANCH   2  17
ATOM     17  C   UNL     1      -3.647  -0.834   0.248  0.00  0.00    +0.300 C 
ATOM     18  O   UNL     1      -3.627  -2.047   0.241  0.00  0.00    -0.265 OA
ATOM     19  N   UNL     1      -4.820  -0.180   0.364  0.00  0.00    -0.301 N 
ATOM     20  H   UNL     1      -4.836   0.790   0.370  0.00  0.00    +0.150 HD
BRANCH  19  21
ATOM     21  C   UNL     1      -6.070  -0.934   0.483  0.00  0.00    +0.104 C 
ATOM     22  C   UNL     1      -7.150  -0.075   1.174  0.00  0.00    +0.032 C 
ATOM     23  C   UNL     1      -8.441  -0.527   0.460  0.00  0.00    +0.037 C 
ATOM     24  C   UNL     1      -7.992  -1.010  -0.903  0.00  0.00    -0.041 A 
ATOM     25  C   UNL     1      -6.628  -1.246  -0.889  0.00  0.00    -0.024 A 
ATOM     26  C   UNL     1      -5.993  -1.698  -2.034  0.00  0.00    +0.007 A 
ATOM     27  C   UNL     1      -6.716  -1.916  -3.190  0.00  0.00    +0.020 A 
ATOM     28  C   UNL     1      -8.080  -1.683  -3.206  0.00  0.00    +0.041 A 
ATOM     29  C   UNL     1      -8.717  -1.226  -2.062  0.00  0.00    +0.024 A 
ATOM     30 CL   UNL     1      -8.992  -1.955  -4.657  0.00  0.00    -0.084 Cl
ENDBRANCH  19  21
ENDBRANCH   2  17
TORSDOF 3
