REMARK  Name = ZINC63062383
REMARK  6 active torsions:
REMARK  status: ('A' for Active; 'I' for Inactive)
REMARK    1  A    between atoms: C_1  and  C_2
REMARK    2  A    between atoms: C_7  and  O_8
REMARK    3  A    between atoms: O_8  and  C_9
REMARK    4  A    between atoms: C_9  and  C_10
REMARK    5  A    between atoms: C_12  and  N_17
REMARK    6  A    between atoms: C_15  and  N_16
REMARK                            x       y       z     vdW  Elec       q    Type
REMARK                         _______ _______ _______ _____ _____    ______ ____
ROOT
ATOM      1  C   UNL     1       0.045   0.091   4.775  0.00  0.00    +0.012 A 
ATOM      2  C   UNL     1       0.018   1.462   4.604  0.00  0.00    +0.041 A 
ATOM      3  C   UNL     1       0.017   2.297   5.706  0.00  0.00    +0.127 A 
ATOM      4  C   UNL     1       0.042   1.765   6.982  0.00  0.00    +0.034 A 
ATOM      5  C   UNL     1       0.069   0.396   7.160  0.00  0.00    +0.025 A 
ATOM      6  C   UNL     1       0.064  -0.447   6.055  0.00  0.00    +0.031 A 
ENDROOT
BRANCH   6   7
ATOM      7  N   UNL     1       0.085  -1.833   6.232  0.00  0.00    -0.358 N 
ATOM      8  H   UNL     1       0.086  -2.420   5.460  0.00  0.00    +0.142 HD
ATOM      9  H   UNL     1       0.099  -2.207   7.126  0.00  0.00    +0.142 HD
ENDBRANCH   6   7
BRANCH   3  10
ATOM     10  N   UNL     1      -0.011   3.765   5.519  0.00  0.00    +0.056 N 
ATOM     11  O   UNL     1      -0.032   4.232   4.404  0.00  0.00    -0.126 OA
ATOM     12  O   UNL     1      -0.012   4.497   6.481  0.00  0.00    -0.126 OA
ENDBRANCH   3  10
BRANCH   1  13
ATOM     13  C   UNL     1       0.047  -0.819   3.574  0.00  0.00    +0.266 C 
BRANCH  13  14
ATOM     14  O   UNL     1       0.025  -0.033   2.381  0.00  0.00    -0.487 OA
BRANCH  14  21
ATOM     15  C   UNL     1      -0.018   1.503   0.010  0.00  0.00    +0.047 C 
ATOM     16  C   UNL     1       0.002  -0.004   0.002  0.00  0.00    -0.008 A 
ATOM     17  C   UNL     1       0.006  -0.689  -1.198  0.00  0.00    +0.022 A 
ATOM     18  C   UNL     1       0.025  -2.072  -1.206  0.00  0.00    +0.018 A 
ATOM     19  C   UNL     1       0.040  -2.772  -0.013  0.00  0.00    +0.019 A 
ATOM     20  C   UNL     1       0.036  -2.092   1.189  0.00  0.00    +0.047 A 
ATOM     21  C   UNL     1       0.023  -0.705   1.199  0.00  0.00    +0.124 A 
ATOM     22 BR   UNL     1       0.029  -3.006  -2.850  0.00  0.00    -0.050 Br
ENDBRANCH  14  21
ENDBRANCH  13  14
ENDBRANCH   1  13
TORSDOF 5
