REMARK  Name = ZINC38984210
REMARK  6 active torsions:
REMARK  status: ('A' for Active; 'I' for Inactive)
REMARK    1  A    between atoms: C_1  and  C_2
REMARK    2  A    between atoms: C_2  and  C_3
REMARK    3  A    between atoms: C_8  and  N_9
REMARK    4  A    between atoms: N_9  and  C_10
REMARK    5  A    between atoms: N_13  and  S_14
REMARK    6  A    between atoms: S_14  and  C_17
REMARK                            x       y       z     vdW  Elec       q    Type
REMARK                         _______ _______ _______ _____ _____    ______ ____
ROOT
ATOM      1  C   UNL     1      -2.047  -0.600   3.743  0.00  0.00    +0.237 C 
ATOM      2  C   UNL     1      -2.910   0.608   4.027  0.00  0.00    +0.192 C 
ATOM      3  N   UNL     1      -2.374   1.786   4.162  0.00  0.00    -0.110 NA
ATOM      4  N   UNL     1      -4.239   0.448   4.138  0.00  0.00    -0.226 NA
ATOM      5  C   UNL     1      -4.805  -0.733   4.005  0.00  0.00    +0.089 A 
ATOM      6  C   UNL     1      -6.211  -0.866   4.129  0.00  0.00    +0.030 A 
ATOM      7  C   UNL     1      -6.798  -2.075   3.994  0.00  0.00    +0.002 A 
ATOM      8  C   UNL     1      -6.070  -3.247   3.731  0.00  0.00    +0.002 A 
ATOM      9  C   UNL     1      -4.726  -3.233   3.595  0.00  0.00    +0.027 A 
ATOM     10  C   UNL     1      -4.011  -1.955   3.727  0.00  0.00    +0.063 A 
ATOM     11  N   UNL     1      -2.715  -1.903   3.601  0.00  0.00    -0.359 N 
ATOM     12  H   UNL     1      -2.202  -2.706   3.417  0.00  0.00    +0.162 HD
ENDROOT
BRANCH   3  13
ATOM     13  S   UNL     1      -3.332   3.100   4.473  0.00  0.00    +0.103 S 
ATOM     14  O   UNL     1      -4.139   3.297   3.320  0.00  0.00    -0.146 OA
ATOM     15  O   UNL     1      -3.886   2.902   5.766  0.00  0.00    -0.146 OA
BRANCH  13  16
ATOM     16  C   UNL     1      -2.270   4.502   4.589  0.00  0.00    +0.141 A 
ATOM     17  C   UNL     1      -2.367   5.500   3.680  0.00  0.00    +0.031 A 
ATOM     18  C   UNL     1      -1.544   6.625   3.742  0.00  0.00    +0.004 A 
ATOM     19  C   UNL     1      -0.611   6.766   4.713  0.00  0.00    +0.031 A 
ATOM     20  C   UNL     1      -0.452   5.757   5.701  0.00  0.00    +0.102 A 
ATOM     21  C   UNL     1      -1.317   4.585   5.640  0.00  0.00    +0.127 A 
ATOM     22  N   UNL     1      -1.083   3.709   6.619  0.00  0.00    -0.189 NA
ATOM     23  S   UNL     1       0.104   4.347   7.498  0.00  0.00    +0.117 S 
ATOM     24  N   UNL     1       0.404   5.725   6.723  0.00  0.00    -0.191 NA
ENDBRANCH  13  16
ENDBRANCH   3  13
BRANCH   1  25
ATOM     25  N   UNL     1      -1.307  -0.339   2.506  0.00  0.00    -0.318 N 
ATOM     26  H   UNL     1      -1.779  -0.047   1.710  0.00  0.00    +0.148 HD
BRANCH  25  32
ATOM     27  C   UNL     1       0.798  -0.145   1.341  0.00  0.00    -0.027 A 
ATOM     28  C   UNL     1       2.169  -0.312   1.312  0.00  0.00    +0.005 A 
ATOM     29  C   UNL     1       2.824  -0.850   2.404  0.00  0.00    +0.000 A 
ATOM     30  C   UNL     1       2.111  -1.221   3.529  0.00  0.00    +0.002 A 
ATOM     31  C   UNL     1       0.740  -1.057   3.565  0.00  0.00    +0.023 A 
ATOM     32  C   UNL     1       0.079  -0.512   2.471  0.00  0.00    +0.032 A 
BRANCH  27  34
ATOM     33  C   UNL     1      -0.089   1.947   0.348  0.00  0.00    +0.009 C 
ATOM     34  C   UNL     1       0.084   0.440   0.149  0.00  0.00    +0.033 C 
ENDBRANCH  27  34
ENDBRANCH  25  32
ENDBRANCH   1  25
TORSDOF 5
