REMARK  Name = ZINC01872589
REMARK  7 active torsions:
REMARK  status: ('A' for Active; 'I' for Inactive)
REMARK    1  A    between atoms: C_1  and  O_2
REMARK    2  A    between atoms: O_2  and  C_3
REMARK    3  A    between atoms: C_3  and  C_5
REMARK    4  A    between atoms: C_11  and  C_12
REMARK    5  A    between atoms: C_20  and  N_33
REMARK    6  A    between atoms: C_21  and  C_31
REMARK    7  A    between atoms: C_22  and  C_24
REMARK                            x       y       z     vdW  Elec       q    Type
REMARK                         _______ _______ _______ _____ _____    ______ ____
ROOT
ATOM      1  C   UNL     1      -0.451  -2.056   2.078  0.00  0.00    +0.080 C 
ATOM      2  C   UNL     1       0.352  -2.679   2.996  0.00  0.00    +0.100 A 
ATOM      3  N   UNL     1       0.494  -4.048   3.100  0.00  0.00    -0.257 N 
ATOM      4  C   UNL     1       1.321  -4.521   4.054  0.00  0.00    +0.271 A 
ATOM      5  O   UNL     1       1.489  -5.717   4.196  0.00  0.00    -0.266 OA
ATOM      6  C   UNL     1       2.014  -3.556   4.918  0.00  0.00    +0.079 A 
ATOM      7  C   UNL     1       2.885  -3.780   5.934  0.00  0.00    +0.028 C 
ATOM      8  S   UNL     1       1.403  -2.009   4.268  0.00  0.00    -0.065 S 
ATOM      9  C   UNL     1      -0.217  -4.875   2.223  0.00  0.00    +0.118 C 
ATOM     10  C   UNL     1      -1.049  -4.415   1.263  0.00  0.00    +0.079 C 
ATOM     11  C   UNL     1      -1.242  -2.920   1.114  0.00  0.00    +0.102 C 
ENDROOT
BRANCH   7  12
ATOM     12  C   UNL     1       3.331  -2.664   6.779  0.00  0.00    -0.023 A 
ATOM     13  C   UNL     1       2.629  -1.453   6.773  0.00  0.00    +0.008 A 
ATOM     14  C   UNL     1       3.054  -0.410   7.568  0.00  0.00    +0.002 A 
ATOM     15  C   UNL     1       4.172  -0.557   8.371  0.00  0.00    +0.015 A 
ATOM     16  C   UNL     1       4.872  -1.752   8.383  0.00  0.00    +0.018 A 
ATOM     17  C   UNL     1       4.457  -2.807   7.598  0.00  0.00    +0.023 A 
ATOM     18 BR   UNL     1       6.398  -1.940   9.484  0.00  0.00    -0.050 Br
ENDBRANCH   7  12
BRANCH  11  19
ATOM     19  C   UNL     1      -0.854  -2.536  -0.290  0.00  0.00    -0.033 A 
ATOM     20  C   UNL     1       0.459  -2.665  -0.705  0.00  0.00    +0.004 A 
ATOM     21  C   UNL     1       0.815  -2.312  -1.993  0.00  0.00    +0.001 A 
ATOM     22  C   UNL     1      -0.141  -1.831  -2.868  0.00  0.00    +0.015 A 
ATOM     23  C   UNL     1      -1.454  -1.702  -2.454  0.00  0.00    +0.018 A 
ATOM     24  C   UNL     1      -1.811  -2.060  -1.166  0.00  0.00    +0.020 A 
ATOM     25 BR   UNL     1      -2.763  -1.043  -3.650  0.00  0.00    -0.050 Br
ENDBRANCH  11  19
BRANCH   9  26
ATOM     26  N   UNL     1      -0.060  -6.234   2.345  0.00  0.00    -0.343 N 
ATOM     27  H   UNL     1       0.169  -6.621   3.204  0.00  0.00    +0.144 HD
ATOM     28  H   UNL     1      -0.177  -6.807   1.571  0.00  0.00    +0.144 HD
ENDBRANCH   9  26
BRANCH   1  29
ATOM     29  C   UNL     1      -0.544  -0.658   2.034  0.00  0.00    +0.338 C 
ATOM     30  O   UNL     1       0.099   0.020   2.816  0.00  0.00    -0.245 OA
BRANCH  29  32
ATOM     31  C   UNL     1      -1.391   1.365   1.136  0.00  0.00    +0.280 C 
ATOM     32  O   UNL     1      -1.346  -0.063   1.124  0.00  0.00    -0.465 OA
ENDBRANCH  29  32
ENDBRANCH   1  29
BRANCH  10  33
ATOM     33  C   UNL     1      -1.742  -5.327   0.403  0.00  0.00    +0.099 C 
ATOM     34  N   UNL     1      -2.292  -6.050  -0.279  0.00  0.00    -0.191 NA
ENDBRANCH  10  33
TORSDOF 6
