REMARK  Name = ZINC07781529
REMARK  5 active torsions:
REMARK  status: ('A' for Active; 'I' for Inactive)
REMARK    1  A    between atoms: C_6  and  C_7
REMARK    2  A    between atoms: C_7  and  C_9
REMARK    3  A    between atoms: C_7  and  N_26
REMARK    4  A    between atoms: C_9  and  C_10
REMARK    5  A    between atoms: N_12  and  C_13
REMARK                            x       y       z     vdW  Elec       q    Type
REMARK                         _______ _______ _______ _____ _____    ______ ____
ROOT
ATOM      1  C   UNL     1      -1.245   1.273  -1.157  0.00  0.00    +0.219 C 
ATOM      2  O   UNL     1      -2.188   2.002  -0.930  0.00  0.00    -0.275 OA
ATOM      3  N   UNL     1      -1.044   0.800  -2.403  0.00  0.00    -0.285 N 
ATOM      4  H   UNL     1      -0.255   0.270  -2.599  0.00  0.00    +0.155 HD
ENDROOT
BRANCH   3   5
ATOM      5  C   UNL     1      -1.972   1.075  -3.415  0.00  0.00    +0.037 A 
ATOM      6  C   UNL     1      -2.230   0.128  -4.397  0.00  0.00    +0.027 A 
ATOM      7  C   UNL     1      -3.150   0.394  -5.394  0.00  0.00    +0.051 A 
ATOM      8  C   UNL     1      -3.807   1.611  -5.422  0.00  0.00    +0.167 A 
ATOM      9  C   UNL     1      -3.547   2.567  -4.440  0.00  0.00    +0.169 A 
ATOM     10  C   UNL     1      -2.632   2.297  -3.439  0.00  0.00    +0.072 A 
ATOM     11  O   UNL     1      -4.321   3.669  -4.696  0.00  0.00    -0.447 OA
ATOM     12  C   UNL     1      -5.376   3.164  -5.527  0.00  0.00    +0.254 C 
ATOM     13  O   UNL     1      -4.742   2.124  -6.284  0.00  0.00    -0.448 OA
ATOM     14  C   UNL     1      -5.932   4.259  -6.444  0.00  0.00    +0.093 C 
ATOM     15  C   UNL     1      -7.443   3.925  -6.552  0.00  0.00    +0.008 C 
ATOM     16  C   UNL     1      -7.788   3.422  -5.127  0.00  0.00    +0.008 C 
ATOM     17  C   UNL     1      -6.538   2.624  -4.693  0.00  0.00    +0.093 C 
ENDBRANCH   3   5
BRANCH   1  18
ATOM     18  C   UNL     1      -0.300   0.896  -0.046  0.00  0.00    +0.123 C 
BRANCH  18  19
ATOM     19  C   UNL     1      -0.752   1.560   1.256  0.00  0.00    +0.113 C 
BRANCH  19  25
ATOM     20  C   UNL     1      -0.143   1.214   3.659  0.00  0.00    +0.007 A 
ATOM     21  C   UNL     1       0.783   0.955   4.652  0.00  0.00    +0.020 A 
ATOM     22  C   UNL     1       2.116   0.778   4.325  0.00  0.00    +0.041 A 
ATOM     23  C   UNL     1       2.519   0.854   3.004  0.00  0.00    +0.020 A 
ATOM     24  C   UNL     1       1.591   1.107   2.011  0.00  0.00    +0.007 A 
ATOM     25  C   UNL     1       0.260   1.284   2.339  0.00  0.00    -0.027 A 
ATOM     26 CL   UNL     1       3.281   0.462   5.572  0.00  0.00    -0.084 Cl
ENDBRANCH  19  25
BRANCH  19  27
ATOM     27  N   UNL     1      -2.054   1.019   1.655  0.00  0.00    -0.292 N 
ATOM     28  C   UNL     1      -2.210  -0.309   1.817  0.00  0.00    +0.298 C 
ATOM     29  O   UNL     1      -1.249  -1.050   1.731  0.00  0.00    -0.253 OA
ATOM     30  N   UNL     1      -3.432  -0.818   2.074  0.00  0.00    -0.313 N 
ATOM     31  H   UNL     1      -2.803   1.617   1.802  0.00  0.00    +0.151 HD
ATOM     32  H   UNL     1      -4.198  -0.227   2.143  0.00  0.00    +0.146 HD
ATOM     33  H   UNL     1      -3.544  -1.774   2.191  0.00  0.00    +0.146 HD
ENDBRANCH  19  27
ENDBRANCH  18  19
ENDBRANCH   1  18
TORSDOF 5
