REMARK  Name = ZINC06321194
REMARK  13 active torsions:
REMARK  status: ('A' for Active; 'I' for Inactive)
REMARK    1  A    between atoms: C_1  and  C_2
REMARK    2  A    between atoms: C_6  and  C_15
REMARK    3  A    between atoms: C_13  and  C_14
REMARK    4  A    between atoms: C_15  and  C_17
REMARK    5  A    between atoms: C_15  and  N_69
REMARK    6  A    between atoms: N_21  and  C_22
REMARK    7  A    between atoms: C_22  and  C_23
REMARK    8  A    between atoms: C_22  and  C_24
REMARK    9  A    between atoms: C_22  and  C_25
REMARK   10  A    between atoms: C_26  and  C_27
REMARK   11  A    between atoms: C_26  and  N_69
REMARK   12  A    between atoms: C_33  and  C_34
REMARK   13  A    between atoms: C_33  and  N_69
REMARK                            x       y       z     vdW  Elec       q    Type
REMARK                         _______ _______ _______ _____ _____    ______ ____
ROOT
ATOM      1  C   UNL     1       2.305   1.261  -0.592  0.00  0.00    +0.040 C 
ENDROOT
BRANCH   1   7
ATOM      2  C   UNL     1      -4.787   1.374  -2.896  0.00  0.00    +0.044 C 
ATOM      3  C   UNL     1      -3.544   2.090  -2.433  0.00  0.00    -0.047 A 
ATOM      4  C   UNL     1      -2.423   1.370  -2.126  0.00  0.00    +0.013 A 
ATOM      5  C   UNL     1      -1.268   2.034  -1.701  0.00  0.00    -0.001 A 
ATOM      6  C   UNL     1      -0.052   1.295  -1.358  0.00  0.00    +0.017 A 
ATOM      7  C   UNL     1       1.036   1.992  -0.947  0.00  0.00    +0.011 A 
ATOM      8  C   UNL     1       0.984   3.399  -0.851  0.00  0.00    +0.251 A 
ATOM      9  O   UNL     1       1.973   4.006  -0.479  0.00  0.00    -0.268 OA
ATOM     10  N   UNL     1      -0.130   4.087  -1.159  0.00  0.00    -0.322 N 
ATOM     11  H   UNL     1      -0.131   5.053  -1.082  0.00  0.00    +0.169 HD
ATOM     12  C   UNL     1      -1.269   3.437  -1.583  0.00  0.00    +0.049 A 
ATOM     13  C   UNL     1      -2.421   4.148  -1.902  0.00  0.00    +0.030 A 
ATOM     14  C   UNL     1      -3.547   3.473  -2.323  0.00  0.00    -0.046 A 
ATOM     15  C   UNL     1      -4.794   4.245  -2.668  0.00  0.00    +0.044 C 
ENDBRANCH   1   7
BRANCH   1  16
ATOM     16  C   UNL     1       2.595   1.443   0.876  0.00  0.00    +0.143 A 
ATOM     17  N   UNL     1       3.086   2.515   1.450  0.00  0.00    -0.115 NA
ATOM     18  N   UNL     1       3.187   2.279   2.712  0.00  0.00    -0.023 NA
ATOM     19  N   UNL     1       2.773   1.085   2.959  0.00  0.00    -0.043 NA
ATOM     20  N   UNL     1       2.395   0.539   1.853  0.00  0.00    -0.225 N 
BRANCH  20  21
ATOM     21  C   UNL     1       1.853  -0.812   1.690  0.00  0.00    +0.059 C 
ATOM     22  C   UNL     1       2.805  -1.643   0.828  0.00  0.00    +0.036 C 
ATOM     23  C   UNL     1       1.703  -1.470   3.063  0.00  0.00    +0.036 C 
ATOM     24  C   UNL     1       0.485  -0.734   1.010  0.00  0.00    +0.036 C 
ENDBRANCH  20  21
ENDBRANCH   1  16
BRANCH   1  25
ATOM     25  N   UNL     1       3.424   1.829  -1.373  0.00  0.00    +0.397 N 
ATOM     26  H   UNL     1       3.610   2.784  -1.044  0.00  0.00    -0.079 HD
BRANCH  25  27
ATOM     27  C   UNL     1       4.640   1.010  -1.182  0.00  0.00    -0.041 C 
BRANCH  27  28
ATOM     28  C   UNL     1       5.291   1.409   0.117  0.00  0.00    -0.064 A 
ATOM     29  C   UNL     1       5.947   2.622   0.218  0.00  0.00    +0.002 A 
ATOM     30  C   UNL     1       6.539   2.990   1.411  0.00  0.00    +0.000 A 
ATOM     31  C   UNL     1       6.485   2.141   2.501  0.00  0.00    +0.000 A 
ATOM     32  C   UNL     1       5.833   0.926   2.399  0.00  0.00    +0.000 A 
ATOM     33  C   UNL     1       5.236   0.560   1.207  0.00  0.00    +0.002 A 
ENDBRANCH  27  28
ENDBRANCH  25  27
BRANCH  25  34
ATOM     34  C   UNL     1       3.067   1.876  -2.806  0.00  0.00    -0.001 C 
BRANCH  34  35
ATOM     35  C   UNL     1       4.046   2.773  -3.519  0.00  0.00    +0.089 A 
ATOM     36  C   UNL     1       5.141   2.369  -4.187  0.00  0.00    +0.042 A 
ATOM     37  C   UNL     1       5.763   3.532  -4.696  0.00  0.00    +0.041 A 
ATOM     38  C   UNL     1       5.011   4.578  -4.308  0.00  0.00    +0.195 A 
ATOM     39  O   UNL     1       3.969   4.112  -3.601  0.00  0.00    -0.470 OA
ENDBRANCH  34  35
ENDBRANCH  25  34
ENDBRANCH   1  25
TORSDOF 8
