REMARK  Name = ZINC12321889
REMARK  10 active torsions:
REMARK  status: ('A' for Active; 'I' for Inactive)
REMARK    1  A    between atoms: C_1  and  O_2
REMARK    2  A    between atoms: O_2  and  C_3
REMARK    3  A    between atoms: C_7  and  C_9
REMARK    4  A    between atoms: N_17  and  C_27
REMARK    5  A    between atoms: C_18  and  C_20
REMARK    6  A    between atoms: C_24  and  O_26
REMARK    7  A    between atoms: C_27  and  C_28
REMARK    8  A    between atoms: C_28  and  C_29
REMARK    9  A    between atoms: C_36  and  O_39
REMARK   10  A    between atoms: O_39  and  C_40
REMARK                            x       y       z     vdW  Elec       q    Type
REMARK                         _______ _______ _______ _____ _____    ______ ____
ROOT
ATOM      1  C   UNL     1      -2.552  -4.150   0.015  0.00  0.00    +0.099 A 
ATOM      2  C   UNL     1      -3.509  -4.938   0.664  0.00  0.00    +0.035 A 
ATOM      3  C   UNL     1      -3.171  -6.248   0.384  0.00  0.00    +0.126 A 
ATOM      4  N   UNL     1      -2.054  -6.192  -0.401  0.00  0.00    -0.272 N 
ATOM      5  H   UNL     1      -1.584  -6.962  -0.757  0.00  0.00    +0.189 HD
ATOM      6  N   UNL     1      -1.721  -4.967  -0.602  0.00  0.00    -0.173 NA
ATOM      7  C   UNL     1      -4.142  -7.131   1.039  0.00  0.00    +0.265 C 
ATOM      8  O   UNL     1      -4.122  -8.346   0.986  0.00  0.00    -0.268 OA
ATOM      9  N   UNL     1      -5.058  -6.406   1.707  0.00  0.00    -0.285 N 
ATOM     10  C   UNL     1      -4.739  -4.984   1.528  0.00  0.00    +0.141 C 
ENDROOT
BRANCH   1  15
ATOM     11  C   UNL     1      -1.200  -0.637   0.010  0.00  0.00    +0.121 A 
ATOM     12  C   UNL     1      -2.375   0.103   0.019  0.00  0.00    +0.045 A 
ATOM     13  C   UNL     1      -3.599  -0.537   0.028  0.00  0.00    +0.004 A 
ATOM     14  C   UNL     1      -3.662  -1.917   0.026  0.00  0.00    +0.010 A 
ATOM     15  C   UNL     1      -2.488  -2.667   0.016  0.00  0.00    +0.006 A 
ATOM     16  C   UNL     1      -1.254  -2.022   0.003  0.00  0.00    +0.055 A 
BRANCH  11  18
ATOM     17  C   UNL     1      -0.017   1.425   0.010  0.00  0.00    +0.277 C 
ATOM     18  O   UNL     1       0.002  -0.004   0.002  0.00  0.00    -0.495 OA
ENDBRANCH  11  18
ENDBRANCH   1  15
BRANCH  10  19
ATOM     19  C   UNL     1      -4.459  -4.343   2.863  0.00  0.00    -0.019 A 
ATOM     20  C   UNL     1      -3.763  -5.042   3.832  0.00  0.00    +0.006 A 
ATOM     21  C   UNL     1      -3.504  -4.457   5.058  0.00  0.00    +0.004 A 
ATOM     22  C   UNL     1      -3.941  -3.172   5.318  0.00  0.00    +0.045 A 
ATOM     23  C   UNL     1      -4.640  -2.469   4.347  0.00  0.00    +0.117 A 
ATOM     24  C   UNL     1      -4.893  -3.056   3.116  0.00  0.00    +0.051 A 
BRANCH  23  25
ATOM     25  O   UNL     1      -5.071  -1.205   4.600  0.00  0.00    -0.507 OA
ATOM     26  H   UNL     1      -4.435  -0.517   4.360  0.00  0.00    +0.292 HD
ENDBRANCH  23  25
ENDBRANCH  10  19
BRANCH   9  27
ATOM     27  C   UNL     1      -6.181  -6.944   2.479  0.00  0.00    +0.114 C 
BRANCH  27  28
ATOM     28  C   UNL     1      -5.742  -7.168   3.928  0.00  0.00    +0.056 C 
BRANCH  28  29
ATOM     29  C   UNL     1      -6.897  -7.721   4.722  0.00  0.00    -0.021 A 
ATOM     30  C   UNL     1      -7.766  -7.016   5.463  0.00  0.00    +0.087 A 
ATOM     31  N   UNL     1      -8.679  -7.857   6.039  0.00  0.00    -0.360 N 
ATOM     32  H   UNL     1      -9.405  -7.580   6.618  0.00  0.00    +0.165 HD
ATOM     33  C   UNL     1      -8.412  -9.160   5.672  0.00  0.00    +0.047 A 
ATOM     34  C   UNL     1      -7.288  -9.129   4.827  0.00  0.00    +0.006 A 
ATOM     35  C   UNL     1      -6.786 -10.317   4.290  0.00  0.00    +0.056 A 
ATOM     36  C   UNL     1      -7.401 -11.515   4.592  0.00  0.00    +0.121 A 
ATOM     37  C   UNL     1      -8.515 -11.542   5.426  0.00  0.00    +0.047 A 
ATOM     38  C   UNL     1      -9.014 -10.378   5.967  0.00  0.00    +0.030 A 
BRANCH  36  39
ATOM     39  O   UNL     1      -6.917 -12.675   4.072  0.00  0.00    -0.495 OA
ATOM     40  C   UNL     1      -7.600 -13.879   4.425  0.00  0.00    +0.277 C 
ENDBRANCH  36  39
ENDBRANCH  28  29
ENDBRANCH  27  28
ENDBRANCH   9  27
TORSDOF 8
