REMARK  Name = ZINC14625453
REMARK  11 active torsions:
REMARK  status: ('A' for Active; 'I' for Inactive)
REMARK    1  A    between atoms: C_1  and  C_2
REMARK    2  A    between atoms: C_2  and  C_3
REMARK    3  A    between atoms: C_3  and  C_4
REMARK    4  A    between atoms: C_4  and  N_5
REMARK    5  A    between atoms: C_6  and  N_39
REMARK    6  A    between atoms: C_7  and  N_14
REMARK    7  A    between atoms: N_14  and  C_15
REMARK    8  A    between atoms: C_15  and  C_16
REMARK    9  A    between atoms: C_22  and  C_24
REMARK   10  A    between atoms: C_24  and  C_25
REMARK   11  A    between atoms: C_25  and  N_26
REMARK                            x       y       z     vdW  Elec       q    Type
REMARK                         _______ _______ _______ _____ _____    ______ ____
ROOT
ATOM      1  N   UNL     1       4.863  -3.340   3.540  0.00  0.00    -0.260 N 
ATOM      2  C   UNL     1       5.578  -2.806   2.528  0.00  0.00    +0.222 C 
ATOM      3  O   UNL     1       5.035  -2.543   1.475  0.00  0.00    -0.275 OA
ENDROOT
BRANCH   1   6
ATOM      4  N   UNL     1       1.250  -2.912   4.053  0.00  0.00    -0.280 N 
ATOM      5  C   UNL     1       2.608  -2.744   4.198  0.00  0.00    +0.127 A 
ATOM      6  C   UNL     1       3.466  -3.489   3.416  0.00  0.00    +0.140 A 
ATOM      7  C   UNL     1       2.923  -4.400   2.490  0.00  0.00    +0.277 A 
ATOM      8  O   UNL     1       3.659  -5.071   1.786  0.00  0.00    -0.266 OA
ATOM      9  N   UNL     1       1.586  -4.526   2.387  0.00  0.00    -0.273 N 
ATOM     10  H   UNL     1       1.211  -5.154   1.750  0.00  0.00    +0.173 HD
ATOM     11  C   UNL     1       0.765  -3.796   3.163  0.00  0.00    +0.331 A 
ATOM     12  O   UNL     1      -0.439  -3.933   3.053  0.00  0.00    -0.246 OA
BRANCH   5  13
ATOM     13  N   UNL     1       3.104  -1.845   5.112  0.00  0.00    -0.343 N 
ATOM     14  H   UNL     1       2.496  -1.283   5.618  0.00  0.00    +0.144 HD
ATOM     15  H   UNL     1       4.061  -1.773   5.251  0.00  0.00    +0.144 HD
ENDBRANCH   5  13
BRANCH   4  16
ATOM     16  C   UNL     1       0.328  -2.128   4.878  0.00  0.00    +0.128 C 
BRANCH  16  17
ATOM     17  C   UNL     1       0.032  -2.886   6.174  0.00  0.00    +0.021 C 
BRANCH  17  19
ATOM     18  C   UNL     1      -1.227  -2.824   8.331  0.00  0.00    +0.004 C 
ATOM     19  C   UNL     1      -0.932  -2.067   7.035  0.00  0.00    -0.002 C 
ENDBRANCH  17  19
ENDBRANCH  16  17
ENDBRANCH   4  16
ENDBRANCH   1   6
BRANCH   1  20
ATOM     20  C   UNL     1       5.538  -3.765   4.769  0.00  0.00    +0.149 C 
BRANCH  20  21
ATOM     21  C   UNL     1       5.830  -5.242   4.697  0.00  0.00    -0.030 A 
ATOM     22  C   UNL     1       4.867  -6.155   5.084  0.00  0.00    +0.005 A 
ATOM     23  C   UNL     1       5.134  -7.510   5.018  0.00  0.00    +0.000 A 
ATOM     24  C   UNL     1       6.363  -7.951   4.565  0.00  0.00    +0.000 A 
ATOM     25  C   UNL     1       7.326  -7.037   4.178  0.00  0.00    +0.000 A 
ATOM     26  C   UNL     1       7.057  -5.683   4.240  0.00  0.00    +0.005 A 
ENDBRANCH  20  21
ENDBRANCH   1  20
BRANCH   2  27
ATOM     27  C   UNL     1       7.050  -2.535   2.705  0.00  0.00    +0.116 C 
BRANCH  27  28
ATOM     28  C   UNL     1       7.583  -1.791   1.479  0.00  0.00    +0.125 C 
BRANCH  28  29
ATOM     29  N   UNL     1       9.014  -1.528   1.651  0.00  0.00    -0.241 N 
ATOM     30  C   UNL     1       9.500  -0.403   2.242  0.00  0.00    +0.226 C 
ATOM     31  O   UNL     1       8.884   0.607   2.506  0.00  0.00    -0.275 OA
ATOM     32  C   UNL     1      10.950  -0.667   2.499  0.00  0.00    +0.087 C 
ATOM     33  C   UNL     1      11.942   0.470   2.425  0.00  0.00    +0.013 C 
ATOM     34  C   UNL     1      13.333  -0.140   2.680  0.00  0.00    +0.001 C 
ATOM     35  C   UNL     1      13.656  -1.262   1.700  0.00  0.00    +0.001 C 
ATOM     36  C   UNL     1      12.549  -2.335   1.669  0.00  0.00    +0.013 C 
ATOM     37  C   UNL     1      11.269  -1.619   1.308  0.00  0.00    +0.087 C 
ATOM     38  C   UNL     1       9.986  -2.388   1.242  0.00  0.00    +0.226 C 
ATOM     39  O   UNL     1       9.841  -3.540   0.893  0.00  0.00    -0.275 OA
ENDBRANCH  28  29
ENDBRANCH  27  28
ENDBRANCH   2  27
TORSDOF 10
