REMARK  Name = ZINC20763567
REMARK  9 active torsions:
REMARK  status: ('A' for Active; 'I' for Inactive)
REMARK    1  A    between atoms: C_1  and  C_2
REMARK    2  A    between atoms: C_2  and  C_3
REMARK    3  A    between atoms: C_3  and  C_5
REMARK    4  A    between atoms: C_3  and  C_6
REMARK    5  A    between atoms: C_6  and  C_8
REMARK    6  A    between atoms: C_6  and  N_12
REMARK    7  A    between atoms: C_8  and  O_10
REMARK    8  A    between atoms: O_10  and  C_11
REMARK    9  A    between atoms: C_24  and  C_26
REMARK                            x       y       z     vdW  Elec       q    Type
REMARK                         _______ _______ _______ _____ _____    ______ ____
ROOT
ATOM      1  N   UNL     1       2.755  -2.155   1.666  0.00  0.00    -0.286 N 
ATOM      2  C   UNL     1       2.717  -1.152   2.566  0.00  0.00    +0.304 C 
ATOM      3  O   UNL     1       2.344  -0.045   2.227  0.00  0.00    -0.253 OA
ATOM      4  N   UNL     1       3.092  -1.376   3.841  0.00  0.00    -0.273 N 
ATOM      5  C   UNL     1       2.943  -0.330   4.864  0.00  0.00    +0.116 C 
ATOM      6  C   UNL     1       1.936  -0.802   5.921  0.00  0.00    +0.074 C 
ATOM      7  C   UNL     1       2.248  -2.229   6.286  0.00  0.00    +0.040 A 
ATOM      8  C   UNL     1       3.007  -3.067   5.547  0.00  0.00    +0.062 A 
ATOM      9  N   UNL     1       3.061  -4.243   6.175  0.00  0.00    -0.348 N 
ATOM     10  C   UNL     1       2.366  -4.170   7.281  0.00  0.00    +0.171 A 
ATOM     11  N   UNL     1       1.843  -2.926   7.385  0.00  0.00    -0.349 N 
ATOM     12  H   UNL     1       1.286  -2.593   8.105  0.00  0.00    +0.166 HD
ATOM     13  C   UNL     1       3.655  -2.677   4.245  0.00  0.00    +0.156 C 
ATOM     14  H   UNL     1       2.982  -3.053   1.951  0.00  0.00    +0.151 HD
ATOM     15  H   UNL     1       3.539  -5.027   5.862  0.00  0.00    +0.167 HD
ENDROOT
BRANCH  13  16
ATOM     16  C   UNL     1       5.145  -2.553   4.436  0.00  0.00    -0.017 A 
ATOM     17  C   UNL     1       5.648  -1.721   5.418  0.00  0.00    +0.009 A 
ATOM     18  C   UNL     1       7.014  -1.605   5.598  0.00  0.00    +0.050 A 
ATOM     19  C   UNL     1       7.883  -2.322   4.792  0.00  0.00    +0.166 A 
ATOM     20  C   UNL     1       7.376  -3.161   3.802  0.00  0.00    +0.167 A 
ATOM     21  C   UNL     1       6.006  -3.277   3.631  0.00  0.00    +0.055 A 
ATOM     22  O   UNL     1       8.422  -3.749   3.151  0.00  0.00    -0.453 OA
ATOM     23  C   UNL     1       9.576  -2.954   3.480  0.00  0.00    +0.466 C 
ATOM     24  O   UNL     1       9.246  -2.386   4.762  0.00  0.00    -0.453 OA
ENDBRANCH  13  16
BRANCH   1  25
ATOM     25  C   UNL     1       2.454  -1.887   0.258  0.00  0.00    +0.186 C 
BRANCH  25  26
ATOM     26  C   UNL     1       3.719  -1.399  -0.451  0.00  0.00    +0.017 C 
ATOM     27  C   UNL     1       4.851  -2.403  -0.223  0.00  0.00    +0.010 C 
BRANCH  26  29
ATOM     28  C   UNL     1       3.065   1.004  -0.252  0.00  0.00    +0.004 C 
ATOM     29  C   UNL     1       4.126  -0.036   0.113  0.00  0.00    +0.002 C 
ENDBRANCH  26  29
ENDBRANCH  25  26
BRANCH  25  30
ATOM     30  C   UNL     1       1.965  -3.151  -0.401  0.00  0.00    +0.328 C 
ATOM     31  O   UNL     1       2.219  -4.225   0.091  0.00  0.00    -0.249 OA
BRANCH  30  32
ATOM     32  O   UNL     1       1.248  -3.084  -1.533  0.00  0.00    -0.467 OA
ATOM     33  C   UNL     1       0.727  -4.312  -2.045  0.00  0.00    +0.280 C 
ENDBRANCH  30  32
ENDBRANCH  25  30
ENDBRANCH   1  25
TORSDOF 6
