REMARK  Name = ZINC41581395
REMARK  4 active torsions:
REMARK  status: ('A' for Active; 'I' for Inactive)
REMARK    1  A    between atoms: C_1  and  C_2
REMARK    2  A    between atoms: N_6  and  C_14
REMARK    3  A    between atoms: C_14  and  C_16
REMARK    4  A    between atoms: C_14  and  C_17
REMARK                            x       y       z     vdW  Elec       q    Type
REMARK                         _______ _______ _______ _____ _____    ______ ____
ROOT
ATOM      1  C   UNL     1      -0.181   1.362   0.006  0.00  0.00    +0.029 C 
ATOM      2  C   UNL     1      -0.001  -0.156   0.060  0.00  0.00    +0.135 C 
ATOM      3  C   UNL     1       0.708  -0.625  -1.181  0.00  0.00    +0.234 C 
ATOM      4  O   UNL     1       0.036  -1.012  -2.113  0.00  0.00    -0.274 OA
ATOM      5  N   UNL     1       2.032  -0.637  -1.312  0.00  0.00    -0.256 N 
ATOM      6  C   UNL     1       2.958  -0.223  -0.359  0.00  0.00    +0.051 A 
ATOM      7  C   UNL     1       4.240   0.136  -0.762  0.00  0.00    +0.024 A 
ATOM      8  C   UNL     1       5.173   0.544   0.171  0.00  0.00    +0.002 A 
ATOM      9  C   UNL     1       4.845   0.601   1.513  0.00  0.00    +0.001 A 
ATOM     10  C   UNL     1       3.573   0.249   1.927  0.00  0.00    +0.016 A 
ATOM     11  C   UNL     1       2.633  -0.159   0.996  0.00  0.00    +0.030 A 
ATOM     12  S   UNL     1       0.999  -0.600   1.513  0.00  0.00    -0.111 S 
ENDROOT
BRANCH   5  13
ATOM     13  C   UNL     1       2.566  -1.135  -2.583  0.00  0.00    +0.191 C 
ATOM     14  C   UNL     1       2.079  -2.566  -2.815  0.00  0.00    +0.040 C 
BRANCH  13  15
ATOM     15  C   UNL     1       2.090  -0.253  -3.708  0.00  0.00    +0.376 C 
ATOM     16  O   UNL     1       1.371   0.703  -3.471  0.00  0.00    -0.244 OA
ATOM     17  O   UNL     1       2.424  -0.495  -4.855  0.00  0.00    -0.244 OA
ENDBRANCH  13  15
ENDBRANCH   5  13
TORSDOF 2
