REMARK  Name = ZINC36486073
REMARK  15 active torsions:
REMARK  status: ('A' for Active; 'I' for Inactive)
REMARK    1  A    between atoms: C_1  and  C_2
REMARK    2  A    between atoms: C_2  and  C_4
REMARK    3  A    between atoms: C_2  and  C_33
REMARK    4  A    between atoms: C_4  and  C_5
REMARK    5  A    between atoms: N_7  and  C_8
REMARK    6  A    between atoms: N_7  and  C_15
REMARK    7  A    between atoms: C_15  and  C_17
REMARK    8  A    between atoms: C_15  and  C_26
REMARK    9  A    between atoms: C_18  and  O_25
REMARK   10  A    between atoms: C_20  and  O_24
REMARK   11  A    between atoms: C_22  and  O_23
REMARK   12  A    between atoms: N_28  and  C_29
REMARK   13  A    between atoms: C_29  and  C_30
REMARK   14  A    between atoms: C_29  and  C_31
REMARK   15  A    between atoms: C_29  and  C_32
REMARK                            x       y       z     vdW  Elec       q    Type
REMARK                         _______ _______ _______ _____ _____    ______ ____
ROOT
ATOM      1  C   UNL     1       4.392   0.225   2.125  0.00  0.00    +0.204 C 
ENDROOT
BRANCH   1   2
ATOM      2  C   UNL     1       4.490  -0.964   1.204  0.00  0.00    +0.065 A 
ATOM      3  C   UNL     1       3.615  -2.029   1.351  0.00  0.00    +0.129 A 
ATOM      4  C   UNL     1       3.705  -3.123   0.503  0.00  0.00    +0.091 A 
ATOM      5  C   UNL     1       4.672  -3.152  -0.491  0.00  0.00    +0.124 A 
ATOM      6  C   UNL     1       5.547  -2.086  -0.638  0.00  0.00    +0.091 A 
ATOM      7  C   UNL     1       5.453  -0.990   0.206  0.00  0.00    +0.129 A 
BRANCH   7   8
ATOM      8  O   UNL     1       6.308   0.056   0.059  0.00  0.00    -0.506 OA
ATOM      9  H   UNL     1       7.122  -0.026   0.574  0.00  0.00    +0.292 HD
ENDBRANCH   7   8
BRANCH   5  10
ATOM     10  O   UNL     1       4.761  -4.224  -1.321  0.00  0.00    -0.507 OA
ATOM     11  H   UNL     1       4.223  -4.149  -2.121  0.00  0.00    +0.292 HD
ENDBRANCH   5  10
BRANCH   3  12
ATOM     12  O   UNL     1       2.668  -2.001   2.325  0.00  0.00    -0.506 OA
ATOM     13  H   UNL     1       1.814  -1.653   2.034  0.00  0.00    +0.292 HD
ENDBRANCH   3  12
ENDBRANCH   1   2
BRANCH   1  14
ATOM     14  C   UNL     1       4.936  -0.144   3.481  0.00  0.00    +0.239 C 
ATOM     15  O   UNL     1       4.236  -0.737   4.274  0.00  0.00    -0.273 OA
ATOM     16  N   UNL     1       6.200   0.185   3.813  0.00  0.00    -0.309 N 
ATOM     17  H   UNL     1       6.760   0.660   3.178  0.00  0.00    +0.149 HD
BRANCH  16  18
ATOM     18  C   UNL     1       6.728  -0.173   5.131  0.00  0.00    +0.026 C 
ATOM     19  C   UNL     1       6.686  -1.693   5.302  0.00  0.00    +0.031 C 
ATOM     20  C   UNL     1       8.174   0.313   5.250  0.00  0.00    +0.031 C 
ATOM     21  C   UNL     1       5.878   0.486   6.218  0.00  0.00    +0.031 C 
ENDBRANCH  16  18
ENDBRANCH   1  14
BRANCH   1  24
ATOM     22  C   UNL     1       2.217   0.742   1.155  0.00  0.00    +0.221 C 
ATOM     23  O   UNL     1       2.655   0.423   0.070  0.00  0.00    -0.275 OA
ATOM     24  N   UNL     1       2.989   0.627   2.254  0.00  0.00    -0.255 N 
BRANCH  24  25
ATOM     25  C   UNL     1       2.451   0.893   3.518  0.00  0.00    +0.039 A 
ATOM     26  C   UNL     1       2.872   2.007   4.234  0.00  0.00    +0.023 A 
ATOM     27  C   UNL     1       2.339   2.267   5.481  0.00  0.00    +0.003 A 
ATOM     28  C   UNL     1       1.387   1.420   6.019  0.00  0.00    +0.020 A 
ATOM     29  C   UNL     1       0.966   0.309   5.309  0.00  0.00    +0.043 A 
ATOM     30  C   UNL     1       1.492   0.047   4.057  0.00  0.00    +0.043 A 
ATOM     31 CL   UNL     1      -0.229  -0.752   5.988  0.00  0.00    -0.083 Cl
ENDBRANCH  24  25
BRANCH  22  32
ATOM     32  C   UNL     1       0.809   1.266   1.275  0.00  0.00    +0.104 C 
BRANCH  32  34
ATOM     33  C   UNL     1       0.958   2.467  -0.911  0.00  0.00    +0.013 C 
ATOM     34  C   UNL     1       0.195   1.402  -0.120  0.00  0.00    +0.025 C 
BRANCH  34  35
ATOM     35  C   UNL     1      -1.250   1.809   0.005  0.00  0.00    -0.044 A 
ATOM     36  C   UNL     1      -1.583   2.997   0.629  0.00  0.00    +0.004 A 
ATOM     37  C   UNL     1      -2.909   3.370   0.743  0.00  0.00    +0.000 A 
ATOM     38  C   UNL     1      -3.903   2.555   0.234  0.00  0.00    +0.000 A 
ATOM     39  C   UNL     1      -3.570   1.367  -0.390  0.00  0.00    +0.000 A 
ATOM     40  C   UNL     1      -2.244   0.997  -0.508  0.00  0.00    +0.004 A 
ENDBRANCH  34  35
ENDBRANCH  32  34
ENDBRANCH  22  32
ENDBRANCH   1  24
TORSDOF 11
