REMARK  Name = ZINC05225389
REMARK  13 active torsions:
REMARK  status: ('A' for Active; 'I' for Inactive)
REMARK    1  A    between atoms: C_1  and  C_2
REMARK    2  A    between atoms: C_2  and  C_8
REMARK    3  A    between atoms: N_3  and  O_4
REMARK    4  A    between atoms: O_4  and  C_5
REMARK    5  A    between atoms: C_5  and  C_7
REMARK    6  A    between atoms: C_14  and  C_35
REMARK    7  A    between atoms: C_24  and  C_34
REMARK    8  A    between atoms: C_27  and  O_30
REMARK    9  A    between atoms: O_30  and  C_31
REMARK   10  A    between atoms: C_31  and  C_33
REMARK   11  A    between atoms: C_36  and  C_39
REMARK   12  A    between atoms: C_39  and  O_41
REMARK   13  A    between atoms: O_41  and  C_42
REMARK                            x       y       z     vdW  Elec       q    Type
REMARK                         _______ _______ _______ _____ _____    ______ ____
ROOT
ATOM      1  C   UNL     1      -2.273   1.657   1.374  0.00  0.00    +0.193 C 
ATOM      2  C   UNL     1      -3.071   0.343   1.157  0.00  0.00    +0.101 C 
ATOM      3  C   UNL     1      -4.384   0.480   1.938  0.00  0.00    +0.019 C 
ATOM      4  C   UNL     1      -4.387   1.894   2.561  0.00  0.00    +0.004 C 
ATOM      5  C   UNL     1      -2.930   2.312   2.602  0.00  0.00    +0.020 C 
ATOM      6  C   UNL     1      -2.675   3.796   2.649  0.00  0.00    +0.011 C 
ATOM      7  C   UNL     1      -3.534   4.551   1.644  0.00  0.00    +0.005 C 
ATOM      8  C   UNL     1      -5.012   4.270   1.937  0.00  0.00    +0.003 C 
ATOM      9  C   UNL     1      -5.292   2.785   1.730  0.00  0.00    +0.000 C 
ATOM     10  C   UNL     1      -6.741   2.496   2.100  0.00  0.00    +0.031 C 
ATOM     11  C   UNL     1      -7.653   3.439   1.374  0.00  0.00    -0.027 C 
ATOM     12  C   UNL     1      -7.268   4.570   0.875  0.00  0.00    -0.064 C 
ATOM     13  C   UNL     1      -5.863   5.097   0.979  0.00  0.00    -0.008 C 
ATOM     14  C   UNL     1      -5.242   5.121  -0.416  0.00  0.00    +0.015 C 
ATOM     15  C   UNL     1      -6.319   5.310  -1.474  0.00  0.00    +0.046 C 
ATOM     16  C   UNL     1      -7.454   6.193  -0.958  0.00  0.00    +0.180 C 
ATOM     17  C   UNL     1      -8.258   5.426   0.102  0.00  0.00    +0.075 C 
ATOM     18  C   UNL     1      -5.923   6.533   1.504  0.00  0.00    +0.016 C 
ATOM     19  C   UNL     1      -2.313   1.685   3.854  0.00  0.00    +0.016 C 
ATOM     20  C   UNL     1      -3.323   0.339  -0.334  0.00  0.00    +0.171 C 
ATOM     21  N   UNL     1      -3.044   1.507  -0.801  0.00  0.00    -0.081 NA
ATOM     22  O   UNL     1      -2.615   2.432   0.207  0.00  0.00    -0.379 OA
ENDROOT
BRANCH   1  24
ATOM     23  C   UNL     1      -0.281   0.231   2.274  0.00  0.00    +0.068 C 
ATOM     24  C   UNL     1      -0.790   1.442   1.536  0.00  0.00    +0.102 C 
ATOM     25  N   UNL     1       0.036   2.287   1.046  0.00  0.00    -0.080 NA
BRANCH  25  26
ATOM     26  O   UNL     1      -0.375   3.295   0.500  0.00  0.00    -0.318 OA
BRANCH  26  27
ATOM     27  C   UNL     1       0.542   4.188   0.098  0.00  0.00    +0.333 C 
ATOM     28  O   UNL     1       1.719   3.934   0.201  0.00  0.00    -0.249 OA
ATOM     29  C   UNL     1       0.105   5.509  -0.482  0.00  0.00    +0.138 C 
ENDBRANCH  26  27
ENDBRANCH  25  26
ENDBRANCH   1  24
BRANCH  20  30
ATOM     30  C   UNL     1      -3.807  -0.810  -1.121  0.00  0.00    +0.357 C 
ATOM     31  O   UNL     1      -4.038  -1.869  -0.572  0.00  0.00    -0.243 OA
BRANCH  30  32
ATOM     32  O   UNL     1      -3.993  -0.686  -2.450  0.00  0.00    -0.464 OA
ATOM     33  C   UNL     1      -4.471  -1.858  -3.162  0.00  0.00    +0.280 C 
ENDBRANCH  30  32
ENDBRANCH  20  30
BRANCH  16  34
ATOM     34  O   UNL     1      -6.899   7.398  -0.367  0.00  0.00    -0.461 OA
BRANCH  34  35
ATOM     35  C   UNL     1      -7.651   8.508  -0.428  0.00  0.00    +0.304 C 
ATOM     36  O   UNL     1      -8.736   8.474  -0.959  0.00  0.00    -0.251 OA
ATOM     37  C   UNL     1      -7.141   9.797   0.164  0.00  0.00    +0.136 C 
ENDBRANCH  34  35
ENDBRANCH  16  34
TORSDOF 7
