REMARK  Name = ZINC11002190
REMARK  9 active torsions:
REMARK  status: ('A' for Active; 'I' for Inactive)
REMARK    1  A    between atoms: C_1  and  C_2
REMARK    2  A    between atoms: C_5  and  N_9
REMARK    3  A    between atoms: C_7  and  C_8
REMARK    4  A    between atoms: C_19  and  S_20
REMARK    5  A    between atoms: S_20  and  C_21
REMARK    6  A    between atoms: C_21  and  C_23
REMARK    7  A    between atoms: C_21  and  C_24
REMARK    8  A    between atoms: N_26  and  C_27
REMARK    9  A    between atoms: C_29  and  C_32
REMARK                            x       y       z     vdW  Elec       q    Type
REMARK                         _______ _______ _______ _____ _____    ______ ____
ROOT
ATOM      1  N   UNL     1       2.404   1.106  -0.015  0.00  0.00    -0.255 N 
ATOM      2  C   UNL     1       3.559   1.802  -0.130  0.00  0.00    +0.267 A 
ATOM      3  O   UNL     1       3.557   3.015  -0.221  0.00  0.00    -0.267 OA
ATOM      4  C   UNL     1       4.814   1.039  -0.136  0.00  0.00    +0.065 A 
ATOM      5  C   UNL     1       6.055   1.665  -0.246  0.00  0.00    +0.015 A 
ATOM      6  C   UNL     1       7.193   0.906  -0.252  0.00  0.00    +0.001 A 
ATOM      7  C   UNL     1       7.125  -0.477  -0.151  0.00  0.00    +0.002 A 
ATOM      8  C   UNL     1       5.923  -1.116  -0.042  0.00  0.00    +0.028 A 
ATOM      9  C   UNL     1       4.741  -0.369  -0.032  0.00  0.00    +0.079 A 
ATOM     10  N   UNL     1       3.528  -0.961   0.074  0.00  0.00    -0.223 NA
ATOM     11  C   UNL     1       2.422  -0.259   0.082  0.00  0.00    +0.177 A 
ENDROOT
BRANCH   1  16
ATOM     12  C   UNL     1      -2.552   3.869   0.046  0.00  0.00    +0.044 C 
ATOM     13  C   UNL     1      -1.236   3.135   0.030  0.00  0.00    -0.047 A 
ATOM     14  C   UNL     1      -0.574   2.880   1.217  0.00  0.00    +0.005 A 
ATOM     15  C   UNL     1       0.636   2.213   1.205  0.00  0.00    +0.026 A 
ATOM     16  C   UNL     1       1.180   1.787   0.000  0.00  0.00    +0.052 A 
ATOM     17  C   UNL     1       0.509   2.039  -1.189  0.00  0.00    +0.030 A 
ATOM     18  C   UNL     1      -0.697   2.711  -1.171  0.00  0.00    -0.046 A 
ATOM     19  C   UNL     1      -1.426   2.985  -2.461  0.00  0.00    +0.044 C 
ENDBRANCH   1  16
BRANCH  11  20
ATOM     20  S   UNL     1       0.886  -1.111   0.223  0.00  0.00    -0.075 S 
BRANCH  20  21
ATOM     21  C   UNL     1       1.482  -2.818   0.314  0.00  0.00    +0.137 C 
ATOM     22  C   UNL     1       2.293  -3.008   1.597  0.00  0.00    +0.029 C 
BRANCH  21  23
ATOM     23  C   UNL     1       0.307  -3.761   0.318  0.00  0.00    +0.233 C 
ATOM     24  O   UNL     1      -0.794  -3.356   0.627  0.00  0.00    -0.274 OA
ATOM     25  N   UNL     1       0.478  -5.054  -0.021  0.00  0.00    -0.253 N 
ATOM     26  H   UNL     1       1.359  -5.378  -0.269  0.00  0.00    +0.158 HD
BRANCH  25  27
ATOM     27  C   UNL     1      -0.604  -5.922  -0.017  0.00  0.00    +0.224 A 
ATOM     28  C   UNL     1      -0.591  -7.250  -0.334  0.00  0.00    +0.092 A 
ATOM     29  C   UNL     1      -1.931  -7.651  -0.169  0.00  0.00    +0.082 A 
ATOM     30  N   UNL     1      -2.592  -6.593   0.210  0.00  0.00    -0.081 NA
ATOM     31  O   UNL     1      -1.873  -5.625   0.305  0.00  0.00    -0.339 OA
ATOM     32  C   UNL     1      -2.492  -9.033  -0.387  0.00  0.00    +0.069 C 
ENDBRANCH  25  27
ENDBRANCH  21  23
ENDBRANCH  20  21
ENDBRANCH  11  20
TORSDOF 5
