REMARK  Name = ZINC36519134
REMARK  14 active torsions:
REMARK  status: ('A' for Active; 'I' for Inactive)
REMARK    1  A    between atoms: C_1  and  C_2
REMARK    2  A    between atoms: C_2  and  C_3
REMARK    3  A    between atoms: C_3  and  C_4
REMARK    4  A    between atoms: C_4  and  C_5
REMARK    5  A    between atoms: C_5  and  C_6
REMARK    6  A    between atoms: C_6  and  N_7
REMARK    7  A    between atoms: N_7  and  C_8
REMARK    8  A    between atoms: C_8  and  C_10
REMARK    9  A    between atoms: C_8  and  C_16
REMARK   10  A    between atoms: N_18  and  C_19
REMARK   11  A    between atoms: C_19  and  S_20
REMARK   12  A    between atoms: S_20  and  C_23
REMARK   13  A    between atoms: C_26  and  C_29
REMARK   14  A    between atoms: C_30  and  C_32
REMARK                            x       y       z     vdW  Elec       q    Type
REMARK                         _______ _______ _______ _____ _____    ______ ____
ROOT
ATOM      1  C   UNL     1      -4.924  -4.846  -1.266  0.00  0.00    +0.165 C 
ENDROOT
BRANCH   1   2
ATOM      2  C   UNL     1      -5.119  -6.325  -0.926  0.00  0.00    +0.018 C 
ATOM      3  C   UNL     1      -3.773  -7.048  -1.007  0.00  0.00    +0.006 C 
ATOM      4  C   UNL     1      -3.967  -8.527  -0.667  0.00  0.00    +0.000 C 
ATOM      5  C   UNL     1      -4.944  -9.155  -1.663  0.00  0.00    +0.000 C 
ATOM      6  C   UNL     1      -6.290  -8.432  -1.582  0.00  0.00    +0.000 C 
ATOM      7  C   UNL     1      -6.096  -6.953  -1.922  0.00  0.00    +0.006 C 
ENDBRANCH   1   2
BRANCH   1   8
ATOM      8  C   UNL     1      -6.223  -4.109  -1.065  0.00  0.00    +0.235 C 
ATOM      9  O   UNL     1      -6.368  -3.388  -0.100  0.00  0.00    -0.274 OA
ATOM     10  N   UNL     1      -7.224  -4.252  -1.956  0.00  0.00    -0.295 N 
ATOM     11  H   UNL     1      -7.137  -4.885  -2.685  0.00  0.00    +0.150 HD
BRANCH  10  12
ATOM     12  C   UNL     1      -8.443  -3.450  -1.823  0.00  0.00    +0.278 C 
BRANCH  12  13
ATOM     13  S   UNL     1      -8.309  -1.969  -2.862  0.00  0.00    +0.013 S 
ATOM     14  O   UNL     1      -9.510  -1.213  -2.793  0.00  0.00    -0.168 OA
ATOM     15  O   UNL     1      -7.048  -1.345  -2.666  0.00  0.00    -0.168 OA
BRANCH  13  16
ATOM     16  C   UNL     1      -8.256  -2.579  -4.515  0.00  0.00    +0.090 A 
ATOM     17  C   UNL     1      -7.042  -2.888  -5.099  0.00  0.00    +0.027 A 
ATOM     18  C   UNL     1      -7.000  -3.366  -6.395  0.00  0.00    +0.005 A 
ATOM     19  C   UNL     1      -8.173  -3.536  -7.107  0.00  0.00    -0.050 A 
ATOM     20  C   UNL     1      -9.387  -3.228  -6.523  0.00  0.00    +0.005 A 
ATOM     21  C   UNL     1      -9.429  -2.754  -5.225  0.00  0.00    +0.027 A 
ATOM     22  C   UNL     1      -8.128  -4.057  -8.521  0.00  0.00    +0.044 C 
ENDBRANCH  13  16
ENDBRANCH  12  13
ENDBRANCH  10  12
ENDBRANCH   1   8
BRANCH   1  23
ATOM     23  N   UNL     1      -3.898  -4.274  -0.390  0.00  0.00    -0.288 N 
ATOM     24  C   UNL     1      -4.072  -4.281   0.946  0.00  0.00    +0.237 C 
ATOM     25  O   UNL     1      -5.079  -4.760   1.424  0.00  0.00    -0.274 OA
BRANCH  24  26
ATOM     26  C   UNL     1      -3.017  -3.694   1.847  0.00  0.00    +0.159 C 
ATOM     27  C   UNL     1      -1.875  -4.711   2.067  0.00  0.00    +0.041 C 
ATOM     28  C   UNL     1      -2.321  -5.406   3.374  0.00  0.00    +0.098 C 
ATOM     29  C   UNL     1      -3.203  -4.384   4.056  0.00  0.00    +0.214 C 
ATOM     30  O   UNL     1      -3.529  -4.416   5.224  0.00  0.00    -0.276 OA
ATOM     31  N   UNL     1      -3.574  -3.433   3.179  0.00  0.00    -0.304 N 
ATOM     32  H   UNL     1      -4.136  -2.673   3.398  0.00  0.00    +0.149 HD
ENDBRANCH  24  26
BRANCH  23  33
ATOM     33  C   UNL     1      -2.682  -3.696  -0.967  0.00  0.00    +0.108 C 
BRANCH  33  34
ATOM     34  C   UNL     1      -2.908  -2.208  -1.246  0.00  0.00    +0.019 C 
BRANCH  34  35
ATOM     35  C   UNL     1      -1.638  -1.604  -1.849  0.00  0.00    +0.002 C 
BRANCH  35  36
ATOM     36  C   UNL     1      -1.864  -0.117  -2.128  0.00  0.00    -0.000 C 
BRANCH  36  38
ATOM     37  C   UNL     1      -0.820   1.975  -3.010  0.00  0.00    +0.004 C 
ATOM     38  C   UNL     1      -0.594   0.488  -2.731  0.00  0.00    -0.003 C 
ENDBRANCH  36  38
ENDBRANCH  35  36
ENDBRANCH  34  35
ENDBRANCH  33  34
ENDBRANCH  23  33
ENDBRANCH   1  23
TORSDOF 12
