REMARK  Name = ZINC35778915
REMARK  15 active torsions:
REMARK  status: ('A' for Active; 'I' for Inactive)
REMARK    1  A    between atoms: C_1  and  C_2
REMARK    2  A    between atoms: C_2  and  O_3
REMARK    3  A    between atoms: O_3  and  C_4
REMARK    4  A    between atoms: C_4  and  C_5
REMARK    5  A    between atoms: C_5  and  C_7
REMARK    6  A    between atoms: C_5  and  O_37
REMARK    7  A    between atoms: C_7  and  N_8
REMARK    8  A    between atoms: N_8  and  C_9
REMARK    9  A    between atoms: N_8  and  C_15
REMARK   10  A    between atoms: C_9  and  C_10
REMARK   11  A    between atoms: C_15  and  C_16
REMARK   12  A    between atoms: C_26  and  C_28
REMARK   13  A    between atoms: C_28  and  O_29
REMARK   14  A    between atoms: O_29  and  C_30
REMARK   15  A    between atoms: C_34  and  C_36
REMARK                            x       y       z     vdW  Elec       q    Type
REMARK                         _______ _______ _______ _____ _____    ______ ____
ROOT
ATOM      1  C   UNL     1       2.690  -5.520   5.733  0.00  0.00    +0.200 C 
ATOM      2  O   UNL     1       3.034  -4.593   6.435  0.00  0.00    -0.278 OA
ATOM      3  N   UNL     1       2.777  -6.783   6.195  0.00  0.00    -0.292 N 
ATOM      4  C   UNL     1       2.369  -7.916   5.350  0.00  0.00    +0.113 C 
ATOM      5  C   UNL     1       3.612  -8.770   5.056  0.00  0.00    +0.061 C 
ATOM      6  C   UNL     1       4.402  -8.917   6.315  0.00  0.00    -0.004 A 
ATOM      7  C   UNL     1       4.305  -8.178   7.454  0.00  0.00    -0.014 A 
ATOM      8  C   UNL     1       5.171  -8.514   8.493  0.00  0.00    +0.013 A 
ATOM      9  C   UNL     1       6.046  -9.534   8.342  0.00  0.00    +0.046 A 
ATOM     10  S   UNL     1       5.684 -10.086   6.682  0.00  0.00    -0.101 S 
ATOM     11  C   UNL     1       3.287  -7.048   7.547  0.00  0.00    +0.144 C 
ENDROOT
BRANCH   1  12
ATOM     12  C   UNL     1       2.165  -5.260   4.344  0.00  0.00    +0.019 C 
BRANCH  12  13
ATOM     13  N   UNL     1       2.299  -3.832   4.030  0.00  0.00    +0.392 N 
ATOM     14  H   UNL     1       1.866  -3.285   4.759  0.00  0.00    -0.080 HD
BRANCH  13  15
ATOM     15  C   UNL     1       3.723  -3.482   3.935  0.00  0.00    -0.044 C 
BRANCH  15  16
ATOM     16  C   UNL     1       3.865  -1.973   3.732  0.00  0.00    +0.124 C 
BRANCH  16  17
ATOM     17  O   UNL     1       3.384  -1.288   4.890  0.00  0.00    -0.391 OA
ATOM     18  H   UNL     1       3.856  -1.512   5.704  0.00  0.00    +0.210 HD
ENDBRANCH  16  17
BRANCH  16  19
ATOM     19  C   UNL     1       5.338  -1.625   3.509  0.00  0.00    +0.189 C 
BRANCH  19  20
ATOM     20  O   UNL     1       5.458  -0.234   3.203  0.00  0.00    -0.378 OA
BRANCH  20  22
ATOM     21  C   UNL     1       6.810   1.694   2.660  0.00  0.00    +0.034 C 
ATOM     22  C   UNL     1       6.802   0.197   2.976  0.00  0.00    +0.156 C 
ENDBRANCH  20  22
ENDBRANCH  19  20
ENDBRANCH  16  19
ENDBRANCH  15  16
ENDBRANCH  13  15
BRANCH  13  23
ATOM     23  C   UNL     1       1.639  -3.549   2.748  0.00  0.00    -0.002 C 
BRANCH  23  24
ATOM     24  C   UNL     1       0.157  -3.785   2.882  0.00  0.00    +0.089 A 
ATOM     25  C   UNL     1      -0.741  -2.902   3.353  0.00  0.00    +0.042 A 
ATOM     26  C   UNL     1      -2.004  -3.536   3.304  0.00  0.00    +0.041 A 
ATOM     27  C   UNL     1      -1.802  -4.769   2.806  0.00  0.00    +0.195 A 
ATOM     28  O   UNL     1      -0.491  -4.913   2.547  0.00  0.00    -0.470 OA
ENDBRANCH  23  24
ENDBRANCH  13  23
ENDBRANCH  12  13
ENDBRANCH   1  12
BRANCH  11  29
ATOM     29  C   UNL     1       2.136  -7.469   8.462  0.00  0.00    +0.256 C 
BRANCH  29  30
ATOM     30  O   UNL     1       1.601  -8.716   8.012  0.00  0.00    -0.490 OA
BRANCH  30  31
ATOM     31  C   UNL     1       0.564  -9.233   8.721  0.00  0.00    +0.121 A 
ATOM     32  C   UNL     1       0.066  -8.553   9.823  0.00  0.00    +0.045 A 
ATOM     33  C   UNL     1      -0.989  -9.081  10.541  0.00  0.00    +0.004 A 
ATOM     34  C   UNL     1      -1.549 -10.287  10.163  0.00  0.00    +0.003 A 
ATOM     35  C   UNL     1      -1.055 -10.967   9.066  0.00  0.00    -0.047 A 
ATOM     36  C   UNL     1      -0.004 -10.441   8.340  0.00  0.00    +0.049 A 
ATOM     37  C   UNL     1      -1.668 -12.282   8.656  0.00  0.00    +0.044 C 
ENDBRANCH  30  31
ENDBRANCH  29  30
ENDBRANCH  11  29
TORSDOF 13
