REMARK  Name = ZINC67323654
REMARK  5 active torsions:
REMARK  status: ('A' for Active; 'I' for Inactive)
REMARK    1  A    between atoms: C_1  and  O_2
REMARK    2  A    between atoms: O_2  and  C_3
REMARK    3  A    between atoms: N_5  and  C_6
REMARK    4  A    between atoms: C_8  and  N_13
REMARK    5  A    between atoms: N_16  and  C_17
REMARK                            x       y       z     vdW  Elec       q    Type
REMARK                         _______ _______ _______ _____ _____    ______ ____
ROOT
ATOM      1  N   UNL     1       2.808  -1.749  -5.373  0.00  0.00    -0.269 N 
ATOM      2  C   UNL     1       3.214  -2.385  -6.490  0.00  0.00    +0.304 C 
ATOM      3  O   UNL     1       3.173  -3.599  -6.547  0.00  0.00    -0.252 OA
ATOM      4  N   UNL     1       3.666  -1.675  -7.543  0.00  0.00    -0.292 N 
ATOM      5  H   UNL     1       2.910  -0.788  -5.298  0.00  0.00    +0.156 HD
ATOM      6  H   UNL     1       3.699  -0.707  -7.497  0.00  0.00    +0.151 HD
ENDROOT
BRANCH   4   7
ATOM      7  C   UNL     1       4.107  -2.366  -8.757  0.00  0.00    +0.105 C 
ATOM      8  C   UNL     1       4.011  -1.423  -9.975  0.00  0.00    +0.032 C 
ATOM      9  C   UNL     1       5.222  -1.859 -10.828  0.00  0.00    +0.037 C 
ATOM     10  C   UNL     1       6.213  -2.438  -9.841  0.00  0.00    -0.042 A 
ATOM     11  C   UNL     1       5.572  -2.732  -8.650  0.00  0.00    -0.024 A 
ATOM     12  C   UNL     1       6.287  -3.276  -7.597  0.00  0.00    +0.006 A 
ATOM     13  C   UNL     1       7.638  -3.529  -7.730  0.00  0.00    +0.000 A 
ATOM     14  C   UNL     1       8.280  -3.238  -8.919  0.00  0.00    +0.000 A 
ATOM     15  C   UNL     1       7.568  -2.690  -9.974  0.00  0.00    +0.004 A 
ENDBRANCH   4   7
BRANCH   1  18
ATOM     16  C   UNL     1       1.886  -2.803  -1.967  0.00  0.00    +0.073 A 
ATOM     17  C   UNL     1       2.451  -2.081  -3.008  0.00  0.00    +0.049 A 
ATOM     18  C   UNL     1       2.240  -2.478  -4.320  0.00  0.00    +0.037 A 
ATOM     19  C   UNL     1       1.463  -3.597  -4.590  0.00  0.00    +0.026 A 
ATOM     20  C   UNL     1       0.900  -4.316  -3.553  0.00  0.00    +0.042 A 
ATOM     21  C   UNL     1       1.113  -3.926  -2.243  0.00  0.00    +0.145 A 
ATOM     22  F   UNL     1       0.567  -4.634  -1.230  0.00  0.00    -0.204 F 
BRANCH  16  25
ATOM     23  C   UNL     1       2.239  -1.099  -0.344  0.00  0.00    +0.404 C 
ATOM     24  O   UNL     1       2.265  -0.273  -1.234  0.00  0.00    -0.226 OA
ATOM     25  N   UNL     1       2.098  -2.406  -0.641  0.00  0.00    -0.248 N 
ATOM     26  H   UNL     1       2.144  -3.071   0.063  0.00  0.00    +0.158 HD
BRANCH  23  28
ATOM     27  C   UNL     1       2.496   0.692   1.183  0.00  0.00    +0.282 C 
ATOM     28  O   UNL     1       2.350  -0.709   0.941  0.00  0.00    -0.453 OA
ENDBRANCH  23  28
ENDBRANCH  16  25
ENDBRANCH   1  18
TORSDOF 4
