REMARK  Name = ZINC38743615
REMARK  5 active torsions:
REMARK  status: ('A' for Active; 'I' for Inactive)
REMARK    1  A    between atoms: C_1  and  O_2
REMARK    2  A    between atoms: O_2  and  C_3
REMARK    3  A    between atoms: C_6  and  C_9
REMARK    4  A    between atoms: C_11  and  C_15
REMARK    5  A    between atoms: C_23  and  C_25
REMARK                            x       y       z     vdW  Elec       q    Type
REMARK                         _______ _______ _______ _____ _____    ______ ____
ROOT
ATOM      1  C   UNL     1      -7.097  -4.886  -1.204  0.00  0.00    +0.206 C 
ATOM      2  N   UNL     1      -6.778  -4.098  -2.419  0.00  0.00    -0.231 NA
ATOM      3  N   UNL     1      -8.066  -3.717  -3.022  0.00  0.00    -0.224 NA
ATOM      4  C   UNL     1      -8.995  -3.760  -1.875  0.00  0.00    +0.240 C 
ATOM      5  N   UNL     1      -8.570  -5.032  -1.199  0.00  0.00    -0.206 N 
ATOM      6  N   UNL     1      -9.616  -5.879  -0.904  0.00  0.00    -0.173 NA
ATOM      7  C   UNL     1     -10.798  -5.756  -1.436  0.00  0.00    +0.125 C 
ATOM      8  S   UNL     1     -10.689  -4.215  -2.399  0.00  0.00    -0.063 S 
ATOM      9  H   UNL     1      -6.231  -3.282  -2.187  0.00  0.00    +0.143 HD
ATOM     10  H   UNL     1      -8.020  -2.789  -3.416  0.00  0.00    +0.144 HD
ENDROOT
BRANCH   7  11
ATOM     11  C   UNL     1     -11.963  -6.654  -1.285  0.00  0.00    +0.012 A 
ATOM     12  C   UNL     1     -13.160  -6.364  -1.942  0.00  0.00    +0.014 A 
ATOM     13  C   UNL     1     -14.245  -7.202  -1.798  0.00  0.00    +0.050 A 
ATOM     14  C   UNL     1     -14.152  -8.337  -1.003  0.00  0.00    +0.162 A 
ATOM     15  C   UNL     1     -12.961  -8.633  -0.348  0.00  0.00    +0.163 A 
ATOM     16  C   UNL     1     -11.867  -7.797  -0.490  0.00  0.00    +0.060 A 
ATOM     17  O   UNL     1     -12.852  -9.745   0.430  0.00  0.00    -0.485 OA
ATOM     18  C   UNL     1     -14.075 -10.363   0.845  0.00  0.00    +0.270 C 
ATOM     19  C   UNL     1     -14.998 -10.469  -0.377  0.00  0.00    +0.270 C 
ATOM     20  O   UNL     1     -15.238  -9.148  -0.873  0.00  0.00    -0.485 OA
ENDBRANCH   7  11
BRANCH   1  23
ATOM     21  C   UNL     1      -4.963  -2.620   0.035  0.00  0.00    +0.091 C 
ATOM     22  C   UNL     1      -5.128  -3.957   0.039  0.00  0.00    +0.034 C 
ATOM     23  C   UNL     1      -6.635  -4.138   0.048  0.00  0.00    +0.190 C 
ATOM     24  N   UNL     1      -7.139  -2.755   0.047  0.00  0.00    -0.176 NA
ATOM     25  N   UNL     1      -6.170  -1.994   0.045  0.00  0.00    -0.154 NA
BRANCH  21  29
ATOM     26  C   UNL     1      -1.200  -0.637   0.010  0.00  0.00    +0.120 A 
ATOM     27  C   UNL     1      -2.374   0.104   0.019  0.00  0.00    +0.046 A 
ATOM     28  C   UNL     1      -3.595  -0.536   0.027  0.00  0.00    +0.013 A 
ATOM     29  C   UNL     1      -3.651  -1.928   0.026  0.00  0.00    +0.002 A 
ATOM     30  C   UNL     1      -2.471  -2.670   0.016  0.00  0.00    +0.013 A 
ATOM     31  C   UNL     1      -1.252  -2.025   0.003  0.00  0.00    +0.046 A 
BRANCH  26  33
ATOM     32  C   UNL     1      -0.017   1.425   0.010  0.00  0.00    +0.277 C 
ATOM     33  O   UNL     1       0.002  -0.004   0.002  0.00  0.00    -0.495 OA
ENDBRANCH  26  33
ENDBRANCH  21  29
ENDBRANCH   1  23
TORSDOF 4
