REMARK  Name = ZINC16856657
REMARK  12 active torsions:
REMARK  status: ('A' for Active; 'I' for Inactive)
REMARK    1  A    between atoms: C_1  and  C_2
REMARK    2  A    between atoms: C_2  and  C_3
REMARK    3  A    between atoms: C_3  and  C_4
REMARK    4  A    between atoms: C_4  and  C_5
REMARK    5  A    between atoms: C_5  and  O_6
REMARK    6  A    between atoms: O_6  and  C_7
REMARK    7  A    between atoms: C_7  and  C_9
REMARK    8  A    between atoms: C_12  and  N_15
REMARK    9  A    between atoms: C_18  and  C_20
REMARK   10  A    between atoms: C_21  and  C_29
REMARK   11  A    between atoms: C_23  and  C_27
REMARK   12  A    between atoms: C_24  and  N_26
REMARK                            x       y       z     vdW  Elec       q    Type
REMARK                         _______ _______ _______ _____ _____    ______ ____
ROOT
ATOM      1  N   UNL     1      -0.994  -0.884   0.248  0.00  0.00    -0.200 N 
ATOM      2  C   UNL     1       0.002  -0.004   0.002  0.00  0.00    +0.230 A 
ATOM      3  C   UNL     1       1.128  -0.726  -0.279  0.00  0.00    +0.050 A 
ATOM      4  C   UNL     1       0.806  -2.075  -0.200  0.00  0.00    +0.068 A 
ATOM      5  N   UNL     1      -0.464  -2.177   0.115  0.00  0.00    -0.168 NA
ATOM      6  C   UNL     1       1.752  -3.224  -0.436  0.00  0.00    +0.068 C 
ATOM      7  C   UNL     1       2.448  -0.078  -0.608  0.00  0.00    +0.104 C 
ATOM      8  C   UNL     1       2.349   1.389  -0.273  0.00  0.00    +0.098 C 
ATOM      9  C   UNL     1       1.171   1.992   0.002  0.00  0.00    +0.200 C 
ATOM     10  O   UNL     1      -0.016   1.351   0.009  0.00  0.00    -0.423 OA
ENDROOT
BRANCH   7  11
ATOM     11  C   UNL     1       2.746  -0.246  -2.075  0.00  0.00    +0.001 A 
ATOM     12  C   UNL     1       1.877   0.266  -3.020  0.00  0.00    +0.007 A 
ATOM     13  C   UNL     1       2.153   0.117  -4.366  0.00  0.00    +0.000 A 
ATOM     14  C   UNL     1       3.292  -0.555  -4.769  0.00  0.00    +0.003 A 
ATOM     15  C   UNL     1       4.159  -1.073  -3.827  0.00  0.00    +0.038 A 
ATOM     16  C   UNL     1       3.887  -0.919  -2.478  0.00  0.00    +0.127 A 
ATOM     17  F   UNL     1       4.734  -1.425  -1.555  0.00  0.00    -0.205 F 
ENDBRANCH   7  11
BRANCH   1  21
ATOM     18  C   UNL     1      -4.933   0.069   1.226  0.00  0.00    +0.059 A 
ATOM     19  C   UNL     1      -4.658  -1.054   0.442  0.00  0.00    +0.017 A 
ATOM     20  C   UNL     1      -3.356  -1.366   0.120  0.00  0.00    +0.029 A 
ATOM     21  C   UNL     1      -2.315  -0.564   0.575  0.00  0.00    +0.069 A 
ATOM     22  C   UNL     1      -2.584   0.552   1.361  0.00  0.00    +0.029 A 
ATOM     23  C   UNL     1      -3.884   0.873   1.681  0.00  0.00    +0.017 A 
BRANCH  18  24
ATOM     24  C   UNL     1      -6.326   0.406   1.573  0.00  0.00    +0.339 C 
ATOM     25  O   UNL     1      -7.237  -0.294   1.177  0.00  0.00    -0.245 OA
BRANCH  24  26
ATOM     26  O   UNL     1      -6.589   1.490   2.329  0.00  0.00    -0.461 OA
BRANCH  26  27
ATOM     27  C   UNL     1      -7.984   1.760   2.632  0.00  0.00    +0.232 C 
BRANCH  27  28
ATOM     28  C   UNL     1      -8.083   3.021   3.494  0.00  0.00    +0.041 C 
BRANCH  28  29
ATOM     29  C   UNL     1      -9.553   3.305   3.812  0.00  0.00    +0.003 C 
BRANCH  29  31
ATOM     30  C   UNL     1     -11.121   4.851   4.992  0.00  0.00    +0.004 C 
ATOM     31  C   UNL     1      -9.652   4.566   4.674  0.00  0.00    -0.003 C 
ENDBRANCH  29  31
ENDBRANCH  28  29
ENDBRANCH  27  28
ENDBRANCH  26  27
ENDBRANCH  24  26
ENDBRANCH  18  24
ENDBRANCH   1  21
BRANCH   9  32
ATOM     32  N   UNL     1       1.183   3.334   0.290  0.00  0.00    -0.328 N 
ATOM     33  H   UNL     1       0.353   3.795   0.491  0.00  0.00    +0.145 HD
ATOM     34  H   UNL     1       2.021   3.822   0.292  0.00  0.00    +0.145 HD
ENDBRANCH   9  32
BRANCH   8  35
ATOM     35  C   UNL     1       3.547   2.173  -0.247  0.00  0.00    +0.101 C 
ATOM     36  N   UNL     1       4.497   2.795  -0.226  0.00  0.00    -0.191 NA
ENDBRANCH   8  35
TORSDOF 10
