REMARK  Name = ZINC58913498
REMARK  10 active torsions:
REMARK  status: ('A' for Active; 'I' for Inactive)
REMARK    1  A    between atoms: C_1  and  C_2
REMARK    2  A    between atoms: C_5  and  O_30
REMARK    3  A    between atoms: C_6  and  N_8
REMARK    4  A    between atoms: C_9  and  C_11
REMARK    5  A    between atoms: N_13  and  N_14
REMARK    6  A    between atoms: C_15  and  C_16
REMARK    7  A    between atoms: C_18  and  C_29
REMARK    8  A    between atoms: N_19  and  C_22
REMARK    9  A    between atoms: C_20  and  C_21
REMARK   10  A    between atoms: O_30  and  C_31
REMARK                            x       y       z     vdW  Elec       q    Type
REMARK                         _______ _______ _______ _____ _____    ______ ____
ROOT
ATOM      1  C   UNL     1       0.279  -2.885   4.844  0.00  0.00    +0.318 C 
ATOM      2  O   UNL     1       0.295  -4.100   4.832  0.00  0.00    -0.263 OA
ATOM      3  N   UNL     1       0.377  -2.221   6.012  0.00  0.00    -0.199 N 
ATOM      4  H   UNL     1       0.365  -1.251   6.021  0.00  0.00    +0.178 HD
ENDROOT
BRANCH   1   6
ATOM      5  N   UNL     1       0.052  -2.794   2.397  0.00  0.00    -0.275 N 
ATOM      6  C   UNL     1       0.150  -2.130   3.566  0.00  0.00    +0.305 C 
ATOM      7  O   UNL     1       0.134  -0.915   3.577  0.00  0.00    -0.265 OA
ATOM      8  H   UNL     1      -0.001  -3.763   2.393  0.00  0.00    +0.155 HD
BRANCH   5  14
ATOM      9  C   UNL     1      -1.306   1.189  -0.143  0.00  0.00    +0.044 C 
ATOM     10  C   UNL     1      -0.626  -0.154  -0.071  0.00  0.00    -0.048 A 
ATOM     11  C   UNL     1      -0.028  -0.685  -1.199  0.00  0.00    +0.007 A 
ATOM     12  C   UNL     1       0.598  -1.917  -1.139  0.00  0.00    +0.048 A 
ATOM     13  C   UNL     1       0.627  -2.622   0.053  0.00  0.00    +0.141 A 
ATOM     14  C   UNL     1       0.025  -2.087   1.190  0.00  0.00    +0.076 A 
ATOM     15  C   UNL     1      -0.596  -0.847   1.123  0.00  0.00    +0.030 A 
BRANCH  13  16
ATOM     16  O   UNL     1       1.241  -3.834   0.113  0.00  0.00    -0.493 OA
ATOM     17  C   UNL     1       1.836  -4.320  -1.092  0.00  0.00    +0.277 C 
ENDBRANCH  13  16
ENDBRANCH   5  14
ENDBRANCH   1   6
BRANCH   3  18
ATOM     18  N   UNL     1       0.498  -2.931   7.214  0.00  0.00    -0.187 NA
ATOM     19  C   UNL     1       0.593  -2.290   8.341  0.00  0.00    +0.140 C 
BRANCH  19  20
ATOM     20  C   UNL     1       0.720  -3.037   9.604  0.00  0.00    +0.016 A 
ATOM     21  C   UNL     1       0.830  -2.472  10.952  0.00  0.00    +0.032 A 
ATOM     22  C   UNL     1       0.925  -3.514  11.799  0.00  0.00    +0.022 A 
ATOM     23  N   UNL     1       0.882  -4.674  11.079  0.00  0.00    -0.317 N 
ATOM     24  C   UNL     1       0.753  -4.395   9.754  0.00  0.00    +0.030 A 
ATOM     25  C   UNL     1       0.664  -5.409   8.643  0.00  0.00    +0.064 C 
ATOM     26  C   UNL     1       1.058  -3.417  13.296  0.00  0.00    +0.064 C 
BRANCH  23  27
ATOM     27  C   UNL     1       0.955  -5.962  11.625  0.00  0.00    +0.047 A 
ATOM     28  C   UNL     1       2.041  -6.779  11.339  0.00  0.00    +0.027 A 
ATOM     29  C   UNL     1       2.111  -8.048  11.879  0.00  0.00    +0.017 A 
ATOM     30  C   UNL     1       1.100  -8.506  12.706  0.00  0.00    +0.018 A 
ATOM     31  C   UNL     1       0.017  -7.694  12.992  0.00  0.00    +0.017 A 
ATOM     32  C   UNL     1      -0.055  -6.422  12.459  0.00  0.00    +0.027 A 
ATOM     33 BR   UNL     1       1.199 -10.244  13.444  0.00  0.00    -0.050 Br
ENDBRANCH  23  27
ENDBRANCH  19  20
ENDBRANCH   3  18
TORSDOF 6
