REMARK  Name = ZINC21220959
REMARK  7 active torsions:
REMARK  status: ('A' for Active; 'I' for Inactive)
REMARK    1  A    between atoms: C_1  and  O_2
REMARK    2  A    between atoms: O_2  and  C_3
REMARK    3  A    between atoms: C_6  and  O_35
REMARK    4  A    between atoms: C_7  and  C_9
REMARK    5  A    between atoms: C_14  and  C_24
REMARK    6  A    between atoms: C_29  and  O_30
REMARK    7  A    between atoms: O_35  and  C_36
REMARK                            x       y       z     vdW  Elec       q    Type
REMARK                         _______ _______ _______ _____ _____    ______ ____
ROOT
ATOM      1  C   UNL     1      -2.487   0.094   0.231  0.00  0.00    +0.036 C 
ATOM      2  C   UNL     1      -3.338  -0.324   1.429  0.00  0.00    +0.060 C 
ATOM      3  C   UNL     1      -4.683   0.380   1.381  0.00  0.00    +0.017 C 
ATOM      4  C   UNL     1      -5.255   0.676   0.201  0.00  0.00    +0.037 C 
ATOM      5  C   UNL     1      -6.584   1.367   0.009  0.00  0.00    +0.139 C 
ATOM      6  N   UNL     1      -7.380   1.482   1.212  0.00  0.00    -0.331 N 
ATOM      7  C   UNL     1      -6.947   2.255   2.289  0.00  0.00    +0.049 A 
ATOM      8  C   UNL     1      -7.601   3.422   2.650  0.00  0.00    +0.025 A 
ATOM      9  C   UNL     1      -7.070   4.216   3.653  0.00  0.00    +0.002 A 
ATOM     10  C   UNL     1      -5.899   3.849   4.290  0.00  0.00    +0.002 A 
ATOM     11  C   UNL     1      -5.255   2.673   3.945  0.00  0.00    +0.025 A 
ATOM     12  C   UNL     1      -5.794   1.869   2.956  0.00  0.00    +0.052 A 
ATOM     13  N   UNL     1      -5.227   0.653   2.594  0.00  0.00    -0.316 N 
ATOM     14  C   UNL     1      -4.599   0.351  -1.010  0.00  0.00    +0.163 C 
ATOM     15  O   UNL     1      -5.150   0.607  -2.062  0.00  0.00    -0.292 OA
ATOM     16  C   UNL     1      -3.248  -0.299  -1.041  0.00  0.00    +0.088 C 
ATOM     17  H   UNL     1      -8.343   0.956   1.288  0.00  0.00    +0.147 HD
ATOM     18  H   UNL     1      -5.240  -0.120   3.377  0.00  0.00    +0.152 HD
ENDROOT
BRANCH   5  19
ATOM     19  C   UNL     1      -6.330   2.750  -0.530  0.00  0.00    +0.020 A 
ATOM     20  C   UNL     1      -5.071   3.311  -0.431  0.00  0.00    +0.029 A 
ATOM     21  C   UNL     1      -4.838   4.581  -0.927  0.00  0.00    +0.042 A 
ATOM     22  C   UNL     1      -5.864   5.293  -1.522  0.00  0.00    +0.023 A 
ATOM     23  C   UNL     1      -7.124   4.737  -1.623  0.00  0.00    +0.047 A 
ATOM     24  C   UNL     1      -7.359   3.460  -1.132  0.00  0.00    +0.122 A 
ATOM     25 CL   UNL     1      -3.255   5.283  -0.801  0.00  0.00    -0.084 Cl
BRANCH  24  26
ATOM     26  O   UNL     1      -8.597   2.908  -1.236  0.00  0.00    -0.506 OA
ATOM     27  H   UNL     1      -9.412   3.472  -1.713  0.00  0.00    +0.292 HD
ENDBRANCH  24  26
ENDBRANCH   5  19
BRANCH   1  32
ATOM     28  C   UNL     1       0.104  -2.655   0.317  0.00  0.00    +0.121 A 
ATOM     29  C   UNL     1       1.283  -1.925   0.356  0.00  0.00    +0.049 A 
ATOM     30  C   UNL     1       1.240  -0.544   0.351  0.00  0.00    +0.049 A 
ATOM     31  C   UNL     1       0.018   0.112   0.306  0.00  0.00    +0.124 A 
ATOM     32  C   UNL     1      -1.160  -0.619   0.273  0.00  0.00    +0.002 A 
ATOM     33  C   UNL     1      -1.117  -2.000   0.273  0.00  0.00    +0.053 A 
BRANCH  28  35
ATOM     34  C   UNL     1       1.438  -4.623   0.368  0.00  0.00    +0.277 C 
ATOM     35  O   UNL     1       0.146  -4.014   0.322  0.00  0.00    -0.495 OA
ENDBRANCH  28  35
BRANCH  31  36
ATOM     36  O   UNL     1      -0.024   1.471   0.301  0.00  0.00    -0.495 OA
ATOM     37  C   UNL     1       1.228   2.159   0.344  0.00  0.00    +0.277 C 
ENDBRANCH  31  36
ENDBRANCH   1  32
TORSDOF 5
