REMARK  Name = ZINC09686674
REMARK  6 active torsions:
REMARK  status: ('A' for Active; 'I' for Inactive)
REMARK    1  A    between atoms: C_1  and  C_2
REMARK    2  A    between atoms: C_3  and  C_24
REMARK    3  A    between atoms: C_7  and  C_8
REMARK    4  A    between atoms: C_11  and  S_13
REMARK    5  A    between atoms: S_13  and  N_16
REMARK    6  A    between atoms: N_16  and  C_17
REMARK                            x       y       z     vdW  Elec       q    Type
REMARK                         _______ _______ _______ _____ _____    ______ ____
ROOT
ATOM      1  C   UNL     1      -1.198  -0.916   0.388  0.00  0.00    +0.039 A 
ATOM      2  C   UNL     1      -2.333  -0.784  -0.370  0.00  0.00    +0.019 A 
ATOM      3  C   UNL     1      -3.301  -1.760  -0.288  0.00  0.00    +0.037 A 
ATOM      4  C   UNL     1      -3.109  -2.814   0.546  0.00  0.00    +0.146 A 
ATOM      5  S   UNL     1      -1.509  -2.449   1.250  0.00  0.00    -0.067 S 
ENDROOT
BRANCH   1  12
ATOM      6  C   UNL     1       1.814  -1.816   0.365  0.00  0.00    +0.048 C 
ATOM      7  C   UNL     1       1.296  -0.405   0.466  0.00  0.00    -0.002 A 
ATOM      8  C   UNL     1       2.069   0.752   0.566  0.00  0.00    +0.063 A 
ATOM      9  N   UNL     1       1.270   1.786   0.632  0.00  0.00    -0.178 NA
ATOM     10  N   UNL     1      -0.055   1.337   0.578  0.00  0.00    -0.276 N 
ATOM     11  H   UNL     1      -0.873   1.911   0.610  0.00  0.00    +0.189 HD
ATOM     12  C   UNL     1      -0.030  -0.023   0.475  0.00  0.00    +0.075 A 
ATOM     13  C   UNL     1       3.575   0.801   0.592  0.00  0.00    +0.068 C 
ENDBRANCH   1  12
BRANCH   4  14
ATOM     14  S   UNL     1      -4.167  -4.189   0.856  0.00  0.00    +0.079 S 
ATOM     15  O   UNL     1      -3.823  -4.684   2.143  0.00  0.00    -0.149 OA
ATOM     16  O   UNL     1      -5.484  -3.769   0.528  0.00  0.00    -0.149 OA
BRANCH  14  17
ATOM     17  N   UNL     1      -3.763  -5.372  -0.230  0.00  0.00    -0.213 N 
ATOM     18  H   UNL     1      -4.424  -5.697  -0.861  0.00  0.00    +0.174 HD
BRANCH  17  19
ATOM     19  C   UNL     1      -2.469  -5.902  -0.238  0.00  0.00    +0.083 A 
ATOM     20  C   UNL     1      -1.775  -6.061   0.954  0.00  0.00    +0.027 A 
ATOM     21  C   UNL     1      -0.498  -6.588   0.943  0.00  0.00    +0.002 A 
ATOM     22  C   UNL     1       0.093  -6.949  -0.254  0.00  0.00    +0.003 A 
ATOM     23  C   UNL     1      -0.592  -6.788  -1.444  0.00  0.00    +0.040 A 
ATOM     24  C   UNL     1      -1.872  -6.265  -1.441  0.00  0.00    +0.146 A 
ATOM     25  F   UNL     1      -2.541  -6.107  -2.603  0.00  0.00    -0.204 F 
ENDBRANCH  17  19
ENDBRANCH  14  17
ENDBRANCH   4  14
TORSDOF 4
