REMARK  Name = ZINC27348921
REMARK  10 active torsions:
REMARK  status: ('A' for Active; 'I' for Inactive)
REMARK    1  A    between atoms: C_1  and  C_2
REMARK    2  A    between atoms: C_2  and  O_3
REMARK    3  A    between atoms: O_3  and  C_4
REMARK    4  A    between atoms: C_4  and  C_6
REMARK    5  A    between atoms: C_7  and  C_19
REMARK    6  A    between atoms: C_12  and  C_14
REMARK    7  A    between atoms: C_19  and  N_20
REMARK    8  A    between atoms: N_20  and  C_21
REMARK    9  A    between atoms: N_20  and  C_22
REMARK   10  A    between atoms: C_22  and  C_23
REMARK                            x       y       z     vdW  Elec       q    Type
REMARK                         _______ _______ _______ _____ _____    ______ ____
ROOT
ATOM      1  C   UNL     1      -0.709   1.674   3.583  0.00  0.00    +0.077 C 
ATOM      2  C   UNL     1      -0.314   1.176   4.774  0.00  0.00    +0.008 C 
ATOM      3  N   UNL     1      -0.959   1.515   5.929  0.00  0.00    -0.274 N 
ATOM      4  C   UNL     1      -2.008   2.346   5.977  0.00  0.00    +0.304 C 
ATOM      5  O   UNL     1      -2.517   2.589   7.053  0.00  0.00    -0.252 OA
ATOM      6  N   UNL     1      -2.518   2.921   4.870  0.00  0.00    -0.288 N 
ATOM      7  C   UNL     1      -1.889   2.625   3.572  0.00  0.00    +0.150 C 
ATOM      8  H   UNL     1      -0.622   1.099   6.890  0.00  0.00    +0.156 HD
ATOM      9  H   UNL     1      -3.384   3.599   4.920  0.00  0.00    +0.151 HD
ENDROOT
BRANCH   7  10
ATOM     10  C   UNL     1      -2.946   2.043   2.670  0.00  0.00    +0.015 A 
ATOM     11  C   UNL     1      -3.244   2.364   1.387  0.00  0.00    +0.013 A 
ATOM     12  C   UNL     1      -4.266   1.687   0.747  0.00  0.00    +0.008 A 
ATOM     13  C   UNL     1      -4.946   0.731   1.425  0.00  0.00    +0.045 A 
ATOM     14  S   UNL     1      -4.137   0.759   3.016  0.00  0.00    -0.099 S 
ENDBRANCH   7  10
BRANCH   1  15
ATOM     15  C   UNL     1      -0.041   1.324   2.386  0.00  0.00    +0.339 C 
ATOM     16  O   UNL     1       0.754   2.097   1.885  0.00  0.00    -0.245 OA
BRANCH  15  17
ATOM     17  O   UNL     1      -0.285   0.133   1.800  0.00  0.00    -0.462 OA
BRANCH  17  19
ATOM     18  C   UNL     1       0.021  -1.537   0.081  0.00  0.00    +0.048 C 
ATOM     19  C   UNL     1       0.425  -0.154   0.594  0.00  0.00    +0.229 C 
ENDBRANCH  17  19
ENDBRANCH  15  17
ENDBRANCH   1  15
BRANCH   2  20
ATOM     20  C   UNL     1       0.859   0.231   4.830  0.00  0.00    -0.026 C 
BRANCH  20  21
ATOM     21  N   UNL     1       1.951   0.851   5.593  0.00  0.00    +0.384 N 
ATOM     22  C   UNL     1       2.483   2.026   4.891  0.00  0.00    -0.095 C 
ATOM     23  H   UNL     1       1.541   1.189   6.556  0.00  0.00    -0.081 HD
BRANCH  21  24
ATOM     24  C   UNL     1       3.016  -0.122   5.873  0.00  0.00    -0.043 C 
BRANCH  24  25
ATOM     25  C   UNL     1       3.992   0.471   6.856  0.00  0.00    -0.061 A 
ATOM     26  C   UNL     1       3.797   0.299   8.213  0.00  0.00    +0.002 A 
ATOM     27  C   UNL     1       4.692   0.842   9.116  0.00  0.00    +0.003 A 
ATOM     28  C   UNL     1       5.783   1.558   8.662  0.00  0.00    +0.038 A 
ATOM     29  C   UNL     1       5.980   1.731   7.303  0.00  0.00    +0.124 A 
ATOM     30  C   UNL     1       5.086   1.181   6.399  0.00  0.00    +0.040 A 
ATOM     31  F   UNL     1       7.047   2.430   6.857  0.00  0.00    -0.205 F 
ENDBRANCH  24  25
ENDBRANCH  21  24
ENDBRANCH  20  21
ENDBRANCH   2  20
TORSDOF 8
