REMARK  Name = ZINC01900550
REMARK  10 active torsions:
REMARK  status: ('A' for Active; 'I' for Inactive)
REMARK    1  A    between atoms: C_1  and  O_2
REMARK    2  A    between atoms: O_2  and  C_3
REMARK    3  A    between atoms: C_5  and  C_10
REMARK    4  A    between atoms: C_8  and  O_9
REMARK    5  A    between atoms: C_10  and  N_12
REMARK    6  A    between atoms: N_12  and  N_13
REMARK    7  A    between atoms: C_14  and  C_16
REMARK    8  A    between atoms: C_16  and  S_17
REMARK    9  A    between atoms: S_17  and  C_18
REMARK   10  A    between atoms: N_31  and  C_32
REMARK                            x       y       z     vdW  Elec       q    Type
REMARK                         _______ _______ _______ _____ _____    ______ ____
ROOT
ATOM      1  S   UNL     1     -11.657  -0.587  -1.451  0.00  0.00    -0.078 S 
ENDROOT
BRANCH   1   2
ATOM      2  C   UNL     1     -12.780   0.454  -0.581  0.00  0.00    +0.178 A 
ATOM      3  N   UNL     1     -12.608   1.760  -0.604  0.00  0.00    -0.215 NA
ATOM      4  C   UNL     1     -13.440   2.568   0.043  0.00  0.00    +0.117 A 
ATOM      5  C   UNL     1     -14.534   2.081   0.778  0.00  0.00    +0.076 A 
ATOM      6  C   UNL     1     -15.362   3.093   1.438  0.00  0.00    -0.023 A 
ATOM      7  C   UNL     1     -14.997   4.381   1.278  0.00  0.00    -0.004 A 
ATOM      8  S   UNL     1     -13.551   4.327   0.254  0.00  0.00    -0.073 S 
ATOM      9  C   UNL     1     -15.672   5.592   1.846  0.00  0.00    +0.043 C 
ATOM     10  C   UNL     1     -17.067   5.183   2.340  0.00  0.00    +0.005 C 
ATOM     11  C   UNL     1     -16.936   3.908   3.178  0.00  0.00    +0.005 C 
ATOM     12  C   UNL     1     -16.585   2.726   2.274  0.00  0.00    +0.037 C 
ATOM     13  C   UNL     1     -14.698   0.660   0.786  0.00  0.00    +0.268 A 
ATOM     14  O   UNL     1     -15.620   0.147   1.397  0.00  0.00    -0.267 OA
ATOM     15  N   UNL     1     -13.823  -0.103   0.105  0.00  0.00    -0.255 N 
BRANCH  15  16
ATOM     16  C   UNL     1     -13.980  -1.496   0.105  0.00  0.00    +0.052 A 
ATOM     17  C   UNL     1     -14.746  -2.109  -0.878  0.00  0.00    +0.026 A 
ATOM     18  C   UNL     1     -14.899  -3.482  -0.876  0.00  0.00    +0.002 A 
ATOM     19  C   UNL     1     -14.290  -4.245   0.104  0.00  0.00    +0.000 A 
ATOM     20  C   UNL     1     -13.528  -3.637   1.084  0.00  0.00    +0.002 A 
ATOM     21  C   UNL     1     -13.366  -2.266   1.084  0.00  0.00    +0.026 A 
ENDBRANCH  15  16
ENDBRANCH   1   2
BRANCH   1  22
ATOM     22  C   UNL     1     -10.470   0.569  -2.191  0.00  0.00    +0.174 C 
BRANCH  22  24
ATOM     23  N   UNL     1      -8.451   0.453  -3.615  0.00  0.00    -0.236 N 
ATOM     24  C   UNL     1      -9.440  -0.202  -2.974  0.00  0.00    +0.239 C 
ATOM     25  O   UNL     1      -9.499  -1.412  -3.029  0.00  0.00    -0.273 OA
ATOM     26  H   UNL     1      -8.403   1.421  -3.571  0.00  0.00    +0.173 HD
BRANCH  23  27
ATOM     27  N   UNL     1      -7.493  -0.263  -4.344  0.00  0.00    -0.264 N 
ATOM     28  H   UNL     1      -7.541  -1.231  -4.387  0.00  0.00    +0.170 HD
BRANCH  27  29
ATOM     29  C   UNL     1      -6.470   0.415  -5.006  0.00  0.00    +0.045 C 
ATOM     30  C   UNL     1      -6.404   1.746  -4.947  0.00  0.00    +0.035 C 
BRANCH  29  33
ATOM     31  C   UNL     1      -3.490  -0.377  -7.158  0.00  0.00    +0.162 A 
ATOM     32  C   UNL     1      -4.434   0.335  -6.440  0.00  0.00    +0.059 A 
ATOM     33  C   UNL     1      -5.457  -0.342  -5.777  0.00  0.00    +0.000 A 
ATOM     34  C   UNL     1      -5.525  -1.734  -5.840  0.00  0.00    +0.013 A 
ATOM     35  C   UNL     1      -4.580  -2.439  -6.558  0.00  0.00    +0.050 A 
ATOM     36  C   UNL     1      -3.566  -1.766  -7.222  0.00  0.00    +0.158 A 
BRANCH  31  38
ATOM     37  C   UNL     1      -2.474   1.705  -7.697  0.00  0.00    +0.277 C 
ATOM     38  O   UNL     1      -2.491   0.281  -7.806  0.00  0.00    -0.491 OA
ENDBRANCH  31  38
BRANCH  36  39
ATOM     39  O   UNL     1      -2.641  -2.464  -7.933  0.00  0.00    -0.503 OA
ATOM     40  H   UNL     1      -1.865  -2.727  -7.418  0.00  0.00    +0.292 HD
ENDBRANCH  36  39
ENDBRANCH  29  33
ENDBRANCH  27  29
ENDBRANCH  23  27
ENDBRANCH  22  24
ENDBRANCH   1  22
TORSDOF 9
