REMARK  Name = ZINC63349019
REMARK  4 active torsions:
REMARK  status: ('A' for Active; 'I' for Inactive)
REMARK    1  A    between atoms: C_7  and  C_10
REMARK    2  A    between atoms: C_10  and  C_11
REMARK    3  A    between atoms: C_11  and  N_12
REMARK    4  A    between atoms: C_22  and  C_24
REMARK                            x       y       z     vdW  Elec       q    Type
REMARK                         _______ _______ _______ _____ _____    ______ ____
ROOT
ATOM      1  N   UNL     1      -0.458  -4.798  -1.460  0.00  0.00    -0.293 N 
ATOM      2  C   UNL     1       0.116  -6.126  -1.356  0.00  0.00    +0.137 C 
ATOM      3  C   UNL     1      -0.882  -7.191  -1.017  0.00  0.00    +0.020 C 
ATOM      4  C   UNL     1      -2.187  -7.002  -1.094  0.00  0.00    +0.080 C 
ATOM      5  C   UNL     1      -2.723  -5.665  -1.468  0.00  0.00    +0.076 C 
ATOM      6  C   UNL     1      -4.051  -5.507  -1.694  0.00  0.00    +0.090 C 
ATOM      7  N   UNL     1      -4.920  -6.563  -1.595  0.00  0.00    -0.289 N 
ATOM      8  C   UNL     1      -4.466  -7.759  -1.064  0.00  0.00    +0.223 A 
ATOM      9  N   UNL     1      -3.135  -7.985  -0.819  0.00  0.00    -0.199 N 
ATOM     10  N   UNL     1      -3.032  -9.267  -0.300  0.00  0.00    -0.143 NA
ATOM     11  C   UNL     1      -4.257  -9.754  -0.248  0.00  0.00    +0.185 A 
ATOM     12  N   UNL     1      -5.118  -8.831  -0.711  0.00  0.00    -0.193 NA
ATOM     13  C   UNL     1      -1.776  -4.550  -1.549  0.00  0.00    +0.250 C 
ATOM     14  O   UNL     1      -2.178  -3.412  -1.701  0.00  0.00    -0.270 OA
ATOM     15  H   UNL     1      -5.839  -6.474  -1.892  0.00  0.00    +0.154 HD
ENDROOT
BRANCH  11  16
ATOM     16  C   UNL     1      -4.627 -11.103   0.246  0.00  0.00    +0.039 A 
ATOM     17  C   UNL     1      -3.641 -11.972   0.710  0.00  0.00    +0.013 A 
ATOM     18  C   UNL     1      -3.990 -13.226   1.167  0.00  0.00    +0.001 A 
ATOM     19  C   UNL     1      -5.316 -13.623   1.166  0.00  0.00    +0.001 A 
ATOM     20  C   UNL     1      -6.299 -12.766   0.706  0.00  0.00    +0.021 A 
ATOM     21  C   UNL     1      -5.962 -11.505   0.252  0.00  0.00    +0.052 A 
ATOM     22 CL   UNL     1      -7.198 -10.427  -0.317  0.00  0.00    -0.083 Cl
ENDBRANCH  11  16
BRANCH   1  23
ATOM     23  C   UNL     1       0.457  -3.653  -1.462  0.00  0.00    +0.113 C 
BRANCH  23  24
ATOM     24  C   UNL     1       0.691  -3.186  -0.024  0.00  0.00    +0.052 C 
BRANCH  24  31
ATOM     25  C   UNL     1      -0.016   1.348   0.009  0.00  0.00    +0.001 A 
ATOM     26  C   UNL     1       1.166   2.101   0.002  0.00  0.00    +0.002 A 
ATOM     27  C   UNL     1       2.391   1.535  -0.013  0.00  0.00    +0.026 A 
ATOM     28  C   UNL     1       2.529   0.120  -0.022  0.00  0.00    +0.043 A 
ATOM     29  N   UNL     1       3.587  -0.654  -0.037  0.00  0.00    -0.380 N 
ATOM     30  C   UNL     1       3.143  -2.053  -0.041  0.00  0.00    +0.144 C 
ATOM     31  C   UNL     1       1.631  -2.008  -0.025  0.00  0.00    -0.040 C 
ATOM     32  C   UNL     1       1.295  -0.698  -0.014  0.00  0.00    -0.001 A 
ATOM     33  C   UNL     1       0.002  -0.004   0.002  0.00  0.00    +0.010 A 
ATOM     34  H   UNL     1       4.509  -0.353  -0.045  0.00  0.00    +0.160 HD
ENDBRANCH  24  31
ENDBRANCH  23  24
ENDBRANCH   1  23
TORSDOF 4
