REMARK  Name = ZINC00778236
REMARK  6 active torsions:
REMARK  status: ('A' for Active; 'I' for Inactive)
REMARK    1  A    between atoms: C_6  and  C_7
REMARK    2  A    between atoms: C_8  and  C_9
REMARK    3  A    between atoms: C_8  and  C_11
REMARK    4  A    between atoms: N_13  and  C_14
REMARK    5  A    between atoms: C_17  and  S_20
REMARK    6  A    between atoms: S_20  and  N_23
REMARK                            x       y       z     vdW  Elec       q    Type
REMARK                         _______ _______ _______ _____ _____    ______ ____
ROOT
ATOM      1  C   UNL     1       2.650   1.953   0.074  0.00  0.00    +0.259 C 
ATOM      2  O   UNL     1       2.829   0.760   0.229  0.00  0.00    -0.269 OA
ATOM      3  N   UNL     1       3.705   2.783  -0.044  0.00  0.00    -0.281 N 
ATOM      4  H   UNL     1       3.565   3.742  -0.091  0.00  0.00    +0.155 HD
ENDROOT
BRANCH   3   5
ATOM      5  C   UNL     1       5.001   2.262  -0.100  0.00  0.00    +0.034 A 
ATOM      6  C   UNL     1       6.078   3.027   0.328  0.00  0.00    +0.025 A 
ATOM      7  C   UNL     1       7.357   2.508   0.277  0.00  0.00    +0.030 A 
ATOM      8  C   UNL     1       7.567   1.231  -0.211  0.00  0.00    +0.105 A 
ATOM      9  C   UNL     1       6.497   0.468  -0.643  0.00  0.00    +0.030 A 
ATOM     10  C   UNL     1       5.216   0.980  -0.589  0.00  0.00    +0.025 A 
BRANCH   8  11
ATOM     11  S   UNL     1       9.200   0.574  -0.281  0.00  0.00    +0.056 S 
ATOM     12  O   UNL     1       9.963   1.279   0.689  0.00  0.00    -0.153 OA
ATOM     13  O   UNL     1       9.070  -0.841  -0.266  0.00  0.00    -0.153 OA
BRANCH  11  14
ATOM     14  N   UNL     1       9.827   0.976  -1.760  0.00  0.00    -0.204 NA
ATOM     15  H   UNL     1       9.293   1.485  -2.390  0.00  0.00    +0.144 HD
ATOM     16  H   UNL     1      10.727   0.703  -1.996  0.00  0.00    +0.144 HD
ENDBRANCH  11  14
ENDBRANCH   8  11
ENDBRANCH   3   5
BRANCH   1  18
ATOM     17  C   UNL     1       0.203   1.643   0.138  0.00  0.00    +0.032 C 
ATOM     18  C   UNL     1       1.280   2.490   0.017  0.00  0.00    +0.114 C 
BRANCH  17  24
ATOM     19  C   UNL     1      -1.350   3.463   0.812  0.00  0.00    +0.009 A 
ATOM     20  C   UNL     1      -2.626   3.973   0.916  0.00  0.00    +0.020 A 
ATOM     21  C   UNL     1      -3.712   3.229   0.483  0.00  0.00    +0.041 A 
ATOM     22  C   UNL     1      -3.524   1.968  -0.063  0.00  0.00    +0.020 A 
ATOM     23  C   UNL     1      -2.255   1.446  -0.179  0.00  0.00    +0.009 A 
ATOM     24  C   UNL     1      -1.152   2.192   0.257  0.00  0.00    -0.024 A 
ATOM     25 CL   UNL     1      -5.315   3.878   0.625  0.00  0.00    -0.084 Cl
ENDBRANCH  17  24
BRANCH  18  26
ATOM     26  C   UNL     1       1.070   3.895  -0.166  0.00  0.00    +0.104 C 
ATOM     27  N   UNL     1       0.903   5.009  -0.310  0.00  0.00    -0.191 NA
ENDBRANCH  18  26
ENDBRANCH   1  18
TORSDOF 6
