REMARK  Name = ZINC16371241
REMARK  11 active torsions:
REMARK  status: ('A' for Active; 'I' for Inactive)
REMARK    1  A    between atoms: C_1  and  C_2
REMARK    2  A    between atoms: C_7  and  C_8
REMARK    3  A    between atoms: C_8  and  C_9
REMARK    4  A    between atoms: C_8  and  C_10
REMARK    5  A    between atoms: C_11  and  C_16
REMARK    6  A    between atoms: C_16  and  S_17
REMARK    7  A    between atoms: S_17  and  C_18
REMARK    8  A    between atoms: C_21  and  C_24
REMARK    9  A    between atoms: N_22  and  N_23
REMARK   10  A    between atoms: C_24  and  O_25
REMARK   11  A    between atoms: O_25  and  C_26
REMARK                            x       y       z     vdW  Elec       q    Type
REMARK                         _______ _______ _______ _____ _____    ______ ____
ROOT
ATOM      1  S   UNL     1      -0.328   2.012   0.045  0.00  0.00    -0.080 S 
ENDROOT
BRANCH   1   2
ATOM      2  C   UNL     1      -0.604   0.274  -0.058  0.00  0.00    +0.209 A 
ATOM      3  N   UNL     1       0.311  -0.653  -0.221  0.00  0.00    -0.121 NA
ATOM      4  N   UNL     1      -0.243  -1.812  -0.249  0.00  0.00    -0.128 NA
ATOM      5  C   UNL     1      -1.534  -1.695  -0.114  0.00  0.00    +0.189 A 
ATOM      6  N   UNL     1      -1.810  -0.362   0.012  0.00  0.00    -0.225 N 
BRANCH   6   7
ATOM      7  N   UNL     1      -3.038   0.214   0.175  0.00  0.00    -0.295 N 
ATOM      8  H   UNL     1      -3.454   0.436  -0.717  0.00  0.00    +0.163 HD
ATOM      9  H   UNL     1      -3.646  -0.379   0.720  0.00  0.00    +0.163 HD
ENDBRANCH   6   7
BRANCH   5  10
ATOM     10  C   UNL     1      -2.536  -2.820  -0.101  0.00  0.00    +0.306 C 
BRANCH  10  11
ATOM     11  O   UNL     1      -2.983  -3.076  -1.434  0.00  0.00    -0.484 OA
BRANCH  11  12
ATOM     12  C   UNL     1      -3.897  -4.069  -1.599  0.00  0.00    +0.121 A 
ATOM     13  C   UNL     1      -4.349  -4.786  -0.500  0.00  0.00    +0.048 A 
ATOM     14  C   UNL     1      -5.282  -5.790  -0.669  0.00  0.00    +0.042 A 
ATOM     15  C   UNL     1      -5.757  -6.090  -1.934  0.00  0.00    +0.124 A 
ATOM     16  C   UNL     1      -5.302  -5.380  -3.032  0.00  0.00    +0.042 A 
ATOM     17  C   UNL     1      -4.374  -4.370  -2.866  0.00  0.00    +0.048 A 
ATOM     18  F   UNL     1      -6.666  -7.076  -2.098  0.00  0.00    -0.205 F 
ENDBRANCH  11  12
ENDBRANCH  10  11
ENDBRANCH   5  10
ENDBRANCH   1   2
BRANCH   1  19
ATOM     19  C   UNL     1       1.473   2.055  -0.127  0.00  0.00    +0.113 C 
BRANCH  19  27
ATOM     20  C   UNL     1       2.451   6.688  -4.805  0.00  0.00    +0.044 C 
ATOM     21  C   UNL     1       2.320   5.846  -3.562  0.00  0.00    -0.044 A 
ATOM     22  C   UNL     1       2.629   6.390  -2.333  0.00  0.00    +0.050 A 
ATOM     23  C   UNL     1       2.515   5.618  -1.184  0.00  0.00    +0.140 A 
ATOM     24  C   UNL     1       2.072   4.288  -1.287  0.00  0.00    +0.022 A 
ATOM     25  C   UNL     1       1.751   3.753  -2.538  0.00  0.00    +0.016 A 
ATOM     26  C   UNL     1       1.877   4.535  -3.664  0.00  0.00    -0.041 A 
ATOM     27  C   UNL     1       1.949   3.483  -0.067  0.00  0.00    -0.020 A 
ATOM     28  C   UNL     1       2.282   4.058   1.116  0.00  0.00    +0.097 A 
ATOM     29  C   UNL     1       2.725   5.398   1.145  0.00  0.00    +0.338 A 
ATOM     30  O   UNL     1       3.020   5.903   2.213  0.00  0.00    -0.245 OA
ATOM     31  O   UNL     1       2.830   6.130   0.025  0.00  0.00    -0.422 OA
BRANCH  26  32
ATOM     32  C   UNL     1       1.532   3.964  -5.016  0.00  0.00    +0.013 C 
ATOM     33  C   UNL     1       2.517   2.846  -5.364  0.00  0.00    +0.012 C 
ATOM     34  C   UNL     1       0.110   3.399  -4.982  0.00  0.00    +0.012 C 
ENDBRANCH  26  32
ENDBRANCH  19  27
ENDBRANCH   1  19
TORSDOF 8
