REMARK  Name = ZINC39687006
REMARK  7 active torsions:
REMARK  status: ('A' for Active; 'I' for Inactive)
REMARK    1  A    between atoms: C_1  and  C_2
REMARK    2  A    between atoms: C_6  and  C_9
REMARK    3  A    between atoms: C_13  and  C_22
REMARK    4  A    between atoms: N_24  and  C_25
REMARK    5  A    between atoms: C_25  and  C_27
REMARK    6  A    between atoms: C_25  and  C_28
REMARK    7  A    between atoms: C_28  and  C_29
REMARK                            x       y       z     vdW  Elec       q    Type
REMARK                         _______ _______ _______ _____ _____    ______ ____
ROOT
ATOM      1  C   UNL     1       0.070  -2.874   2.532  0.00  0.00    +0.251 C 
ATOM      2  O   UNL     1       1.122  -3.200   3.048  0.00  0.00    -0.270 OA
ATOM      3  N   UNL     1      -1.098  -3.240   3.095  0.00  0.00    -0.296 N 
ATOM      4  C   UNL     1      -2.469  -2.945   2.615  0.00  0.00    +0.121 C 
ATOM      5  C   UNL     1      -3.264  -4.243   2.883  0.00  0.00    +0.100 C 
ATOM      6  C   UNL     1      -2.494  -4.947   4.014  0.00  0.00    -0.004 C 
ATOM      7  C   UNL     1      -1.303  -4.033   4.331  0.00  0.00    +0.115 C 
ATOM      8  C   UNL     1      -3.385  -5.102   5.242  0.00  0.00    -0.010 C 
ATOM      9  C   UNL     1      -2.618  -5.857   6.332  0.00  0.00    -0.082 C 
ATOM     10  N   UNL     1      -2.215  -7.174   5.826  0.00  0.00    +0.379 N 
ATOM     11  C   UNL     1      -1.284  -7.016   4.702  0.00  0.00    -0.082 C 
ATOM     12  C   UNL     1      -1.996  -6.311   3.543  0.00  0.00    -0.010 C 
ATOM     13  H   UNL     1      -1.763  -7.693   6.564  0.00  0.00    -0.086 HD
ATOM     14  H   UNL     1      -3.032  -7.678   5.516  0.00  0.00    -0.086 HD
ENDROOT
BRANCH   1  20
ATOM     15  C   UNL     1       0.069   1.564   0.243  0.00  0.00    +0.047 C 
ATOM     16  C   UNL     1       0.073   0.058   0.181  0.00  0.00    -0.014 A 
ATOM     17  C   UNL     1       0.079  -0.582  -1.045  0.00  0.00    +0.007 A 
ATOM     18  C   UNL     1       0.082  -1.964  -1.112  0.00  0.00    +0.021 A 
ATOM     19  C   UNL     1       0.080  -2.715   0.046  0.00  0.00    +0.056 A 
ATOM     20  C   UNL     1       0.074  -2.077   1.290  0.00  0.00    +0.091 A 
ATOM     21  C   UNL     1       0.076  -0.680   1.350  0.00  0.00    +0.140 A 
ATOM     22  F   UNL     1       0.075  -0.053   2.547  0.00  0.00    -0.204 F 
ATOM     23 CL   UNL     1       0.083  -4.449  -0.042  0.00  0.00    -0.083 Cl
ENDBRANCH   1  20
BRANCH   5  24
ATOM     24  C   UNL     1      -4.667  -3.917   3.324  0.00  0.00    +0.218 C 
ATOM     25  O   UNL     1      -4.881  -2.918   3.977  0.00  0.00    -0.275 OA
ATOM     26  N   UNL     1      -5.685  -4.737   2.993  0.00  0.00    -0.312 N 
ATOM     27  H   UNL     1      -5.513  -5.537   2.472  0.00  0.00    +0.149 HD
BRANCH  26  28
ATOM     28  C   UNL     1      -7.049  -4.420   3.422  0.00  0.00    +0.074 C 
ATOM     29  C   UNL     1      -7.690  -3.460   2.417  0.00  0.00    +0.028 C 
BRANCH  28  30
ATOM     30  C   UNL     1      -7.873  -5.708   3.494  0.00  0.00    +0.060 C 
BRANCH  30  31
ATOM     31  C   UNL     1      -7.315  -6.602   4.570  0.00  0.00    -0.010 A 
ATOM     32  C   UNL     1      -6.402  -7.588   4.245  0.00  0.00    +0.006 A 
ATOM     33  C   UNL     1      -5.890  -8.409   5.232  0.00  0.00    +0.000 A 
ATOM     34  C   UNL     1      -6.289  -8.245   6.546  0.00  0.00    +0.003 A 
ATOM     35  C   UNL     1      -7.201  -7.259   6.873  0.00  0.00    +0.038 A 
ATOM     36  C   UNL     1      -7.711  -6.433   5.886  0.00  0.00    +0.127 A 
ATOM     37  F   UNL     1      -8.599  -5.466   6.205  0.00  0.00    -0.205 F 
ENDBRANCH  30  31
ENDBRANCH  28  30
ENDBRANCH  26  28
ENDBRANCH   5  24
TORSDOF 5
