REMARK  Name = ZINC46957091
REMARK  6 active torsions:
REMARK  status: ('A' for Active; 'I' for Inactive)
REMARK    1  A    between atoms: C_4  and  C_7
REMARK    2  A    between atoms: C_7  and  C_9
REMARK    3  A    between atoms: C_7  and  O_31
REMARK    4  A    between atoms: N_17  and  C_18
REMARK    5  A    between atoms: C_18  and  C_19
REMARK    6  A    between atoms: N_23  and  C_25
REMARK                            x       y       z     vdW  Elec       q    Type
REMARK                         _______ _______ _______ _____ _____    ______ ____
ROOT
ATOM      1  C   UNL     1       4.468  -0.045  -3.334  0.00  0.00    +0.025 C 
ATOM      2  C   UNL     1       5.838  -0.702  -3.517  0.00  0.00    +0.025 C 
ATOM      3  C   UNL     1       5.798  -2.124  -2.949  0.00  0.00    +0.109 C 
ATOM      4  N   UNL     1       4.691  -2.854  -3.579  0.00  0.00    -0.286 N 
ATOM      5  C   UNL     1       3.345  -2.267  -3.541  0.00  0.00    +0.109 C 
ATOM      6  C   UNL     1       3.412  -0.843  -4.103  0.00  0.00    +0.025 C 
ATOM      7  C   UNL     1       4.905  -4.041  -4.182  0.00  0.00    +0.302 C 
ATOM      8  O   UNL     1       3.967  -4.679  -4.620  0.00  0.00    -0.253 OA
ATOM      9  N   UNL     1       6.159  -4.520  -4.299  0.00  0.00    -0.299 N 
ATOM     10  H   UNL     1       6.899  -4.048  -3.886  0.00  0.00    +0.150 HD
ENDROOT
BRANCH   1  11
ATOM     11  C   UNL     1       4.514   1.387  -3.870  0.00  0.00    +0.148 C 
BRANCH  11  15
ATOM     12  C   UNL     1       7.462   3.613  -1.724  0.00  0.00    +0.000 A 
ATOM     13  C   UNL     1       6.138   3.662  -1.332  0.00  0.00    +0.000 A 
ATOM     14  C   UNL     1       5.184   2.942  -2.026  0.00  0.00    +0.006 A 
ATOM     15  C   UNL     1       5.554   2.173  -3.113  0.00  0.00    -0.019 A 
ATOM     16  C   UNL     1       6.878   2.124  -3.506  0.00  0.00    +0.006 A 
ATOM     17  C   UNL     1       7.833   2.843  -2.811  0.00  0.00    +0.000 A 
ENDBRANCH  11  15
BRANCH  11  18
ATOM     18  O   UNL     1       4.850   1.366  -5.258  0.00  0.00    -0.387 OA
ATOM     19  H   UNL     1       5.707   0.963  -5.450  0.00  0.00    +0.210 HD
ENDBRANCH  11  18
ENDBRANCH   1  11
BRANCH   9  20
ATOM     20  C   UNL     1       6.405  -5.753  -5.051  0.00  0.00    +0.110 C 
BRANCH  20  21
ATOM     21  C   UNL     1       7.901  -6.074  -5.031  0.00  0.00    +0.025 C 
ATOM     22  C   UNL     1       8.355  -6.483  -3.605  0.00  0.00    +0.025 C 
ATOM     23  C   UNL     1       9.584  -7.374  -3.913  0.00  0.00    +0.105 C 
ATOM     24  N   UNL     1       9.220  -8.108  -5.139  0.00  0.00    -0.330 N 
ATOM     25  C   UNL     1       8.200  -7.335  -5.869  0.00  0.00    +0.110 C 
BRANCH  24  26
ATOM     26  C   UNL     1       9.755  -9.333  -5.543  0.00  0.00    +0.030 A 
ATOM     27  C   UNL     1       9.331  -9.921  -6.728  0.00  0.00    +0.023 A 
ATOM     28  C   UNL     1       9.863 -11.132  -7.125  0.00  0.00    +0.002 A 
ATOM     29  C   UNL     1      10.817 -11.759  -6.345  0.00  0.00    +0.000 A 
ATOM     30  C   UNL     1      11.242 -11.176  -5.165  0.00  0.00    +0.002 A 
ATOM     31  C   UNL     1      10.719  -9.963  -4.765  0.00  0.00    +0.023 A 
ENDBRANCH  24  26
ENDBRANCH  20  21
ENDBRANCH   9  20
TORSDOF 6
