REMARK  Name = ZINC02840970
REMARK  7 active torsions:
REMARK  status: ('A' for Active; 'I' for Inactive)
REMARK    1  A    between atoms: C_4  and  C_7
REMARK    2  A    between atoms: C_12  and  C_20
REMARK    3  A    between atoms: C_14  and  C_18
REMARK    4  A    between atoms: C_15  and  N_17
REMARK    5  A    between atoms: C_24  and  O_26
REMARK    6  A    between atoms: O_26  and  C_27
REMARK    7  A    between atoms: C_27  and  C_28
REMARK                            x       y       z     vdW  Elec       q    Type
REMARK                         _______ _______ _______ _____ _____    ______ ____
ROOT
ATOM      1  C   UNL     1       0.797   6.411   0.616  0.00  0.00    +0.034 C 
ATOM      2  C   UNL     1      -0.434   5.555   0.918  0.00  0.00    +0.083 C 
ATOM      3  C   UNL     1      -0.196   4.139   0.451  0.00  0.00    +0.115 C 
ATOM      4  C   UNL     1       1.043   3.613   0.457  0.00  0.00    +0.046 C 
ATOM      5  C   UNL     1       1.277   2.192   0.002  0.00  0.00    +0.101 C 
ATOM      6  C   UNL     1      -0.017   1.428   0.010  0.00  0.00    +0.098 C 
ATOM      7  C   UNL     1      -1.202   2.085   0.019  0.00  0.00    +0.198 C 
ATOM      8  O   UNL     1      -1.257   3.426   0.028  0.00  0.00    -0.445 OA
ATOM      9  C   UNL     1       2.155   4.365   0.882  0.00  0.00    +0.164 C 
ATOM     10  O   UNL     1       3.255   3.850   0.889  0.00  0.00    -0.292 OA
ATOM     11  C   UNL     1       2.005   5.793   1.329  0.00  0.00    +0.088 C 
ENDROOT
BRANCH   1  15
ATOM     12  C   UNL     1       0.167  10.388   2.042  0.00  0.00    +0.000 A 
ATOM     13  C   UNL     1       0.404  10.165   0.699  0.00  0.00    +0.000 A 
ATOM     14  C   UNL     1       0.608   8.878   0.237  0.00  0.00    +0.004 A 
ATOM     15  C   UNL     1       0.575   7.814   1.119  0.00  0.00    -0.043 A 
ATOM     16  C   UNL     1       0.333   8.037   2.462  0.00  0.00    +0.004 A 
ATOM     17  C   UNL     1       0.134   9.324   2.924  0.00  0.00    +0.000 A 
ENDBRANCH   1  15
BRANCH   5  18
ATOM     18  C   UNL     1       1.843   2.202  -1.395  0.00  0.00    -0.031 A 
ATOM     19  C   UNL     1       1.116   2.760  -2.431  0.00  0.00    +0.005 A 
ATOM     20  C   UNL     1       1.633   2.770  -3.713  0.00  0.00    +0.004 A 
ATOM     21  C   UNL     1       2.877   2.222  -3.963  0.00  0.00    +0.045 A 
ATOM     22  C   UNL     1       3.608   1.663  -2.925  0.00  0.00    +0.121 A 
ATOM     23  C   UNL     1       3.089   1.659  -1.638  0.00  0.00    +0.050 A 
BRANCH  22  24
ATOM     24  O   UNL     1       4.831   1.123  -3.168  0.00  0.00    -0.487 OA
BRANCH  24  25
ATOM     25  C   UNL     1       5.303   1.167  -4.516  0.00  0.00    +0.268 C 
BRANCH  25  26
ATOM     26  C   UNL     1       6.666   0.527  -4.592  0.00  0.00    +0.043 A 
ATOM     27  C   UNL     1       6.781  -0.830  -4.840  0.00  0.00    +0.131 A 
ATOM     28  C   UNL     1       8.033  -1.416  -4.910  0.00  0.00    +0.039 A 
ATOM     29  C   UNL     1       9.168  -0.647  -4.732  0.00  0.00    +0.004 A 
ATOM     30  C   UNL     1       9.053   0.708  -4.484  0.00  0.00    +0.020 A 
ATOM     31  C   UNL     1       7.802   1.297  -4.419  0.00  0.00    +0.050 A 
ATOM     32 CL   UNL     1       7.659   3.000  -4.115  0.00  0.00    -0.083 Cl
ATOM     33  F   UNL     1       5.672  -1.582  -5.014  0.00  0.00    -0.205 F 
ENDBRANCH  25  26
ENDBRANCH  24  25
ENDBRANCH  22  24
ENDBRANCH   5  18
BRANCH   7  34
ATOM     34  N   UNL     1      -2.371   1.365   0.025  0.00  0.00    -0.328 N 
ATOM     35  H   UNL     1      -2.343   0.395   0.022  0.00  0.00    +0.145 HD
ATOM     36  H   UNL     1      -3.224   1.825   0.032  0.00  0.00    +0.145 HD
ENDBRANCH   7  34
BRANCH   6  37
ATOM     37  C   UNL     1       0.002  -0.004   0.002  0.00  0.00    +0.101 C 
ATOM     38  N   UNL     1       0.018  -1.140  -0.004  0.00  0.00    -0.191 NA
ENDBRANCH   6  37
TORSDOF 7
