REMARK  Name = ZINC15946450
REMARK  8 active torsions:
REMARK  status: ('A' for Active; 'I' for Inactive)
REMARK    1  A    between atoms: C_1  and  C_2
REMARK    2  A    between atoms: C_2  and  C_3
REMARK    3  A    between atoms: C_2  and  C_4
REMARK    4  A    between atoms: C_2  and  C_5
REMARK    5  A    between atoms: C_12  and  N_24
REMARK    6  A    between atoms: C_13  and  C_14
REMARK    7  A    between atoms: N_16  and  C_17
REMARK    8  A    between atoms: C_25  and  C_26
REMARK                            x       y       z     vdW  Elec       q    Type
REMARK                         _______ _______ _______ _____ _____    ______ ____
ROOT
ATOM      1  C   UNL     1       0.749  -0.510  -1.245  0.00  0.00    -0.000 C 
ATOM      2  C   UNL     1       0.005   0.002  -2.482  0.00  0.00    +0.009 C 
ATOM      3  C   UNL     1       0.550  -0.680  -3.737  0.00  0.00    +0.037 C 
ATOM      4  C   UNL     1       2.067  -0.512  -3.771  0.00  0.00    -0.023 A 
ATOM      5  C   UNL     1       2.748  -0.192  -2.642  0.00  0.00    -0.004 A 
ATOM      6  S   UNL     1       4.444  -0.104  -3.152  0.00  0.00    -0.073 S 
ATOM      7  C   UNL     1       4.210  -0.501  -4.877  0.00  0.00    +0.114 A 
ATOM      8  C   UNL     1       2.823  -0.676  -4.945  0.00  0.00    +0.073 A 
ATOM      9  C   UNL     1       2.186   0.031  -1.272  0.00  0.00    +0.046 C 
ENDROOT
BRANCH   1  11
ATOM     10  C   UNL     1       0.014   1.509   0.030  0.00  0.00    +0.011 C 
ATOM     11  C   UNL     1       0.040  -0.021   0.019  0.00  0.00    -0.035 C 
ATOM     12  C   UNL     1       0.790  -0.528   1.253  0.00  0.00    +0.011 C 
ATOM     13  C   UNL     1      -1.394  -0.555   0.039  0.00  0.00    +0.011 C 
ENDBRANCH   1  11
BRANCH   8  14
ATOM     14  C   UNL     1       2.173  -1.023  -6.213  0.00  0.00    +0.251 C 
ATOM     15  O   UNL     1       1.784  -0.144  -6.959  0.00  0.00    -0.270 OA
ATOM     16  N   UNL     1       2.006  -2.317  -6.552  0.00  0.00    -0.281 N 
ATOM     17  H   UNL     1       2.374  -3.017  -5.991  0.00  0.00    +0.155 HD
BRANCH  16  18
ATOM     18  C   UNL     1       1.300  -2.650  -7.713  0.00  0.00    +0.034 A 
ATOM     19  C   UNL     1       0.503  -3.787  -7.741  0.00  0.00    +0.024 A 
ATOM     20  C   UNL     1      -0.193  -4.113  -8.889  0.00  0.00    +0.017 A 
ATOM     21  C   UNL     1      -0.095  -3.309 -10.011  0.00  0.00    +0.018 A 
ATOM     22  C   UNL     1       0.699  -2.176  -9.986  0.00  0.00    +0.017 A 
ATOM     23  C   UNL     1       1.392  -1.842  -8.839  0.00  0.00    +0.024 A 
ATOM     24 BR   UNL     1      -1.048  -3.759 -11.581  0.00  0.00    -0.050 Br
ENDBRANCH  16  18
ENDBRANCH   8  14
BRANCH   7  25
ATOM     25  N   UNL     1       5.131  -0.605  -5.859  0.00  0.00    -0.247 NA
ATOM     26  C   UNL     1       6.395  -0.403  -5.594  0.00  0.00    +0.120 C 
BRANCH  26  27
ATOM     27  C   UNL     1       7.398  -0.516  -6.664  0.00  0.00    -0.007 A 
ATOM     28  C   UNL     1       7.003  -0.835  -7.968  0.00  0.00    +0.009 A 
ATOM     29  C   UNL     1       7.949  -0.940  -8.965  0.00  0.00    +0.001 A 
ATOM     30  C   UNL     1       9.287  -0.731  -8.679  0.00  0.00    +0.000 A 
ATOM     31  C   UNL     1       9.686  -0.415  -7.392  0.00  0.00    +0.001 A 
ATOM     32  C   UNL     1       8.752  -0.301  -6.385  0.00  0.00    +0.009 A 
ENDBRANCH  26  27
ENDBRANCH   7  25
TORSDOF 5
