REMARK  Name = ZINC63271564
REMARK  7 active torsions:
REMARK  status: ('A' for Active; 'I' for Inactive)
REMARK    1  A    between atoms: C_7  and  C_10
REMARK    2  A    between atoms: C_10  and  C_11
REMARK    3  A    between atoms: C_11  and  C_12
REMARK    4  A    between atoms: C_12  and  C_13
REMARK    5  A    between atoms: C_21  and  C_23
REMARK    6  A    between atoms: C_23  and  C_24
REMARK    7  A    between atoms: C_24  and  C_25
REMARK                            x       y       z     vdW  Elec       q    Type
REMARK                         _______ _______ _______ _____ _____    ______ ____
ROOT
ATOM      1  C   UNL     1      -0.729  -5.309  -2.876  0.00  0.00    +0.216 C 
ATOM      2  O   UNL     1      -0.183  -4.738  -3.796  0.00  0.00    -0.276 OA
ATOM      3  N   UNL     1      -1.542  -6.356  -3.120  0.00  0.00    -0.298 N 
ATOM      4  C   UNL     1      -2.216  -7.054  -2.016  0.00  0.00    +0.126 C 
ATOM      5  C   UNL     1      -3.725  -7.058  -2.286  0.00  0.00    +0.126 C 
ATOM      6  N   UNL     1      -3.955  -7.521  -3.662  0.00  0.00    -0.298 N 
ATOM      7  C   UNL     1      -3.282  -6.824  -4.766  0.00  0.00    +0.126 C 
ATOM      8  C   UNL     1      -1.776  -6.816  -4.496  0.00  0.00    +0.126 C 
ATOM      9  C   UNL     1      -4.768  -8.568  -3.906  0.00  0.00    +0.216 C 
ATOM     10  O   UNL     1      -5.317  -9.137  -2.986  0.00  0.00    -0.276 OA
ENDROOT
BRANCH   1  11
ATOM     11  C   UNL     1      -0.499  -4.848  -1.460  0.00  0.00    +0.096 C 
BRANCH  11  12
ATOM     12  C   UNL     1       0.457  -3.653  -1.462  0.00  0.00    +0.014 C 
BRANCH  12  13
ATOM     13  C   UNL     1       0.691  -3.186  -0.024  0.00  0.00    +0.033 C 
BRANCH  13  20
ATOM     14  C   UNL     1      -0.016   1.348   0.009  0.00  0.00    +0.001 A 
ATOM     15  C   UNL     1       1.166   2.101   0.002  0.00  0.00    +0.002 A 
ATOM     16  C   UNL     1       2.391   1.535  -0.013  0.00  0.00    +0.026 A 
ATOM     17  C   UNL     1       2.529   0.120  -0.022  0.00  0.00    +0.043 A 
ATOM     18  N   UNL     1       3.587  -0.654  -0.037  0.00  0.00    -0.380 N 
ATOM     19  C   UNL     1       3.143  -2.053  -0.041  0.00  0.00    +0.144 C 
ATOM     20  C   UNL     1       1.631  -2.008  -0.025  0.00  0.00    -0.042 C 
ATOM     21  C   UNL     1       1.295  -0.698  -0.014  0.00  0.00    -0.001 A 
ATOM     22  C   UNL     1       0.002  -0.004   0.002  0.00  0.00    +0.010 A 
ATOM     23  H   UNL     1       4.509  -0.353  -0.045  0.00  0.00    +0.160 HD
ENDBRANCH  13  20
ENDBRANCH  12  13
ENDBRANCH  11  12
ENDBRANCH   1  11
BRANCH   9  24
ATOM     24  C   UNL     1      -4.994  -9.033  -5.322  0.00  0.00    +0.100 C 
BRANCH  24  25
ATOM     25  C   UNL     1      -5.950 -10.227  -5.320  0.00  0.00    +0.042 C 
BRANCH  25  26
ATOM     26  C   UNL     1      -6.176 -10.691  -6.736  0.00  0.00    -0.041 C 
ATOM     27  C   UNL     1      -5.521 -11.684  -7.380  0.00  0.00    -0.001 A 
ATOM     28  C   UNL     1      -4.444 -12.593  -6.972  0.00  0.00    +0.010 A 
ATOM     29  C   UNL     1      -3.983 -13.504  -7.859  0.00  0.00    +0.001 A 
ATOM     30  C   UNL     1      -4.507 -13.602  -9.155  0.00  0.00    +0.002 A 
ATOM     31  C   UNL     1      -5.498 -12.802  -9.603  0.00  0.00    +0.026 A 
ATOM     32  C   UNL     1      -6.058 -11.808  -8.754  0.00  0.00    +0.043 A 
ATOM     33  N   UNL     1      -7.008 -10.926  -8.951  0.00  0.00    -0.380 N 
ATOM     34  C   UNL     1      -7.185 -10.146  -7.721  0.00  0.00    +0.144 C 
ATOM     35  H   UNL     1      -7.512 -10.811  -9.772  0.00  0.00    +0.160 HD
ENDBRANCH  25  26
ENDBRANCH  24  25
ENDBRANCH   9  24
TORSDOF 7
