REMARK  Name = ZINC45323678
REMARK  10 active torsions:
REMARK  status: ('A' for Active; 'I' for Inactive)
REMARK    1  A    between atoms: C_1  and  N_2
REMARK    2  A    between atoms: N_2  and  C_3
REMARK    3  A    between atoms: N_2  and  C_4
REMARK    4  A    between atoms: C_4  and  C_6
REMARK    5  A    between atoms: C_4  and  C_29
REMARK    6  A    between atoms: C_6  and  N_7
REMARK    7  A    between atoms: C_8  and  C_10
REMARK    8  A    between atoms: C_12  and  C_23
REMARK    9  A    between atoms: C_13  and  C_15
REMARK   10  A    between atoms: C_19  and  O_21
REMARK                            x       y       z     vdW  Elec       q    Type
REMARK                         _______ _______ _______ _____ _____    ______ ____
ROOT
ATOM      1  C   UNL     1       1.438  -3.238   2.220  0.00  0.00    +0.191 A 
ATOM      2  C   UNL     1       2.136  -4.374   2.505  0.00  0.00    +0.063 A 
ATOM      3  C   UNL     1       2.868  -4.121   3.684  0.00  0.00    +0.029 A 
ATOM      4  C   UNL     1       2.569  -2.818   4.061  0.00  0.00    +0.144 A 
ATOM      5  O   UNL     1       1.712  -2.310   3.160  0.00  0.00    -0.450 OA
ENDROOT
BRANCH   4   6
ATOM      6  C   UNL     1       3.104  -2.114   5.241  0.00  0.00    +0.021 A 
ATOM      7  C   UNL     1       3.583  -0.806   5.120  0.00  0.00    +0.013 A 
ATOM      8  C   UNL     1       4.082  -0.151   6.225  0.00  0.00    +0.024 A 
ATOM      9  C   UNL     1       4.111  -0.783   7.456  0.00  0.00    +0.082 A 
ATOM     10  C   UNL     1       3.636  -2.083   7.587  0.00  0.00    +0.136 A 
ATOM     11  C   UNL     1       3.128  -2.749   6.485  0.00  0.00    +0.058 A 
ATOM     12 CL   UNL     1       4.741   0.050   8.842  0.00  0.00    -0.080 Cl
BRANCH  10  13
ATOM     13  O   UNL     1       3.667  -2.699   8.798  0.00  0.00    -0.505 OA
ATOM     14  H   UNL     1       2.869  -2.565   9.328  0.00  0.00    +0.292 HD
ENDBRANCH  10  13
ENDBRANCH   4   6
BRANCH   3  15
ATOM     15  C   UNL     1       3.775  -5.060   4.383  0.00  0.00    -0.011 A 
ATOM     16  C   UNL     1       5.098  -4.705   4.665  0.00  0.00    +0.028 A 
ATOM     17  C   UNL     1       5.909  -5.609   5.318  0.00  0.00    +0.111 A 
ATOM     18  N   UNL     1       5.452  -6.795   5.675  0.00  0.00    -0.263 NA
ATOM     19  C   UNL     1       4.211  -7.169   5.428  0.00  0.00    +0.111 A 
ATOM     20  C   UNL     1       3.331  -6.324   4.784  0.00  0.00    +0.028 A 
ENDBRANCH   3  15
BRANCH   1  22
ATOM     21  N   UNL     1      -0.092  -1.876   0.898  0.00  0.00    -0.310 N 
ATOM     22  C   UNL     1       0.540  -3.053   1.075  0.00  0.00    +0.279 C 
ATOM     23  O   UNL     1       0.366  -3.962   0.285  0.00  0.00    -0.267 OA
ATOM     24  H   UNL     1       0.047  -1.151   1.528  0.00  0.00    +0.149 HD
BRANCH  21  25
ATOM     25  C   UNL     1      -0.989  -1.691  -0.246  0.00  0.00    +0.094 C 
BRANCH  25  26
ATOM     26  C   UNL     1      -1.670  -0.325  -0.144  0.00  0.00    -0.021 C 
BRANCH  26  27
ATOM     27  C   UNL     1      -2.549  -0.292   1.079  0.00  0.00    -0.059 A 
ATOM     28  C   UNL     1      -3.800  -0.880   1.048  0.00  0.00    +0.002 A 
ATOM     29  C   UNL     1      -4.606  -0.850   2.170  0.00  0.00    +0.000 A 
ATOM     30  C   UNL     1      -4.162  -0.231   3.323  0.00  0.00    +0.000 A 
ATOM     31  C   UNL     1      -2.912   0.357   3.355  0.00  0.00    +0.000 A 
ATOM     32  C   UNL     1      -2.103   0.323   2.234  0.00  0.00    +0.002 A 
ENDBRANCH  26  27
BRANCH  26  34
ATOM     33  C   UNL     1      -3.181   1.194  -1.223  0.00  0.00    -0.096 C 
ATOM     34  N   UNL     1      -2.489  -0.096  -1.342  0.00  0.00    +0.382 N 
ATOM     35  C   UNL     1      -1.624  -0.080  -2.530  0.00  0.00    -0.096 C 
ATOM     36  H   UNL     1      -3.169  -0.836  -1.431  0.00  0.00    -0.082 HD
ENDBRANCH  26  34
ENDBRANCH  25  26
ENDBRANCH  21  25
ENDBRANCH   1  22
TORSDOF 8
