REMARK  Name = ZINC35926618
REMARK  6 active torsions:
REMARK  status: ('A' for Active; 'I' for Inactive)
REMARK    1  A    between atoms: C_1  and  C_2
REMARK    2  A    between atoms: C_5  and  C_8
REMARK    3  A    between atoms: C_23  and  C_25
REMARK    4  A    between atoms: C_25  and  N_26
REMARK    5  A    between atoms: N_29  and  C_32
REMARK    6  A    between atoms: C_32  and  C_33
REMARK                            x       y       z     vdW  Elec       q    Type
REMARK                         _______ _______ _______ _____ _____    ______ ____
ROOT
ATOM      1  C   UNL     1       0.059  -4.251  -0.021  0.00  0.00    +0.247 C 
ATOM      2  O   UNL     1       0.129  -3.038  -0.013  0.00  0.00    -0.270 OA
ATOM      3  N   UNL     1      -0.028  -4.929   1.140  0.00  0.00    -0.296 N 
ATOM      4  C   UNL     1       0.002  -6.390   1.080  0.00  0.00    +0.109 C 
ATOM      5  C   UNL     1       1.419  -6.843   1.371  0.00  0.00    +0.038 C 
ATOM      6  C   UNL     1       1.634  -6.983   2.880  0.00  0.00    +0.109 C 
ATOM      7  N   UNL     1       1.010  -5.892   3.644  0.00  0.00    -0.300 N 
ATOM      8  C   UNL     1       1.081  -4.498   3.242  0.00  0.00    +0.127 C 
ATOM      9  C   UNL     1      -0.137  -4.174   2.340  0.00  0.00    +0.127 C 
ATOM     10  C   UNL     1       0.330  -6.205   4.790  0.00  0.00    +0.198 A 
ATOM     11  N   UNL     1      -0.260  -5.213   5.510  0.00  0.00    -0.295 N 
ATOM     12  H   UNL     1      -0.197  -4.292   5.211  0.00  0.00    +0.172 HD
ATOM     13  C   UNL     1      -0.933  -5.514   6.640  0.00  0.00    +0.253 A 
ATOM     14  O   UNL     1      -1.468  -4.637   7.298  0.00  0.00    -0.268 OA
ATOM     15  C   UNL     1      -1.006  -6.859   7.045  0.00  0.00    +0.091 A 
ATOM     16  C   UNL     1      -0.395  -7.812   6.283  0.00  0.00    +0.034 A 
ATOM     17  N   UNL     1       0.253  -7.464   5.173  0.00  0.00    -0.223 NA
ENDROOT
BRANCH   1  22
ATOM     18  C   UNL     1       0.104  -7.102  -5.020  0.00  0.00    +0.044 C 
ATOM     19  C   UNL     1       0.092  -6.356  -3.711  0.00  0.00    -0.050 A 
ATOM     20  C   UNL     1      -0.817  -5.332  -3.510  0.00  0.00    +0.004 A 
ATOM     21  C   UNL     1      -0.833  -4.645  -2.314  0.00  0.00    +0.013 A 
ATOM     22  C   UNL     1       0.070  -4.984  -1.306  0.00  0.00    +0.037 A 
ATOM     23  C   UNL     1       0.985  -6.018  -1.515  0.00  0.00    +0.013 A 
ATOM     24  C   UNL     1       0.987  -6.700  -2.713  0.00  0.00    +0.004 A 
ENDBRANCH   1  22
BRANCH  16  25
ATOM     25  C   UNL     1      -0.458  -9.260   6.695  0.00  0.00    -0.022 C 
BRANCH  25  26
ATOM     26  N   UNL     1      -1.216 -10.021   5.693  0.00  0.00    +0.385 N 
ATOM     27  C   UNL     1      -2.610  -9.558   5.679  0.00  0.00    -0.063 C 
ATOM     28  C   UNL     1      -3.396 -10.338   4.622  0.00  0.00    +0.066 C 
ATOM     29  N   UNL     1      -3.341 -11.773   4.936  0.00  0.00    -0.302 NA
ATOM     30  C   UNL     1      -1.950 -12.245   4.978  0.00  0.00    +0.066 C 
ATOM     31  C   UNL     1      -1.176 -11.450   6.031  0.00  0.00    -0.063 C 
ATOM     32  H   UNL     1      -0.806  -9.880   4.782  0.00  0.00    -0.081 HD
BRANCH  29  33
ATOM     33  C   UNL     1      -4.133 -12.552   3.974  0.00  0.00    +0.119 C 
BRANCH  33  34
ATOM     34  C   UNL     1      -4.257 -13.973   4.460  0.00  0.00    -0.033 A 
ATOM     35  C   UNL     1      -3.310 -14.913   4.098  0.00  0.00    +0.006 A 
ATOM     36  C   UNL     1      -3.424 -16.216   4.544  0.00  0.00    +0.020 A 
ATOM     37  C   UNL     1      -4.485 -16.580   5.353  0.00  0.00    +0.041 A 
ATOM     38  C   UNL     1      -5.433 -15.639   5.715  0.00  0.00    +0.020 A 
ATOM     39  C   UNL     1      -5.315 -14.335   5.273  0.00  0.00    +0.006 A 
ATOM     40 CL   UNL     1      -4.629 -18.217   5.912  0.00  0.00    -0.084 Cl
ENDBRANCH  33  34
ENDBRANCH  29  33
ENDBRANCH  25  26
ENDBRANCH  16  25
TORSDOF 5
