REMARK  Name = ZINC33014797
REMARK  7 active torsions:
REMARK  status: ('A' for Active; 'I' for Inactive)
REMARK    1  A    between atoms: C_1  and  C_2
REMARK    2  A    between atoms: C_2  and  C_3
REMARK    3  A    between atoms: C_2  and  C_4
REMARK    4  A    between atoms: C_7  and  N_10
REMARK    5  A    between atoms: C_20  and  N_21
REMARK    6  A    between atoms: N_21  and  N_22
REMARK    7  A    between atoms: C_23  and  C_25
REMARK                            x       y       z     vdW  Elec       q    Type
REMARK                         _______ _______ _______ _____ _____    ______ ____
ROOT
ATOM      1  N   UNL     1       0.996   7.706  -0.174  0.00  0.00    -0.202 N 
ATOM      2  C   UNL     1       2.072   8.337   0.322  0.00  0.00    +0.258 C 
ATOM      3  O   UNL     1       1.952   9.461   0.771  0.00  0.00    -0.269 OA
ATOM      4  C   UNL     1       3.392   7.694   0.332  0.00  0.00    +0.046 A 
ATOM      5  C   UNL     1       4.514   8.344   0.846  0.00  0.00    +0.014 A 
ATOM      6  C   UNL     1       5.736   7.706   0.837  0.00  0.00    +0.001 A 
ATOM      7  C   UNL     1       5.862   6.424   0.323  0.00  0.00    +0.001 A 
ATOM      8  C   UNL     1       4.765   5.763  -0.191  0.00  0.00    +0.009 A 
ATOM      9  C   UNL     1       3.525   6.390  -0.191  0.00  0.00    +0.000 A 
ATOM     10  C   UNL     1       2.318   5.728  -0.728  0.00  0.00    +0.060 C 
ATOM     11  C   UNL     1       2.381   4.455  -1.251  0.00  0.00    +0.101 C 
ATOM     12  C   UNL     1       1.052   6.468  -0.692  0.00  0.00    +0.259 C 
ATOM     13  O   UNL     1       0.040   5.952  -1.131  0.00  0.00    -0.269 OA
ENDROOT
BRANCH   1  17
ATOM     14  C   UNL     1      -2.673   9.682  -0.122  0.00  0.00    -0.045 A 
ATOM     15  C   UNL     1      -2.248   8.987   0.996  0.00  0.00    +0.006 A 
ATOM     16  C   UNL     1      -1.032   8.331   0.981  0.00  0.00    +0.024 A 
ATOM     17  C   UNL     1      -0.237   8.370  -0.157  0.00  0.00    +0.045 A 
ATOM     18  C   UNL     1      -0.665   9.073  -1.275  0.00  0.00    +0.024 A 
ATOM     19  C   UNL     1      -1.883   9.723  -1.256  0.00  0.00    +0.006 A 
BRANCH  14  21
ATOM     20  C   UNL     1      -3.778  11.890  -0.346  0.00  0.00    +0.012 C 
ATOM     21  C   UNL     1      -4.000  10.396  -0.103  0.00  0.00    +0.013 C 
ATOM     22  C   UNL     1      -4.901   9.828  -1.202  0.00  0.00    +0.012 C 
ENDBRANCH  14  21
ENDBRANCH   1  17
BRANCH  11  23
ATOM     23  N   UNL     1       1.287   3.909  -1.843  0.00  0.00    -0.271 N 
ATOM     24  H   UNL     1       0.384   4.518  -1.998  0.00  0.00    +0.169 HD
BRANCH  23  25
ATOM     25  N   UNL     1       1.309   2.571  -2.257  0.00  0.00    -0.232 N 
ATOM     26  C   UNL     1       0.223   2.029  -2.844  0.00  0.00    +0.268 C 
ATOM     27  O   UNL     1      -0.774   2.704  -3.019  0.00  0.00    -0.268 OA
ATOM     28  H   UNL     1       2.212   1.962  -2.102  0.00  0.00    +0.173 HD
BRANCH  26  29
ATOM     29  C   UNL     1       0.246   0.626  -3.277  0.00  0.00    +0.095 A 
ATOM     30  C   UNL     1      -0.740  -0.091  -3.881  0.00  0.00    +0.068 A 
ATOM     31  C   UNL     1      -0.519  -1.439  -4.222  0.00  0.00    +0.008 A 
ATOM     32  C   UNL     1      -1.413  -2.344  -4.850  0.00  0.00    +0.010 A 
ATOM     33  C   UNL     1      -1.038  -3.623  -5.110  0.00  0.00    +0.001 A 
ATOM     34  C   UNL     1       0.225  -4.094  -4.774  0.00  0.00    +0.001 A 
ATOM     35  C   UNL     1       1.126  -3.247  -4.161  0.00  0.00    +0.016 A 
ATOM     36  C   UNL     1       0.760  -1.946  -3.891  0.00  0.00    +0.021 A 
ATOM     37  S   UNL     1       1.577  -0.556  -3.148  0.00  0.00    -0.082 S 
ATOM     38 CL   UNL     1      -2.268   0.656  -4.233  0.00  0.00    -0.082 Cl
ENDBRANCH  26  29
ENDBRANCH  23  25
ENDBRANCH  11  23
TORSDOF 5
