REMARK  Name = ZINC60343152
REMARK  12 active torsions:
REMARK  status: ('A' for Active; 'I' for Inactive)
REMARK    1  A    between atoms: C_1  and  C_2
REMARK    2  A    between atoms: C_2  and  C_4
REMARK    3  A    between atoms: C_2  and  N_24
REMARK    4  A    between atoms: N_10  and  C_11
REMARK    5  A    between atoms: C_11  and  C_12
REMARK    6  A    between atoms: N_17  and  C_18
REMARK    7  A    between atoms: C_18  and  C_19
REMARK    8  A    between atoms: C_25  and  O_27
REMARK    9  A    between atoms: O_27  and  C_28
REMARK   10  A    between atoms: C_28  and  C_29
REMARK   11  A    between atoms: C_28  and  C_30
REMARK   12  A    between atoms: C_28  and  C_31
REMARK                            x       y       z     vdW  Elec       q    Type
REMARK                         _______ _______ _______ _____ _____    ______ ____
ROOT
ATOM      1  C   UNL     1       0.528  -0.616   1.163  0.00  0.00    -0.047 C 
ATOM      2  C   UNL     1       0.548  -2.141   1.038  0.00  0.00    -0.014 C 
ATOM      3  C   UNL     1       1.355  -2.732   2.198  0.00  0.00    -0.003 C 
ATOM      4  C   UNL     1       0.744  -2.265   3.522  0.00  0.00    -0.019 C 
ATOM      5  C   UNL     1       0.717  -0.736   3.554  0.00  0.00    -0.078 C 
ATOM      6  N   UNL     1      -0.091  -0.234   2.437  0.00  0.00    +0.388 N 
ATOM      7  H   UNL     1      -1.019  -0.627   2.490  0.00  0.00    -0.081 HD
ENDROOT
BRANCH   1   9
ATOM      8  C   UNL     1       0.355  -0.439  -1.324  0.00  0.00    +0.026 C 
ATOM      9  C   UNL     1      -0.277  -0.021   0.006  0.00  0.00    +0.060 C 
BRANCH   9  10
ATOM     10  N   UNL     1      -1.656  -0.513   0.067  0.00  0.00    -0.280 N 
ATOM     11  C   UNL     1      -2.653   0.207  -0.485  0.00  0.00    +0.401 C 
ATOM     12  O   UNL     1      -2.408   1.263  -1.033  0.00  0.00    -0.226 OA
ATOM     13  H   UNL     1      -1.851  -1.356   0.504  0.00  0.00    +0.152 HD
BRANCH  11  14
ATOM     14  O   UNL     1      -3.920  -0.245  -0.429  0.00  0.00    -0.445 OA
BRANCH  14  15
ATOM     15  C   UNL     1      -4.926   0.569  -1.035  0.00  0.00    +0.107 C 
ATOM     16  C   UNL     1      -4.616   0.740  -2.523  0.00  0.00    +0.055 C 
ATOM     17  C   UNL     1      -6.291  -0.103  -0.872  0.00  0.00    +0.055 C 
ATOM     18  C   UNL     1      -4.949   1.940  -0.357  0.00  0.00    +0.055 C 
ENDBRANCH  14  15
ENDBRANCH  11  14
ENDBRANCH   9  10
ENDBRANCH   1   9
BRANCH   6  19
ATOM     19  C   UNL     1      -0.179   1.231   2.517  0.00  0.00    +0.019 C 
BRANCH  19  20
ATOM     20  C   UNL     1      -0.957   1.621   3.748  0.00  0.00    +0.204 C 
ATOM     21  O   UNL     1      -1.396   0.763   4.484  0.00  0.00    -0.277 OA
ATOM     22  N   UNL     1      -1.166   2.922   4.028  0.00  0.00    -0.242 N 
ATOM     23  C   UNL     1      -1.862   3.271   5.128  0.00  0.00    +0.306 C 
ATOM     24  O   UNL     1      -2.302   2.412   5.867  0.00  0.00    -0.252 OA
ATOM     25  N   UNL     1      -2.071   4.572   5.410  0.00  0.00    -0.294 N 
ATOM     26  H   UNL     1      -0.815   3.608   3.439  0.00  0.00    +0.159 HD
ATOM     27  H   UNL     1      -1.720   5.258   4.820  0.00  0.00    +0.151 HD
BRANCH  25  28
ATOM     28  C   UNL     1      -2.828   4.951   6.605  0.00  0.00    +0.148 C 
BRANCH  28  29
ATOM     29  C   UNL     1      -2.917   6.453   6.688  0.00  0.00    +0.007 A 
ATOM     30  C   UNL     1      -3.864   7.281   6.181  0.00  0.00    +0.013 A 
ATOM     31  C   UNL     1      -3.741   8.643   6.383  0.00  0.00    +0.008 A 
ATOM     32  C   UNL     1      -2.677   9.111   7.081  0.00  0.00    +0.045 A 
ATOM     33  S   UNL     1      -1.809   7.604   7.484  0.00  0.00    -0.100 S 
ENDBRANCH  28  29
ENDBRANCH  25  28
ENDBRANCH  19  20
ENDBRANCH   6  19
TORSDOF 8
