REMARK  Name = ZINC35705858
REMARK  12 active torsions:
REMARK  status: ('A' for Active; 'I' for Inactive)
REMARK    1  A    between atoms: C_1  and  C_2
REMARK    2  A    between atoms: C_2  and  C_3
REMARK    3  A    between atoms: C_3  and  C_5
REMARK    4  A    between atoms: C_3  and  N_6
REMARK    5  A    between atoms: C_7  and  C_9
REMARK    6  A    between atoms: C_12  and  C_14
REMARK    7  A    between atoms: C_14  and  N_15
REMARK    8  A    between atoms: N_15  and  C_16
REMARK    9  A    between atoms: N_15  and  C_24
REMARK   10  A    between atoms: C_16  and  C_17
REMARK   11  A    between atoms: C_20  and  C_23
REMARK   12  A    between atoms: C_24  and  C_25
REMARK                            x       y       z     vdW  Elec       q    Type
REMARK                         _______ _______ _______ _____ _____    ______ ____
ROOT
ATOM      1  N   UNL     1      -3.999  -0.367  -7.108  0.00  0.00    +0.391 N 
ATOM      2  H   UNL     1      -3.321  -1.052  -6.809  0.00  0.00    -0.080 HD
ENDROOT
BRANCH   1   3
ATOM      3  C   UNL     1      -3.851   0.852  -6.303  0.00  0.00    +0.020 C 
BRANCH   3   7
ATOM      4  C   UNL     1      -3.436  -0.066  -2.823  0.00  0.00    +0.163 A 
ATOM      5  C   UNL     1      -4.783   0.128  -2.866  0.00  0.00    +0.230 A 
ATOM      6  O   UNL     1      -5.087   0.481  -4.125  0.00  0.00    -0.449 OA
ATOM      7  C   UNL     1      -3.953   0.504  -4.840  0.00  0.00    +0.179 A 
ATOM      8  N   UNL     1      -2.956   0.183  -4.072  0.00  0.00    -0.210 NA
BRANCH   4  10
ATOM      9  N   UNL     1      -1.311  -0.615  -1.747  0.00  0.00    -0.307 N 
ATOM     10  C   UNL     1      -2.646  -0.465  -1.644  0.00  0.00    +0.266 C 
ATOM     11  O   UNL     1      -3.200  -0.659  -0.579  0.00  0.00    -0.268 OA
ATOM     12  H   UNL     1      -0.870  -0.460  -2.597  0.00  0.00    +0.149 HD
BRANCH   9  13
ATOM     13  C   UNL     1      -0.526  -1.012  -0.576  0.00  0.00    +0.070 C 
ATOM     14  C   UNL     1      -0.539  -2.536  -0.445  0.00  0.00    +0.028 C 
BRANCH  13  16
ATOM     15  C   UNL     1       0.942   1.004  -0.745  0.00  0.00    +0.005 C 
ATOM     16  C   UNL     1       0.916  -0.526  -0.740  0.00  0.00    +0.018 C 
ENDBRANCH  13  16
ENDBRANCH   9  13
ENDBRANCH   4  10
ENDBRANCH   3   7
ENDBRANCH   1   3
BRANCH   1  17
ATOM     17  C   UNL     1      -3.780  -0.048  -8.525  0.00  0.00    -0.042 C 
BRANCH  17  18
ATOM     18  C   UNL     1      -2.349   0.374  -8.730  0.00  0.00    -0.064 A 
ATOM     19  C   UNL     1      -2.018   1.717  -8.734  0.00  0.00    +0.002 A 
ATOM     20  C   UNL     1      -0.704   2.104  -8.922  0.00  0.00    +0.003 A 
ATOM     21  C   UNL     1       0.279   1.150  -9.105  0.00  0.00    -0.050 A 
ATOM     22  C   UNL     1      -0.052  -0.192  -9.099  0.00  0.00    +0.003 A 
ATOM     23  C   UNL     1      -1.365  -0.580  -8.907  0.00  0.00    +0.002 A 
ATOM     24  C   UNL     1       1.710   1.573  -9.310  0.00  0.00    +0.044 C 
ENDBRANCH  17  18
ENDBRANCH   1  17
BRANCH   1  25
ATOM     25  C   UNL     1      -5.353  -0.909  -6.931  0.00  0.00    -0.042 C 
BRANCH  25  26
ATOM     26  C   UNL     1      -5.466  -2.226  -7.655  0.00  0.00    -0.060 A 
ATOM     27  C   UNL     1      -5.972  -2.265  -8.941  0.00  0.00    +0.005 A 
ATOM     28  C   UNL     1      -6.077  -3.470  -9.610  0.00  0.00    +0.050 A 
ATOM     29  C   UNL     1      -5.675  -4.643  -8.992  0.00  0.00    +0.166 A 
ATOM     30  C   UNL     1      -5.164  -4.604  -7.697  0.00  0.00    +0.166 A 
ATOM     31  C   UNL     1      -5.057  -3.392  -7.035  0.00  0.00    +0.051 A 
ATOM     32  O   UNL     1      -4.843  -5.875  -7.316  0.00  0.00    -0.453 OA
ATOM     33  C   UNL     1      -5.540  -6.739  -8.233  0.00  0.00    +0.466 C 
ATOM     34  O   UNL     1      -5.673  -5.938  -9.423  0.00  0.00    -0.453 OA
ENDBRANCH  25  26
ENDBRANCH   1  25
TORSDOF 9
