REMARK  Name = ZINC12709762
REMARK  11 active torsions:
REMARK  status: ('A' for Active; 'I' for Inactive)
REMARK    1  A    between atoms: C_1  and  C_2
REMARK    2  A    between atoms: C_2  and  N_72
REMARK    3  A    between atoms: C_6  and  C_8
REMARK    4  A    between atoms: C_8  and  N_9
REMARK    5  A    between atoms: N_9  and  C_10
REMARK    6  A    between atoms: C_10  and  C_11
REMARK    7  A    between atoms: C_15  and  O_25
REMARK    8  A    between atoms: C_16  and  O_23
REMARK    9  A    between atoms: O_23  and  C_24
REMARK   10  A    between atoms: O_25  and  C_26
REMARK   11  A    between atoms: N_29  and  C_30
REMARK                            x       y       z     vdW  Elec       q    Type
REMARK                         _______ _______ _______ _____ _____    ______ ____
ROOT
ATOM      1  N   UNL     1       0.591  -0.640   1.813  0.00  0.00    -0.283 N 
ATOM      2  C   UNL     1      -0.126  -0.670   2.954  0.00  0.00    +0.303 C 
ATOM      3  O   UNL     1       0.432  -0.851   4.019  0.00  0.00    -0.253 OA
ATOM      4  N   UNL     1      -1.462  -0.498   2.914  0.00  0.00    -0.296 N 
ATOM      5  H   UNL     1      -1.908  -0.353   2.065  0.00  0.00    +0.151 HD
ENDROOT
BRANCH   4   6
ATOM      6  C   UNL     1      -2.242  -0.531   4.154  0.00  0.00    +0.074 C 
ATOM      7  C   UNL     1      -2.585  -1.980   4.503  0.00  0.00    +0.022 C 
ATOM      8  C   UNL     1      -3.400  -2.014   5.798  0.00  0.00    +0.002 C 
ATOM      9  C   UNL     1      -4.691  -1.216   5.610  0.00  0.00    +0.000 C 
ATOM     10  C   UNL     1      -4.347   0.234   5.261  0.00  0.00    +0.002 C 
ATOM     11  C   UNL     1      -3.533   0.268   3.966  0.00  0.00    +0.022 C 
ENDBRANCH   4   6
BRANCH   1  12
ATOM     12  C   UNL     1      -0.082  -0.421   0.530  0.00  0.00    +0.094 C 
BRANCH  12  16
ATOM     13  C   UNL     1      -1.623   2.886   0.760  0.00  0.00    -0.078 C 
ATOM     14  C   UNL     1      -1.458   2.818  -0.773  0.00  0.00    -0.020 C 
ATOM     15  C   UNL     1      -1.017   1.349  -1.014  0.00  0.00    -0.016 C 
ATOM     16  C   UNL     1      -0.138   1.079   0.233  0.00  0.00    -0.051 C 
ATOM     17  N   UNL     1      -0.827   1.787   1.331  0.00  0.00    +0.382 N 
ATOM     18  H   UNL     1      -1.451   1.133   1.818  0.00  0.00    -0.081 HD
BRANCH  17  20
ATOM     19  C   UNL     1      -0.555   3.170   3.348  0.00  0.00    -0.017 C 
ATOM     20  C   UNL     1       0.166   2.321   2.298  0.00  0.00    -0.082 C 
ENDBRANCH  17  20
ENDBRANCH  12  16
ENDBRANCH   1  12
BRANCH   1  21
ATOM     21  C   UNL     1       2.044  -0.826   1.856  0.00  0.00    +0.149 C 
BRANCH  21  22
ATOM     22  C   UNL     1       2.717   0.513   2.018  0.00  0.00    +0.035 A 
ATOM     23  C   UNL     1       3.056   0.954   3.256  0.00  0.00    +0.020 A 
ATOM     24  C   UNL     1       3.714   2.254   3.380  0.00  0.00    +0.003 A 
ATOM     25  C   UNL     1       4.092   2.756   4.632  0.00  0.00    +0.059 A 
ATOM     26  C   UNL     1       4.705   3.986   4.715  0.00  0.00    +0.162 A 
ATOM     27  C   UNL     1       4.950   4.732   3.558  0.00  0.00    +0.163 A 
ATOM     28  C   UNL     1       4.581   4.246   2.318  0.00  0.00    +0.075 A 
ATOM     29  C   UNL     1       3.961   3.007   2.215  0.00  0.00    +0.053 A 
ATOM     30  N   UNL     1       3.586   2.504   0.986  0.00  0.00    -0.322 N 
ATOM     31  H   UNL     1       3.756   3.023   0.185  0.00  0.00    +0.169 HD
ATOM     32  C   UNL     1       2.987   1.305   0.883  0.00  0.00    +0.254 A 
ATOM     33  O   UNL     1       2.668   0.892  -0.219  0.00  0.00    -0.268 OA
BRANCH  27  34
ATOM     34  O   UNL     1       5.555   5.945   3.654  0.00  0.00    -0.491 OA
ATOM     35  C   UNL     1       5.776   6.657   2.435  0.00  0.00    +0.277 C 
ENDBRANCH  27  34
BRANCH  26  36
ATOM     36  O   UNL     1       5.074   4.478   5.929  0.00  0.00    -0.491 OA
ATOM     37  C   UNL     1       4.795   3.664   7.070  0.00  0.00    +0.277 C 
ENDBRANCH  26  36
ENDBRANCH  21  22
ENDBRANCH   1  21
TORSDOF 8
