REMARK  Name = ZINC64869381
REMARK  13 active torsions:
REMARK  status: ('A' for Active; 'I' for Inactive)
REMARK    1  A    between atoms: C_1  and  C_2
REMARK    2  A    between atoms: C_2  and  O_3
REMARK    3  A    between atoms: O_3  and  C_4
REMARK    4  A    between atoms: C_4  and  C_6
REMARK    5  A    between atoms: C_6  and  C_7
REMARK    6  A    between atoms: N_11  and  C_21
REMARK    7  A    between atoms: C_14  and  C_20
REMARK    8  A    between atoms: C_15  and  C_19
REMARK    9  A    between atoms: C_21  and  C_22
REMARK   10  A    between atoms: N_24  and  C_25
REMARK   11  A    between atoms: C_27  and  C_33
REMARK   12  A    between atoms: C_30  and  O_31
REMARK   13  A    between atoms: O_31  and  C_32
REMARK                            x       y       z     vdW  Elec       q    Type
REMARK                         _______ _______ _______ _____ _____    ______ ____
ROOT
ATOM      1  C   UNL     1      -3.068  -3.673   1.433  0.00  0.00    +0.024 C 
ATOM      2  C   UNL     1      -3.184  -4.556   2.444  0.00  0.00    +0.087 C 
ATOM      3  C   UNL     1      -3.039  -5.963   2.427  0.00  0.00    +0.246 C 
ATOM      4  O   UNL     1      -3.200  -6.521   3.497  0.00  0.00    -0.270 OA
ATOM      5  N   UNL     1      -2.748  -6.770   1.387  0.00  0.00    -0.257 N 
ATOM      6  C   UNL     1      -2.514  -6.410   0.049  0.00  0.00    +0.058 A 
ATOM      7  C   UNL     1      -2.243  -7.513  -0.742  0.00  0.00    +0.029 A 
ATOM      8  C   UNL     1      -1.986  -7.348  -2.092  0.00  0.00    -0.046 A 
ATOM      9  C   UNL     1      -2.000  -6.085  -2.653  0.00  0.00    -0.046 A 
ATOM     10  C   UNL     1      -2.270  -4.977  -1.868  0.00  0.00    +0.028 A 
ATOM     11  C   UNL     1      -2.527  -5.136  -0.517  0.00  0.00    +0.053 A 
ATOM     12  N   UNL     1      -2.784  -3.907   0.113  0.00  0.00    -0.316 N 
ATOM     13  C   UNL     1      -1.718  -5.913  -4.123  0.00  0.00    +0.044 C 
ATOM     14  C   UNL     1      -1.691  -8.549  -2.953  0.00  0.00    +0.044 C 
ATOM     15  H   UNL     1      -2.750  -3.123  -0.457  0.00  0.00    +0.152 HD
ENDROOT
BRANCH   1  16
ATOM     16  C   UNL     1      -3.288  -2.229   1.804  0.00  0.00    +0.171 C 
BRANCH  16  17
ATOM     17  C   UNL     1      -1.960  -1.574   2.083  0.00  0.00    +0.313 C 
ATOM     18  O   UNL     1      -0.940  -2.214   1.991  0.00  0.00    -0.250 OA
BRANCH  17  19
ATOM     19  O   UNL     1      -1.911  -0.280   2.435  0.00  0.00    -0.465 OA
BRANCH  19  21
ATOM     20  C   UNL     1      -0.763   1.750   3.069  0.00  0.00    +0.048 C 
ATOM     21  C   UNL     1      -0.619   0.276   2.685  0.00  0.00    +0.229 C 
ENDBRANCH  19  21
ENDBRANCH  17  19
ENDBRANCH  16  17
ENDBRANCH   1  16
BRANCH   5  22
ATOM     22  C   UNL     1      -2.665  -8.201   1.689  0.00  0.00    +0.210 C 
BRANCH  22  23
ATOM     23  C   UNL     1      -1.223  -8.589   1.894  0.00  0.00    +0.235 C 
ATOM     24  O   UNL     1      -0.351  -7.752   1.796  0.00  0.00    -0.274 OA
ATOM     25  N   UNL     1      -0.903  -9.865   2.184  0.00  0.00    -0.281 N 
ATOM     26  H   UNL     1      -1.590 -10.550   2.182  0.00  0.00    +0.155 HD
BRANCH  25  27
ATOM     27  C   UNL     1       0.421 -10.203   2.491  0.00  0.00    +0.076 A 
ATOM     28  C   UNL     1       1.315  -9.220   2.893  0.00  0.00    +0.030 A 
ATOM     29  C   UNL     1       2.620  -9.556   3.196  0.00  0.00    -0.048 A 
ATOM     30  C   UNL     1       3.041 -10.870   3.099  0.00  0.00    +0.007 A 
ATOM     31  C   UNL     1       2.156 -11.854   2.699  0.00  0.00    +0.048 A 
ATOM     32  C   UNL     1       0.844 -11.527   2.399  0.00  0.00    +0.141 A 
ATOM     33  C   UNL     1       3.589  -8.487   3.632  0.00  0.00    +0.044 C 
BRANCH  32  34
ATOM     34  O   UNL     1      -0.028 -12.495   2.011  0.00  0.00    -0.493 OA
ATOM     35  C   UNL     1       0.475 -13.831   1.939  0.00  0.00    +0.277 C 
ENDBRANCH  32  34
ENDBRANCH  25  27
ENDBRANCH  22  23
ENDBRANCH   5  22
TORSDOF 8
