REMARK  Name = ZINC28248693
REMARK  7 active torsions:
REMARK  status: ('A' for Active; 'I' for Inactive)
REMARK    1  A    between atoms: C_1  and  C_2
REMARK    2  A    between atoms: C_5  and  O_19
REMARK    3  A    between atoms: C_6  and  S_8
REMARK    4  A    between atoms: S_8  and  N_11
REMARK    5  A    between atoms: C_14  and  C_18
REMARK    6  A    between atoms: C_15  and  C_17
REMARK    7  A    between atoms: O_19  and  C_20
REMARK                            x       y       z     vdW  Elec       q    Type
REMARK                         _______ _______ _______ _____ _____    ______ ____
ROOT
ATOM      1  S   UNL     1       4.107  -1.240   0.091  0.00  0.00    +0.105 S 
ATOM      2  O   UNL     1       4.724  -2.519   0.032  0.00  0.00    -0.146 OA
ATOM      3  O   UNL     1       4.366  -0.225  -0.869  0.00  0.00    -0.146 OA
ENDROOT
BRANCH   1   4
ATOM      4  N   UNL     1       2.472  -1.503   0.072  0.00  0.00    -0.103 NA
ATOM      5  C   UNL     1       1.907  -2.418   0.947  0.00  0.00    +0.192 A 
ATOM      6  N   UNL     1       2.506  -3.233   1.794  0.00  0.00    -0.336 N 
ATOM      7  C   UNL     1       1.810  -4.050   2.563  0.00  0.00    +0.025 A 
ATOM      8  C   UNL     1       0.459  -4.035   2.466  0.00  0.00    +0.009 A 
ATOM      9  S   UNL     1       0.230  -2.785   1.209  0.00  0.00    -0.053 S 
ATOM     10  C   UNL     1      -0.568  -4.844   3.215  0.00  0.00    +0.053 C 
ATOM     11  C   UNL     1       2.503  -4.977   3.529  0.00  0.00    +0.064 C 
ATOM     12  H   UNL     1       3.603  -3.241   1.868  0.00  0.00    +0.168 HD
ENDBRANCH   1   4
BRANCH   1  18
ATOM     13  C   UNL     1       6.506  -1.502   4.726  0.00  0.00    +0.044 C 
ATOM     14  C   UNL     1       5.627  -0.731   3.775  0.00  0.00    -0.048 A 
ATOM     15  C   UNL     1       5.138   0.511   4.139  0.00  0.00    +0.007 A 
ATOM     16  C   UNL     1       4.333   1.219   3.270  0.00  0.00    +0.048 A 
ATOM     17  C   UNL     1       4.020   0.688   2.027  0.00  0.00    +0.147 A 
ATOM     18  C   UNL     1       4.507  -0.559   1.665  0.00  0.00    +0.154 A 
ATOM     19  C   UNL     1       5.312  -1.265   2.539  0.00  0.00    +0.036 A 
BRANCH  17  20
ATOM     20  O   UNL     1       3.233   1.386   1.166  0.00  0.00    -0.493 OA
ATOM     21  C   UNL     1       2.666   2.606   1.650  0.00  0.00    +0.277 C 
ENDBRANCH  17  20
ENDBRANCH   1  18
TORSDOF 3
