REMARK  Name = ZINC14467663
REMARK  8 active torsions:
REMARK  status: ('A' for Active; 'I' for Inactive)
REMARK    1  A    between atoms: C_1  and  C_2
REMARK    2  A    between atoms: C_2  and  C_3
REMARK    3  A    between atoms: C_2  and  C_4
REMARK    4  A    between atoms: C_4  and  C_5
REMARK    5  A    between atoms: C_5  and  O_6
REMARK    6  A    between atoms: O_6  and  C_7
REMARK    7  A    between atoms: C_20  and  C_23
REMARK    8  A    between atoms: C_28  and  O_29
REMARK                            x       y       z     vdW  Elec       q    Type
REMARK                         _______ _______ _______ _____ _____    ______ ____
ROOT
ATOM      1  C   UNL     1       3.358   1.693   3.917  0.00  0.00    +0.121 A 
ATOM      2  C   UNL     1       3.922   2.583   3.014  0.00  0.00    +0.047 A 
ATOM      3  C   UNL     1       5.202   3.055   3.215  0.00  0.00    +0.027 A 
ATOM      4  C   UNL     1       5.942   2.636   4.314  0.00  0.00    +0.032 A 
ATOM      5  C   UNL     1       5.368   1.742   5.224  0.00  0.00    -0.016 A 
ATOM      6  C   UNL     1       4.087   1.276   5.021  0.00  0.00    +0.051 A 
ATOM      7  C   UNL     1       6.180   1.343   6.394  0.00  0.00    +0.049 C 
ATOM      8  C   UNL     1       5.986   0.037   7.075  0.00  0.00    -0.023 C 
ATOM      9  C   UNL     1       7.152  -0.361   7.569  0.00  0.00    -0.030 C 
ATOM     10  C   UNL     1       8.242   0.654   7.219  0.00  0.00    +0.033 C 
ATOM     11  C   UNL     1       7.669   1.268   5.940  0.00  0.00    +0.029 C 
ATOM     12  C   UNL     1       8.074   2.700   5.639  0.00  0.00    +0.109 C 
ATOM     13  N   UNL     1       7.252   3.109   4.479  0.00  0.00    -0.336 N 
ATOM     14  H   UNL     1       7.626   3.716   3.821  0.00  0.00    +0.147 HD
ENDROOT
BRANCH  12  15
ATOM     15  C   UNL     1       7.780   3.584   6.823  0.00  0.00    +0.017 A 
ATOM     16  C   UNL     1       6.595   4.293   6.879  0.00  0.00    +0.029 A 
ATOM     17  C   UNL     1       6.322   5.101   7.968  0.00  0.00    +0.043 A 
ATOM     18  C   UNL     1       7.239   5.209   8.999  0.00  0.00    +0.043 A 
ATOM     19  C   UNL     1       8.428   4.506   8.945  0.00  0.00    +0.084 A 
ATOM     20  C   UNL     1       8.700   3.690   7.854  0.00  0.00    +0.140 A 
ATOM     21 CL   UNL     1       9.578   4.641  10.238  0.00  0.00    -0.080 Cl
ATOM     22 CL   UNL     1       4.830   5.986   8.039  0.00  0.00    -0.083 Cl
BRANCH  20  23
ATOM     23  O   UNL     1       9.869   2.997   7.798  0.00  0.00    -0.505 OA
ATOM     24  H   UNL     1      10.590   3.477   7.369  0.00  0.00    +0.292 HD
ENDBRANCH  20  23
ENDBRANCH  12  15
BRANCH   1  25
ATOM     25  O   UNL     1       2.096   1.228   3.719  0.00  0.00    -0.492 OA
BRANCH  25  26
ATOM     26  C   UNL     1       1.405   1.701   2.561  0.00  0.00    +0.229 C 
BRANCH  26  27
ATOM     27  C   UNL     1       0.011   1.072   2.506  0.00  0.00    +0.044 C 
BRANCH  27  29
ATOM     28  C   UNL     1      -0.013   1.086   0.008  0.00  0.00    +0.007 C 
ATOM     29  C   UNL     1      -0.729   1.579   1.267  0.00  0.00    -0.014 C 
ATOM     30  C   UNL     1      -2.164   1.050   1.278  0.00  0.00    +0.007 C 
ENDBRANCH  27  29
ENDBRANCH  26  27
ENDBRANCH  25  26
ENDBRANCH   1  25
TORSDOF 6
