REMARK  Name = ZINC14460017
REMARK  10 active torsions:
REMARK  status: ('A' for Active; 'I' for Inactive)
REMARK    1  A    between atoms: C_1  and  C_2
REMARK    2  A    between atoms: C_2  and  C_3
REMARK    3  A    between atoms: C_3  and  C_5
REMARK    4  A    between atoms: C_3  and  N_6
REMARK    5  A    between atoms: N_6  and  S_7
REMARK    6  A    between atoms: S_7  and  C_10
REMARK    7  A    between atoms: C_23  and  C_26
REMARK    8  A    between atoms: C_30  and  O_33
REMARK    9  A    between atoms: C_31  and  O_32
REMARK   10  A    between atoms: O_33  and  C_34
REMARK                            x       y       z     vdW  Elec       q    Type
REMARK                         _______ _______ _______ _____ _____    ______ ____
ROOT
ATOM      1  C   UNL     1       5.741   0.367   1.645  0.00  0.00    +0.106 A 
ATOM      2  C   UNL     1       5.975   0.514   0.289  0.00  0.00    +0.030 A 
ATOM      3  C   UNL     1       5.239   1.418  -0.448  0.00  0.00    +0.025 A 
ATOM      4  C   UNL     1       4.257   2.188   0.164  0.00  0.00    +0.031 A 
ATOM      5  C   UNL     1       4.016   2.025   1.533  0.00  0.00    -0.018 A 
ATOM      6  C   UNL     1       4.762   1.125   2.262  0.00  0.00    +0.034 A 
ATOM      7  C   UNL     1       2.932   2.830   2.136  0.00  0.00    +0.049 C 
ATOM      8  C   UNL     1       2.940   3.209   3.572  0.00  0.00    -0.023 C 
ATOM      9  C   UNL     1       2.330   4.381   3.704  0.00  0.00    -0.030 C 
ATOM     10  C   UNL     1       1.889   4.899   2.334  0.00  0.00    +0.033 C 
ATOM     11  C   UNL     1       2.910   4.215   1.422  0.00  0.00    +0.029 C 
ATOM     12  C   UNL     1       2.460   3.930   0.000  0.00  0.00    +0.109 C 
ATOM     13  N   UNL     1       3.534   3.110  -0.602  0.00  0.00    -0.336 N 
ATOM     14  H   UNL     1       3.740   3.213  -1.544  0.00  0.00    +0.147 HD
ENDROOT
BRANCH  12  15
ATOM     15  C   UNL     1       1.162   3.164   0.008  0.00  0.00    +0.018 A 
ATOM     16  C   UNL     1       1.176   1.782   0.000  0.00  0.00    +0.009 A 
ATOM     17  C   UNL     1      -0.013   1.076   0.008  0.00  0.00    +0.004 A 
ATOM     18  C   UNL     1      -1.220   1.749   0.017  0.00  0.00    +0.049 A 
ATOM     19  C   UNL     1      -1.241   3.134   0.031  0.00  0.00    +0.162 A 
ATOM     20  C   UNL     1      -0.044   3.845   0.024  0.00  0.00    +0.163 A 
BRANCH  20  21
ATOM     21  O   UNL     1      -0.059   5.205   0.031  0.00  0.00    -0.503 OA
ATOM     22  H   UNL     1      -0.072   5.603  -0.850  0.00  0.00    +0.292 HD
ENDBRANCH  20  21
BRANCH  19  23
ATOM     23  O   UNL     1      -2.428   3.798   0.046  0.00  0.00    -0.491 OA
ATOM     24  C   UNL     1      -3.615   3.004   0.052  0.00  0.00    +0.277 C 
ENDBRANCH  19  23
ENDBRANCH  12  15
BRANCH   1  25
ATOM     25  S   UNL     1       6.689  -0.783   2.584  0.00  0.00    +0.059 S 
ATOM     26  O   UNL     1       5.906  -1.123   3.720  0.00  0.00    -0.153 OA
ATOM     27  O   UNL     1       7.167  -1.759   1.669  0.00  0.00    -0.153 OA
BRANCH  25  28
ATOM     28  N   UNL     1       8.018   0.026   3.151  0.00  0.00    -0.187 NA
ATOM     29  H   UNL     1       8.905  -0.228   2.851  0.00  0.00    +0.148 HD
BRANCH  28  30
ATOM     30  C   UNL     1       7.855   1.124   4.106  0.00  0.00    +0.073 C 
ATOM     31  C   UNL     1       8.025   0.591   5.531  0.00  0.00    +0.025 C 
BRANCH  30  33
ATOM     32  C   UNL     1       8.664   2.818   2.458  0.00  0.00    +0.005 C 
ATOM     33  C   UNL     1       8.911   2.198   3.834  0.00  0.00    +0.017 C 
ENDBRANCH  30  33
ENDBRANCH  28  30
ENDBRANCH  25  28
ENDBRANCH   1  25
TORSDOF 7
