REMARK  Name = ZINC36500644
REMARK  18 active torsions:
REMARK  status: ('A' for Active; 'I' for Inactive)
REMARK    1  A    between atoms: C_1  and  C_2
REMARK    2  A    between atoms: C_2  and  C_3
REMARK    3  A    between atoms: C_2  and  C_4
REMARK    4  A    between atoms: C_2  and  C_5
REMARK    5  A    between atoms: C_5  and  C_6
REMARK    6  A    between atoms: C_6  and  C_7
REMARK    7  A    between atoms: C_6  and  C_8
REMARK    8  A    between atoms: C_6  and  N_9
REMARK    9  A    between atoms: C_10  and  C_12
REMARK   10  A    between atoms: C_12  and  C_14
REMARK   11  A    between atoms: C_12  and  N_22
REMARK   12  A    between atoms: C_17  and  O_20
REMARK   13  A    between atoms: O_20  and  C_21
REMARK   14  A    between atoms: N_22  and  C_23
REMARK   15  A    between atoms: C_23  and  C_24
REMARK   16  A    between atoms: C_29  and  C_31
REMARK   17  A    between atoms: C_32  and  O_38
REMARK   18  A    between atoms: C_36  and  O_37
REMARK                            x       y       z     vdW  Elec       q    Type
REMARK                         _______ _______ _______ _____ _____    ______ ____
ROOT
ATOM      1  C   UNL     1       5.194  -0.238  -4.292  0.00  0.00    +0.193 C 
ENDROOT
BRANCH   1   2
ATOM      2  C   UNL     1       4.263   0.615  -5.115  0.00  0.00    -0.018 A 
ATOM      3  C   UNL     1       4.406   1.990  -5.116  0.00  0.00    +0.009 A 
ATOM      4  C   UNL     1       3.554   2.774  -5.869  0.00  0.00    +0.046 A 
ATOM      5  C   UNL     1       2.554   2.180  -6.626  0.00  0.00    +0.120 A 
ATOM      6  C   UNL     1       2.413   0.800  -6.624  0.00  0.00    +0.046 A 
ATOM      7  C   UNL     1       3.271   0.020  -5.873  0.00  0.00    +0.009 A 
BRANCH   5   8
ATOM      8  O   UNL     1       1.714   2.949  -7.367  0.00  0.00    -0.495 OA
ATOM      9  C   UNL     1       0.708   2.270  -8.122  0.00  0.00    +0.277 C 
ENDBRANCH   5   8
ENDBRANCH   1   2
BRANCH   1  11
ATOM     10  N   UNL     1       3.497  -0.906  -2.621  0.00  0.00    -0.308 N 
ATOM     11  C   UNL     1       4.682  -0.318  -2.877  0.00  0.00    +0.239 C 
ATOM     12  O   UNL     1       5.337   0.147  -1.968  0.00  0.00    -0.273 OA
ATOM     13  H   UNL     1       2.973  -1.278  -3.347  0.00  0.00    +0.149 HD
BRANCH  10  14
ATOM     14  C   UNL     1       3.000  -0.983  -1.245  0.00  0.00    +0.030 C 
ATOM     15  C   UNL     1       3.229   0.357  -0.543  0.00  0.00    +0.031 C 
ATOM     16  C   UNL     1       3.748  -2.087  -0.494  0.00  0.00    +0.031 C 
BRANCH  14  17
ATOM     17  C   UNL     1       1.503  -1.301  -1.260  0.00  0.00    +0.031 C 
BRANCH  17  19
ATOM     18  C   UNL     1       0.971  -1.116  -3.694  0.00  0.00    +0.010 C 
ATOM     19  C   UNL     1       0.812  -0.449  -2.326  0.00  0.00    -0.036 C 
ATOM     20  C   UNL     1       1.449   0.942  -2.360  0.00  0.00    +0.010 C 
ATOM     21  C   UNL     1      -0.675  -0.321  -1.991  0.00  0.00    +0.010 C 
ENDBRANCH  17  19
ENDBRANCH  14  17
ENDBRANCH  10  14
ENDBRANCH   1  11
BRANCH   1  22
ATOM     22  N   UNL     1       6.532   0.357  -4.295  0.00  0.00    -0.274 N 
ATOM     23  C   UNL     1       7.280   0.328  -5.416  0.00  0.00    +0.255 C 
ATOM     24  O   UNL     1       6.844  -0.193  -6.425  0.00  0.00    -0.270 OA
BRANCH  23  25
ATOM     25  C   UNL     1       8.626   0.926  -5.419  0.00  0.00    +0.119 A 
ATOM     26  C   UNL     1       9.744   0.150  -5.082  0.00  0.00    +0.133 A 
ATOM     27  C   UNL     1      11.006   0.723  -5.088  0.00  0.00    +0.046 A 
ATOM     28  C   UNL     1      11.164   2.054  -5.425  0.00  0.00    +0.007 A 
ATOM     29  C   UNL     1      10.068   2.828  -5.758  0.00  0.00    +0.046 A 
ATOM     30  C   UNL     1       8.798   2.274  -5.764  0.00  0.00    +0.133 A 
BRANCH  30  31
ATOM     31  O   UNL     1       7.725   3.034  -6.097  0.00  0.00    -0.506 OA
ATOM     32  H   UNL     1       7.314   3.484  -5.346  0.00  0.00    +0.292 HD
ENDBRANCH  30  31
BRANCH  26  33
ATOM     33  O   UNL     1       9.592  -1.157  -4.751  0.00  0.00    -0.506 OA
ATOM     34  H   UNL     1       9.646  -1.762  -5.503  0.00  0.00    +0.292 HD
ENDBRANCH  26  33
ENDBRANCH  23  25
BRANCH  22  35
ATOM     35  C   UNL     1       7.058   0.984  -3.080  0.00  0.00    +0.183 C 
BRANCH  35  36
ATOM     36  C   UNL     1       7.671  -0.070  -2.195  0.00  0.00    +0.122 A 
ATOM     37  C   UNL     1       8.948  -0.491  -2.242  0.00  0.00    +0.046 A 
ATOM     38  C   UNL     1       9.090  -1.481  -1.243  0.00  0.00    +0.041 A 
ATOM     39  C   UNL     1       7.891  -1.606  -0.645  0.00  0.00    +0.195 A 
ATOM     40  O   UNL     1       7.037  -0.745  -1.222  0.00  0.00    -0.466 OA
ENDBRANCH  35  36
ENDBRANCH  22  35
ENDBRANCH   1  22
TORSDOF 12
