REMARK  Name = ZINC39677275
REMARK  7 active torsions:
REMARK  status: ('A' for Active; 'I' for Inactive)
REMARK    1  A    between atoms: C_1  and  C_2
REMARK    2  A    between atoms: C_6  and  C_7
REMARK    3  A    between atoms: C_7  and  N_8
REMARK    4  A    between atoms: C_9  and  C_11
REMARK    5  A    between atoms: C_22  and  C_24
REMARK    6  A    between atoms: C_29  and  O_30
REMARK    7  A    between atoms: O_30  and  C_31
REMARK                            x       y       z     vdW  Elec       q    Type
REMARK                         _______ _______ _______ _____ _____    ______ ____
ROOT
ATOM      1  C   UNL     1      -2.450   0.506   4.860  0.00  0.00    +0.100 C 
ATOM      2  C   UNL     1      -3.360  -0.733   4.707  0.00  0.00    +0.121 C 
ATOM      3  N   UNL     1      -3.409  -1.331   6.062  0.00  0.00    -0.296 N 
ATOM      4  C   UNL     1      -3.481  -0.167   6.977  0.00  0.00    +0.115 C 
ATOM      5  C   UNL     1      -2.535   0.876   6.350  0.00  0.00    -0.004 C 
ATOM      6  C   UNL     1      -3.113   2.279   6.514  0.00  0.00    -0.010 C 
ATOM      7  C   UNL     1      -3.133   2.647   8.000  0.00  0.00    -0.082 C 
ATOM      8  N   UNL     1      -1.768   2.593   8.538  0.00  0.00    +0.379 N 
ATOM      9  C   UNL     1      -1.254   1.220   8.462  0.00  0.00    -0.082 C 
ATOM     10  C   UNL     1      -1.155   0.791   6.995  0.00  0.00    -0.010 C 
ATOM     11  C   UNL     1      -3.393  -2.639   6.388  0.00  0.00    +0.252 C 
ATOM     12  O   UNL     1      -3.535  -2.978   7.547  0.00  0.00    -0.270 OA
ATOM     13  H   UNL     1      -1.171   3.204   8.001  0.00  0.00    -0.086 HD
ATOM     14  H   UNL     1      -1.775   2.895   9.501  0.00  0.00    -0.086 HD
ENDROOT
BRANCH  11  15
ATOM     15  C   UNL     1      -3.203  -3.659   5.339  0.00  0.00    +0.099 A 
ATOM     16  C   UNL     1      -3.732  -3.470   4.057  0.00  0.00    +0.020 A 
ATOM     17  C   UNL     1      -3.526  -4.456   3.109  0.00  0.00    +0.021 A 
ATOM     18  C   UNL     1      -2.810  -5.590   3.451  0.00  0.00    +0.114 A 
ATOM     19  N   UNL     1      -2.321  -5.748   4.666  0.00  0.00    -0.220 NA
ATOM     20  C   UNL     1      -2.485  -4.834   5.607  0.00  0.00    +0.233 A 
BRANCH  20  21
ATOM     21  O   UNL     1      -1.960  -5.035   6.840  0.00  0.00    -0.437 OA
BRANCH  21  22
ATOM     22  C   UNL     1      -1.357  -6.228   7.089  0.00  0.00    +0.130 A 
ATOM     23  C   UNL     1      -0.077  -6.472   6.611  0.00  0.00    +0.048 A 
ATOM     24  C   UNL     1       0.534  -7.684   6.866  0.00  0.00    +0.023 A 
ATOM     25  C   UNL     1      -0.129  -8.654   7.597  0.00  0.00    +0.041 A 
ATOM     26  C   UNL     1      -1.405  -8.412   8.074  0.00  0.00    +0.023 A 
ATOM     27  C   UNL     1      -2.017  -7.199   7.827  0.00  0.00    +0.048 A 
ATOM     28 CL   UNL     1       0.642 -10.177   7.915  0.00  0.00    -0.084 Cl
ENDBRANCH  21  22
ENDBRANCH  20  21
ENDBRANCH  11  15
BRANCH   1  30
ATOM     29  N   UNL     1      -0.217   1.118   3.990  0.00  0.00    -0.310 N 
ATOM     30  C   UNL     1      -1.031   0.164   4.484  0.00  0.00    +0.218 C 
ATOM     31  O   UNL     1      -0.622  -0.969   4.627  0.00  0.00    -0.275 OA
ATOM     32  H   UNL     1      -0.544   2.024   3.876  0.00  0.00    +0.149 HD
BRANCH  29  33
ATOM     33  C   UNL     1       1.163   0.785   3.625  0.00  0.00    +0.147 C 
BRANCH  33  39
ATOM     34  C   UNL     1       2.743   2.839   5.275  0.00  0.00    +0.044 C 
ATOM     35  C   UNL     1       2.562   2.953   3.783  0.00  0.00    -0.039 A 
ATOM     36  C   UNL     1       3.121   4.008   3.087  0.00  0.00    +0.011 A 
ATOM     37  C   UNL     1       2.939   4.081   1.746  0.00  0.00    +0.046 A 
ATOM     38  S   UNL     1       1.954   2.627   1.427  0.00  0.00    -0.100 S 
ATOM     39  C   UNL     1       1.855   2.018   3.103  0.00  0.00    +0.010 A 
ENDBRANCH  33  39
ENDBRANCH  29  33
ENDBRANCH   1  30
TORSDOF 6
