REMARK  Name = ZINC59489467
REMARK  7 active torsions:
REMARK  status: ('A' for Active; 'I' for Inactive)
REMARK    1  A    between atoms: C_1  and  C_2
REMARK    2  A    between atoms: C_2  and  C_17
REMARK    3  A    between atoms: N_3  and  N_4
REMARK    4  A    between atoms: C_5  and  S_7
REMARK    5  A    between atoms: S_7  and  C_8
REMARK    6  A    between atoms: N_13  and  C_16
REMARK    7  A    between atoms: C_20  and  C_23
REMARK                            x       y       z     vdW  Elec       q    Type
REMARK                         _______ _______ _______ _____ _____    ______ ____
ROOT
ATOM      1  C   UNL     1      -0.018   1.503   0.010  0.00  0.00    +0.068 C 
ATOM      2  C   UNL     1       0.002  -0.004   0.002  0.00  0.00    +0.063 C 
ATOM      3  N   UNL     1       0.022  -0.659   1.122  0.00  0.00    -0.185 NA
ENDROOT
BRANCH   3   4
ATOM      4  N   UNL     1       0.024   0.035   2.339  0.00  0.00    -0.217 N 
ATOM      5  C   UNL     1       0.044  -0.660   3.528  0.00  0.00    +0.146 C 
ATOM      6  N   UNL     1       0.062  -1.964   3.521  0.00  0.00    -0.380 N 
ATOM      7  H   UNL     1       0.011   1.005   2.345  0.00  0.00    +0.176 HD
ATOM      8  H   UNL     1       0.077  -2.454   4.358  0.00  0.00    +0.158 HD
ATOM      9  H   UNL     1       0.061  -2.445   2.678  0.00  0.00    +0.158 HD
BRANCH   5  10
ATOM     10  S   UNL     1       0.047   0.213   5.059  0.00  0.00    -0.078 S 
BRANCH  10  11
ATOM     11  C   UNL     1       0.077  -1.099   6.312  0.00  0.00    +0.149 C 
ATOM     12  C   UNL     1       0.154  -0.494   7.728  0.00  0.00    +0.120 C 
ATOM     13  C   UNL     1      -1.120  -0.974   8.389  0.00  0.00    +0.223 C 
ATOM     14  O   UNL     1      -1.460  -0.723   9.525  0.00  0.00    -0.275 OA
ATOM     15  N   UNL     1      -1.813  -1.720   7.519  0.00  0.00    -0.244 N 
ATOM     16  C   UNL     1      -1.231  -1.859   6.317  0.00  0.00    +0.235 C 
ATOM     17  O   UNL     1      -1.680  -2.491   5.385  0.00  0.00    -0.274 OA
ATOM     18  C   UNL     1      -3.099  -2.337   7.852  0.00  0.00    +0.141 C 
ENDBRANCH  10  11
ENDBRANCH   5  10
ENDBRANCH   3   4
BRANCH   2  19
ATOM     19  C   UNL     1      -0.000  -0.735  -1.279  0.00  0.00    -0.003 A 
ATOM     20  C   UNL     1      -0.015  -0.033  -2.487  0.00  0.00    +0.010 A 
ATOM     21  C   UNL     1      -0.017  -0.723  -3.682  0.00  0.00    +0.004 A 
ATOM     22  C   UNL     1      -0.004  -2.106  -3.685  0.00  0.00    -0.044 A 
ATOM     23  C   UNL     1       0.011  -2.808  -2.493  0.00  0.00    +0.004 A 
ATOM     24  C   UNL     1       0.019  -2.131  -1.291  0.00  0.00    +0.010 A 
BRANCH  22  25
ATOM     25  C   UNL     1      -0.007  -2.853  -4.994  0.00  0.00    +0.019 C 
ATOM     26  C   UNL     1      -1.249  -3.744  -5.071  0.00  0.00    +0.008 C 
ATOM     27  C   UNL     1      -1.252  -4.501  -6.400  0.00  0.00    +0.001 C 
ATOM     28  C   UNL     1       0.005  -5.369  -6.495  0.00  0.00    +0.000 C 
ATOM     29  C   UNL     1       1.247  -4.478  -6.419  0.00  0.00    +0.001 C 
ATOM     30  C   UNL     1       1.250  -3.720  -5.090  0.00  0.00    +0.008 C 
ENDBRANCH  22  25
ENDBRANCH   2  19
TORSDOF 5
