REMARK  Name = ZINC39325183
REMARK  13 active torsions:
REMARK  status: ('A' for Active; 'I' for Inactive)
REMARK    1  A    between atoms: C_1  and  C_2
REMARK    2  A    between atoms: C_2  and  C_3
REMARK    3  A    between atoms: C_10  and  C_15
REMARK    4  A    between atoms: C_15  and  N_16
REMARK    5  A    between atoms: N_16  and  C_17
REMARK    6  A    between atoms: N_16  and  S_26
REMARK    7  A    between atoms: C_17  and  C_18
REMARK    8  A    between atoms: C_21  and  O_24
REMARK    9  A    between atoms: O_24  and  C_25
REMARK   10  A    between atoms: S_26  and  C_29
REMARK   11  A    between atoms: C_30  and  C_37
REMARK   12  A    between atoms: C_32  and  C_36
REMARK   13  A    between atoms: C_34  and  C_35
REMARK                            x       y       z     vdW  Elec       q    Type
REMARK                         _______ _______ _______ _____ _____    ______ ____
ROOT
ATOM      1  N   UNL     1      -7.102  -2.664  -3.509  0.00  0.00    -0.171 NA
ENDROOT
BRANCH   1   2
ATOM      2  S   UNL     1      -7.379  -3.361  -2.032  0.00  0.00    +0.062 S 
ATOM      3  O   UNL     1      -6.180  -4.031  -1.668  0.00  0.00    -0.153 OA
ATOM      4  O   UNL     1      -7.971  -2.361  -1.215  0.00  0.00    -0.153 OA
BRANCH   2   5
ATOM      5  C   UNL     1      -8.601  -4.609  -2.266  0.00  0.00    +0.111 A 
ATOM      6  C   UNL     1      -8.236  -5.853  -2.744  0.00  0.00    -0.024 A 
ATOM      7  C   UNL     1      -9.194  -6.832  -2.928  0.00  0.00    +0.008 A 
ATOM      8  C   UNL     1     -10.518  -6.567  -2.633  0.00  0.00    -0.050 A 
ATOM      9  C   UNL     1     -10.884  -5.322  -2.154  0.00  0.00    +0.008 A 
ATOM     10  C   UNL     1      -9.925  -4.345  -1.966  0.00  0.00    -0.024 A 
ATOM     11  C   UNL     1     -10.322  -2.990  -1.440  0.00  0.00    +0.046 C 
ATOM     12  C   UNL     1     -11.564  -7.633  -2.834  0.00  0.00    +0.044 C 
ATOM     13  C   UNL     1      -6.792  -6.143  -3.066  0.00  0.00    +0.046 C 
ENDBRANCH   2   5
ENDBRANCH   1   2
BRANCH   1  14
ATOM     14  C   UNL     1      -5.872  -2.969  -4.244  0.00  0.00    +0.126 C 
BRANCH  14  22
ATOM     15  C   UNL     1      -0.120  -2.224  -4.882  0.00  0.00    -0.047 A 
ATOM     16  C   UNL     1       0.045  -1.960  -3.522  0.00  0.00    +0.005 A 
ATOM     17  C   UNL     1      -1.002  -1.720  -2.690  0.00  0.00    +0.024 A 
ATOM     18  C   UNL     1      -2.321  -1.730  -3.179  0.00  0.00    +0.040 A 
ATOM     19  N   UNL     1      -3.340  -1.493  -2.353  0.00  0.00    -0.284 N 
ATOM     20  C   UNL     1      -4.602  -1.488  -2.747  0.00  0.00    +0.225 C 
ATOM     21  O   UNL     1      -5.490  -1.265  -1.947  0.00  0.00    -0.275 OA
ATOM     22  C   UNL     1      -4.937  -1.759  -4.197  0.00  0.00    +0.114 C 
ATOM     23  C   UNL     1      -3.781  -2.029  -5.140  0.00  0.00    -0.003 C 
ATOM     24  C   UNL     1      -2.525  -2.006  -4.612  0.00  0.00    -0.007 A 
ATOM     25  C   UNL     1      -1.352  -2.251  -5.453  0.00  0.00    +0.013 A 
ATOM     26  H   UNL     1      -3.146  -1.317  -1.419  0.00  0.00    +0.155 HD
BRANCH  15  28
ATOM     27  C   UNL     1       1.605  -1.154  -6.306  0.00  0.00    +0.009 C 
ATOM     28  C   UNL     1       1.094  -2.479  -5.737  0.00  0.00    +0.032 C 
ENDBRANCH  15  28
ENDBRANCH  14  22
ENDBRANCH   1  14
BRANCH   1  29
ATOM     29  C   UNL     1      -8.088  -1.742  -4.080  0.00  0.00    +0.144 C 
BRANCH  29  30
ATOM     30  C   UNL     1      -8.703  -2.362  -5.307  0.00  0.00    -0.031 A 
ATOM     31  C   UNL     1      -8.127  -2.157  -6.547  0.00  0.00    +0.008 A 
ATOM     32  C   UNL     1      -8.690  -2.724  -7.674  0.00  0.00    +0.046 A 
ATOM     33  C   UNL     1      -9.834  -3.501  -7.561  0.00  0.00    +0.120 A 
ATOM     34  C   UNL     1     -10.410  -3.705  -6.316  0.00  0.00    +0.046 A 
ATOM     35  C   UNL     1      -9.840  -3.140  -5.191  0.00  0.00    +0.008 A 
BRANCH  33  36
ATOM     36  O   UNL     1     -10.390  -4.059  -8.668  0.00  0.00    -0.495 OA
ATOM     37  C   UNL     1     -11.567  -4.846  -8.477  0.00  0.00    +0.277 C 
ENDBRANCH  33  36
ENDBRANCH  29  30
ENDBRANCH   1  29
TORSDOF 8
