REMARK  Name = ZINC39693428
REMARK  11 active torsions:
REMARK  status: ('A' for Active; 'I' for Inactive)
REMARK    1  A    between atoms: C_1  and  C_2
REMARK    2  A    between atoms: C_2  and  C_3
REMARK    3  A    between atoms: C_2  and  C_4
REMARK    4  A    between atoms: C_2  and  O_5
REMARK    5  A    between atoms: O_5  and  C_6
REMARK    6  A    between atoms: N_8  and  C_9
REMARK    7  A    between atoms: C_9  and  C_10
REMARK    8  A    between atoms: C_10  and  N_11
REMARK    9  A    between atoms: C_12  and  C_14
REMARK   10  A    between atoms: C_25  and  C_27
REMARK   11  A    between atoms: C_29  and  C_34
REMARK                            x       y       z     vdW  Elec       q    Type
REMARK                         _______ _______ _______ _____ _____    ______ ____
ROOT
ATOM      1  C   UNL     1       7.599   0.089  -5.716  0.00  0.00    +0.100 C 
ATOM      2  C   UNL     1       7.974   1.587  -5.772  0.00  0.00    +0.121 C 
ATOM      3  N   UNL     1       9.097   1.656  -6.736  0.00  0.00    -0.296 N 
ATOM      4  C   UNL     1       8.727   0.695  -7.803  0.00  0.00    +0.115 C 
ATOM      5  C   UNL     1       8.094  -0.492  -7.050  0.00  0.00    -0.004 C 
ATOM      6  C   UNL     1       6.922  -1.057  -7.848  0.00  0.00    -0.010 C 
ATOM      7  C   UNL     1       7.446  -1.681  -9.144  0.00  0.00    -0.082 C 
ATOM      8  N   UNL     1       8.404  -2.746  -8.823  0.00  0.00    +0.379 N 
ATOM      9  C   UNL     1       9.572  -2.179  -8.138  0.00  0.00    -0.082 C 
ATOM     10  C   UNL     1       9.138  -1.576  -6.800  0.00  0.00    -0.010 C 
ATOM     11  C   UNL     1      10.206   2.419  -6.660  0.00  0.00    +0.247 C 
ATOM     12  O   UNL     1      10.431   3.065  -5.655  0.00  0.00    -0.270 OA
ATOM     13  H   UNL     1       7.961  -3.426  -8.224  0.00  0.00    -0.086 HD
ATOM     14  H   UNL     1       8.702  -3.197  -9.676  0.00  0.00    -0.086 HD
ENDROOT
BRANCH  11  15
ATOM     15  C   UNL     1      11.148   2.469  -7.798  0.00  0.00    +0.040 A 
ATOM     16  C   UNL     1      12.469   2.873  -7.596  0.00  0.00    +0.025 A 
ATOM     17  C   UNL     1      13.344   2.918  -8.662  0.00  0.00    +0.058 A 
ATOM     18  C   UNL     1      12.917   2.564  -9.929  0.00  0.00    +0.050 A 
ATOM     19  C   UNL     1      11.607   2.162 -10.137  0.00  0.00    +0.125 A 
ATOM     20  C   UNL     1      10.722   2.107  -9.076  0.00  0.00    +0.051 A 
ATOM     21  F   UNL     1      11.196   1.818 -11.377  0.00  0.00    -0.205 F 
BRANCH  17  22
ATOM     22  C   UNL     1      14.770   3.355  -8.445  0.00  0.00    +0.418 C 
ATOM     23  F   UNL     1      15.559   2.240  -8.145  0.00  0.00    -0.166 F 
ATOM     24  F   UNL     1      15.252   3.968  -9.606  0.00  0.00    -0.166 F 
ATOM     25  F   UNL     1      14.823   4.263  -7.382  0.00  0.00    -0.166 F 
ENDBRANCH  17  22
ENDBRANCH  11  15
BRANCH   1  27
ATOM     26  N   UNL     1       5.594  -1.141  -4.949  0.00  0.00    -0.314 N 
ATOM     27  C   UNL     1       6.105  -0.073  -5.594  0.00  0.00    +0.218 C 
ATOM     28  O   UNL     1       5.364   0.756  -6.076  0.00  0.00    -0.275 OA
ATOM     29  H   UNL     1       6.187  -1.804  -4.564  0.00  0.00    +0.149 HD
BRANCH  26  30
ATOM     30  C   UNL     1       4.143  -1.299  -4.831  0.00  0.00    +0.123 C 
BRANCH  30  31
ATOM     31  C   UNL     1       3.830  -2.583  -4.060  0.00  0.00    +0.126 C 
BRANCH  31  34
ATOM     32  C   UNL     1       1.867  -3.809  -3.297  0.00  0.00    +0.401 C 
ATOM     33  O   UNL     1       2.611  -4.640  -2.814  0.00  0.00    -0.226 OA
ATOM     34  N   UNL     1       2.379  -2.741  -3.942  0.00  0.00    -0.280 N 
ATOM     35  H   UNL     1       1.786  -2.078  -4.328  0.00  0.00    +0.152 HD
BRANCH  32  36
ATOM     36  O   UNL     1       0.533  -3.954  -3.189  0.00  0.00    -0.445 OA
BRANCH  36  38
ATOM     37  C   UNL     1       0.591  -5.091  -1.057  0.00  0.00    +0.055 C 
ATOM     38  C   UNL     1       0.061  -5.109  -2.492  0.00  0.00    +0.107 C 
ATOM     39  C   UNL     1       0.556  -6.370  -3.203  0.00  0.00    +0.055 C 
ATOM     40  C   UNL     1      -1.469  -5.102  -2.471  0.00  0.00    +0.055 C 
ENDBRANCH  36  38
ENDBRANCH  32  36
ENDBRANCH  31  34
ENDBRANCH  30  31
ENDBRANCH  26  30
ENDBRANCH   1  27
TORSDOF 8
