REMARK  Name = ZINC09071423
REMARK  9 active torsions:
REMARK  status: ('A' for Active; 'I' for Inactive)
REMARK    1  A    between atoms: C_1  and  C_2
REMARK    2  A    between atoms: C_2  and  N_3
REMARK    3  A    between atoms: C_4  and  C_25
REMARK    4  A    between atoms: C_7  and  S_8
REMARK    5  A    between atoms: S_8  and  C_9
REMARK    6  A    between atoms: C_9  and  C_11
REMARK    7  A    between atoms: C_9  and  C_12
REMARK    8  A    between atoms: N_14  and  C_15
REMARK    9  A    between atoms: C_17  and  N_22
REMARK                            x       y       z     vdW  Elec       q    Type
REMARK                         _______ _______ _______ _____ _____    ______ ____
ROOT
ATOM      1  C   UNL     1      -2.471   0.965   0.133  0.00  0.00    +0.137 C 
ATOM      2  C   UNL     1      -2.869   0.411  -1.237  0.00  0.00    +0.029 C 
ENDROOT
BRANCH   1   3
ATOM      3  C   UNL     1      -1.145   1.672   0.022  0.00  0.00    +0.230 C 
ATOM      4  O   UNL     1      -1.107   2.882  -0.060  0.00  0.00    -0.274 OA
ATOM      5  N   UNL     1      -0.000   0.961   0.015  0.00  0.00    -0.283 N 
ATOM      6  H   UNL     1      -0.032  -0.009  -0.003  0.00  0.00    +0.155 HD
BRANCH   5   7
ATOM      7  C   UNL     1       1.234   1.620   0.027  0.00  0.00    +0.054 A 
ATOM      8  C   UNL     1       1.333   2.903   0.549  0.00  0.00    +0.057 A 
ATOM      9  C   UNL     1       2.552   3.552   0.560  0.00  0.00    +0.128 A 
ATOM     10  C   UNL     1       3.675   2.925   0.051  0.00  0.00    +0.034 A 
ATOM     11  C   UNL     1       3.582   1.648  -0.470  0.00  0.00    +0.024 A 
ATOM     12  C   UNL     1       2.365   0.991  -0.478  0.00  0.00    +0.062 A 
ATOM     13 CL   UNL     1       2.250  -0.616  -1.125  0.00  0.00    -0.082 Cl
BRANCH   9  14
ATOM     14  N   UNL     1       2.657   4.919   1.117  0.00  0.00    +0.056 N 
ATOM     15  O   UNL     1       1.669   5.472   1.565  0.00  0.00    -0.126 OA
ATOM     16  O   UNL     1       3.732   5.492   1.126  0.00  0.00    -0.126 OA
ENDBRANCH   9  14
ENDBRANCH   5   7
ENDBRANCH   1   3
BRANCH   1  17
ATOM     17  S   UNL     1      -3.732   2.133   0.701  0.00  0.00    -0.074 S 
BRANCH  17  22
ATOM     18  N   UNL     1      -6.357   1.377   1.302  0.00  0.00    -0.302 N 
ATOM     19  C   UNL     1      -7.081   0.207   1.284  0.00  0.00    +0.165 A 
ATOM     20  N   UNL     1      -6.269  -0.743   0.882  0.00  0.00    -0.128 NA
ATOM     21  N   UNL     1      -5.104  -0.253   0.646  0.00  0.00    -0.122 NA
ATOM     22  C   UNL     1      -5.101   1.040   0.883  0.00  0.00    +0.193 A 
BRANCH  19  23
ATOM     23  C   UNL     1      -8.504   0.048   1.653  0.00  0.00    +0.019 A 
ATOM     24  C   UNL     1      -9.004  -1.211   1.988  0.00  0.00    +0.013 A 
ATOM     25  C   UNL     1     -10.332  -1.352   2.336  0.00  0.00    +0.021 A 
ATOM     26  C   UNL     1     -11.169  -0.250   2.343  0.00  0.00    +0.041 A 
ATOM     27  C   UNL     1     -10.679   1.001   2.007  0.00  0.00    +0.021 A 
ATOM     28  C   UNL     1      -9.353   1.156   1.662  0.00  0.00    +0.013 A 
ATOM     29 CL   UNL     1     -12.840  -0.436   2.776  0.00  0.00    -0.084 Cl
ENDBRANCH  19  23
BRANCH  18  31
ATOM     30  C   UNL     1      -7.274   3.473   0.438  0.00  0.00    +0.027 C 
ATOM     31  C   UNL     1      -6.834   2.707   1.688  0.00  0.00    +0.122 C 
ENDBRANCH  18  31
ENDBRANCH  17  22
ENDBRANCH   1  17
TORSDOF 7
