REMARK  Name = ZINC06753016
REMARK  6 active torsions:
REMARK  status: ('A' for Active; 'I' for Inactive)
REMARK    1  A    between atoms: C_4  and  O_28
REMARK    2  A    between atoms: C_5  and  C_7
REMARK    3  A    between atoms: N_15  and  C_25
REMARK    4  A    between atoms: C_16  and  C_18
REMARK    5  A    between atoms: C_25  and  C_26
REMARK    6  A    between atoms: C_26  and  O_27
REMARK                            x       y       z     vdW  Elec       q    Type
REMARK                         _______ _______ _______ _____ _____    ______ ____
ROOT
ATOM      1  C   UNL     1       1.579  -2.785  -0.385  0.00  0.00    +0.102 A 
ATOM      2  C   UNL     1       0.379  -3.460  -0.134  0.00  0.00    +0.035 A 
ATOM      3  C   UNL     1       0.723  -4.786   0.043  0.00  0.00    +0.126 A 
ATOM      4  N   UNL     1       2.079  -4.850  -0.106  0.00  0.00    -0.272 N 
ATOM      5  H   UNL     1       2.610  -5.659  -0.036  0.00  0.00    +0.189 HD
ATOM      6  N   UNL     1       2.547  -3.679  -0.358  0.00  0.00    -0.173 NA
ATOM      7  C   UNL     1      -0.498  -5.553   0.311  0.00  0.00    +0.266 C 
ATOM      8  O   UNL     1      -0.535  -6.752   0.512  0.00  0.00    -0.268 OA
ATOM      9  N   UNL     1      -1.572  -4.743   0.305  0.00  0.00    -0.283 N 
ATOM     10  C   UNL     1      -1.114  -3.375   0.027  0.00  0.00    +0.141 C 
ENDROOT
BRANCH  10  11
ATOM     11  C   UNL     1      -1.461  -2.468   1.180  0.00  0.00    -0.022 A 
ATOM     12  C   UNL     1      -0.953  -2.727   2.439  0.00  0.00    +0.007 A 
ATOM     13  C   UNL     1      -1.271  -1.896   3.497  0.00  0.00    +0.015 A 
ATOM     14  C   UNL     1      -2.096  -0.804   3.295  0.00  0.00    +0.018 A 
ATOM     15  C   UNL     1      -2.604  -0.546   2.034  0.00  0.00    +0.015 A 
ATOM     16  C   UNL     1      -2.282  -1.375   0.976  0.00  0.00    +0.007 A 
ATOM     17 BR   UNL     1      -2.531   0.333   4.741  0.00  0.00    -0.050 Br
ENDBRANCH  10  11
BRANCH   1  22
ATOM     18  C   UNL     1       0.754   0.832  -0.997  0.00  0.00    +0.001 A 
ATOM     19  C   UNL     1       2.016   1.384  -1.122  0.00  0.00    +0.004 A 
ATOM     20  C   UNL     1       3.140   0.587  -1.009  0.00  0.00    +0.046 A 
ATOM     21  C   UNL     1       3.006  -0.771  -0.769  0.00  0.00    +0.126 A 
ATOM     22  C   UNL     1       1.732  -1.331  -0.642  0.00  0.00    +0.044 A 
ATOM     23  C   UNL     1       0.606  -0.519  -0.757  0.00  0.00    +0.014 A 
BRANCH  21  24
ATOM     24  O   UNL     1       4.109  -1.556  -0.658  0.00  0.00    -0.506 OA
ATOM     25  H   UNL     1       4.449  -1.632   0.243  0.00  0.00    +0.292 HD
ENDBRANCH  21  24
ENDBRANCH   1  22
BRANCH   9  26
ATOM     26  C   UNL     1      -2.959  -5.153   0.535  0.00  0.00    +0.137 C 
BRANCH  26  27
ATOM     27  C   UNL     1      -3.228  -5.221   2.040  0.00  0.00    +0.175 C 
BRANCH  27  28
ATOM     28  O   UNL     1      -3.192  -3.903   2.590  0.00  0.00    -0.393 OA
ATOM     29  H   UNL     1      -3.354  -3.870   3.543  0.00  0.00    +0.209 HD
ENDBRANCH  27  28
ENDBRANCH  26  27
ENDBRANCH   9  26
TORSDOF 6
