REMARK  Name = ZINC10154334
REMARK  15 active torsions:
REMARK  status: ('A' for Active; 'I' for Inactive)
REMARK    1  A    between atoms: C_1  and  C_2
REMARK    2  A    between atoms: C_5  and  O_9
REMARK    3  A    between atoms: C_7  and  C_8
REMARK    4  A    between atoms: O_9  and  C_10
REMARK    5  A    between atoms: C_10  and  C_12
REMARK    6  A    between atoms: C_10  and  C_13
REMARK    7  A    between atoms: N_15  and  N_16
REMARK    8  A    between atoms: N_16  and  C_17
REMARK    9  A    between atoms: C_17  and  N_19
REMARK   10  A    between atoms: C_20  and  C_22
REMARK   11  A    between atoms: C_25  and  O_29
REMARK   12  A    between atoms: O_29  and  C_30
REMARK   13  A    between atoms: C_30  and  C_31
REMARK   14  A    between atoms: C_31  and  C_32
REMARK   15  A    between atoms: C_31  and  C_33
REMARK                            x       y       z     vdW  Elec       q    Type
REMARK                         _______ _______ _______ _____ _____    ______ ____
ROOT
ATOM      1  C   UNL     1      -4.905   3.833   0.635  0.00  0.00    +0.153 C 
ATOM      2  S   UNL     1      -4.943   5.518   0.934  0.00  0.00    -0.017 S 
ENDROOT
BRANCH   1   3
ATOM      3  N   UNL     1      -3.727   3.211   0.432  0.00  0.00    -0.263 N 
ATOM      4  C   UNL     1      -2.579   3.915   0.464  0.00  0.00    +0.250 C 
ATOM      5  O   UNL     1      -2.605   5.111   0.676  0.00  0.00    -0.270 OA
ATOM      6  H   UNL     1      -3.706   2.256   0.263  0.00  0.00    +0.157 HD
BRANCH   4   7
ATOM      7  C   UNL     1      -1.289   3.233   0.242  0.00  0.00    +0.038 A 
ATOM      8  C   UNL     1      -1.257   1.859  -0.008  0.00  0.00    +0.017 A 
ATOM      9  C   UNL     1      -0.051   1.225  -0.209  0.00  0.00    +0.047 A 
ATOM     10  C   UNL     1       1.133   1.953  -0.175  0.00  0.00    +0.134 A 
ATOM     11  C   UNL     1       1.105   3.322   0.067  0.00  0.00    +0.060 A 
ATOM     12  C   UNL     1      -0.097   3.962   0.275  0.00  0.00    +0.032 A 
ATOM     13 BR   UNL     1       2.720   4.306   0.111  0.00  0.00    -0.046 Br
BRANCH  10  14
ATOM     14  O   UNL     1       2.319   1.325  -0.380  0.00  0.00    -0.491 OA
BRANCH  14  15
ATOM     15  C   UNL     1       2.275  -0.082  -0.624  0.00  0.00    +0.232 C 
BRANCH  15  16
ATOM     16  C   UNL     1       3.696  -0.609  -0.829  0.00  0.00    +0.020 C 
ATOM     17  C   UNL     1       4.492  -0.448   0.468  0.00  0.00    +0.010 C 
ATOM     18  C   UNL     1       3.641  -2.089  -1.213  0.00  0.00    +0.010 C 
ENDBRANCH  15  16
ENDBRANCH  14  15
ENDBRANCH  10  14
ENDBRANCH   4   7
ENDBRANCH   1   3
BRANCH   1  19
ATOM     19  N   UNL     1      -6.054   3.129   0.603  0.00  0.00    -0.245 N 
ATOM     20  H   UNL     1      -6.902   3.577   0.749  0.00  0.00    +0.172 HD
BRANCH  19  23
ATOM     21  C   UNL     1      -7.172   1.045   0.326  0.00  0.00    +0.270 C 
ATOM     22  O   UNL     1      -8.232   1.605   0.508  0.00  0.00    -0.270 OA
ATOM     23  N   UNL     1      -6.023   1.750   0.358  0.00  0.00    -0.232 N 
ATOM     24  H   UNL     1      -5.175   1.302   0.212  0.00  0.00    +0.173 HD
BRANCH  21  25
ATOM     25  C   UNL     1      -7.139  -0.438   0.063  0.00  0.00    +0.257 C 
ATOM     26  C   UNL     1      -6.418  -1.144   1.213  0.00  0.00    +0.062 C 
BRANCH  25  27
ATOM     27  O   UNL     1      -8.476  -0.934  -0.038  0.00  0.00    -0.480 OA
BRANCH  27  32
ATOM     28  C   UNL     1      -9.235  -5.657  -3.012  0.00  0.00    +0.044 C 
ATOM     29  C   UNL     1      -9.031  -4.393  -2.216  0.00  0.00    -0.047 A 
ATOM     30  C   UNL     1     -10.124  -3.708  -1.717  0.00  0.00    +0.007 A 
ATOM     31  C   UNL     1      -9.941  -2.550  -0.988  0.00  0.00    +0.046 A 
ATOM     32  C   UNL     1      -8.659  -2.074  -0.755  0.00  0.00    +0.122 A 
ATOM     33  C   UNL     1      -7.564  -2.759  -1.261  0.00  0.00    +0.049 A 
ATOM     34  C   UNL     1      -7.753  -3.920  -1.986  0.00  0.00    -0.044 A 
ATOM     35  C   UNL     1      -6.564  -4.669  -2.532  0.00  0.00    +0.044 C 
ENDBRANCH  27  32
ENDBRANCH  25  27
ENDBRANCH  21  25
ENDBRANCH  19  23
ENDBRANCH   1  19
TORSDOF 10
