REMARK  Name = ZINC57790428
REMARK  8 active torsions:
REMARK  status: ('A' for Active; 'I' for Inactive)
REMARK    1  A    between atoms: C_1  and  C_2
REMARK    2  A    between atoms: C_2  and  C_3
REMARK    3  A    between atoms: N_9  and  C_21
REMARK    4  A    between atoms: C_12  and  C_15
REMARK    5  A    between atoms: C_21  and  C_22
REMARK    6  A    between atoms: C_22  and  C_24
REMARK    7  A    between atoms: C_22  and  N_26
REMARK    8  A    between atoms: C_24  and  C_25
REMARK                            x       y       z     vdW  Elec       q    Type
REMARK                         _______ _______ _______ _____ _____    ______ ____
ROOT
ATOM      1  C   UNL     1       0.707  -0.490  -1.238  0.00  0.00    -0.046 A 
ATOM      2  C   UNL     1      -0.013  -0.718  -2.396  0.00  0.00    +0.007 A 
ATOM      3  C   UNL     1       0.627  -1.163  -3.538  0.00  0.00    +0.048 A 
ATOM      4  C   UNL     1       1.994  -1.382  -3.522  0.00  0.00    +0.143 A 
ATOM      5  C   UNL     1       2.720  -1.153  -2.355  0.00  0.00    +0.079 A 
ATOM      6  C   UNL     1       2.074  -0.702  -1.216  0.00  0.00    +0.030 A 
ATOM      7  N   UNL     1       4.103  -1.381  -2.351  0.00  0.00    -0.266 N 
ATOM      8  C   UNL     1       4.748  -1.508  -3.531  0.00  0.00    +0.265 C 
ATOM      9  O   UNL     1       5.939  -1.737  -3.553  0.00  0.00    -0.271 OA
ATOM     10  C   UNL     1       3.982  -1.364  -4.822  0.00  0.00    +0.289 C 
ATOM     11  O   UNL     1       2.639  -1.819  -4.636  0.00  0.00    -0.473 OA
ENDROOT
BRANCH  10  12
ATOM     12  C   UNL     1       3.967   0.084  -5.238  0.00  0.00    +0.002 A 
ATOM     13  C   UNL     1       3.080   0.964  -4.647  0.00  0.00    +0.008 A 
ATOM     14  C   UNL     1       3.066   2.292  -5.029  0.00  0.00    +0.000 A 
ATOM     15  C   UNL     1       3.940   2.741  -6.001  0.00  0.00    +0.000 A 
ATOM     16  C   UNL     1       4.828   1.861  -6.591  0.00  0.00    +0.000 A 
ATOM     17  C   UNL     1       4.845   0.534  -6.207  0.00  0.00    +0.008 A 
ENDBRANCH  10  12
BRANCH   1  19
ATOM     18  C   UNL     1      -0.019   1.526   0.010  0.00  0.00    +0.009 C 
ATOM     19  C   UNL     1       0.002  -0.004   0.002  0.00  0.00    +0.032 C 
ENDBRANCH   1  19
BRANCH   7  20
ATOM     20  C   UNL     1       4.838  -1.480  -1.088  0.00  0.00    +0.098 C 
BRANCH  20  21
ATOM     21  C   UNL     1       4.859  -2.937  -0.622  0.00  0.00    -0.057 C 
BRANCH  21  22
ATOM     22  N   UNL     1       3.483  -3.445  -0.541  0.00  0.00    +0.381 N 
ATOM     23  H   UNL     1       2.957  -2.889   0.117  0.00  0.00    -0.090 HD
ATOM     24  H   UNL     1       3.049  -3.389  -1.451  0.00  0.00    -0.090 HD
ATOM     25  H   UNL     1       3.497  -4.406  -0.234  0.00  0.00    -0.090 HD
ENDBRANCH  21  22
BRANCH  21  26
ATOM     26  C   UNL     1       5.516  -3.022   0.757  0.00  0.00    -0.018 C 
ATOM     27  C   UNL     1       5.650  -4.490   1.167  0.00  0.00    +0.002 C 
ENDBRANCH  21  26
ENDBRANCH  20  21
ENDBRANCH   7  20
TORSDOF 6
