REMARK  Name = ZINC12546324
REMARK  12 active torsions:
REMARK  status: ('A' for Active; 'I' for Inactive)
REMARK    1  A    between atoms: C_1  and  C_2
REMARK    2  A    between atoms: C_2  and  O_3
REMARK    3  A    between atoms: O_3  and  C_4
REMARK    4  A    between atoms: C_4  and  C_6
REMARK    5  A    between atoms: C_7  and  C_15
REMARK    6  A    between atoms: C_12  and  C_14
REMARK    7  A    between atoms: C_15  and  S_16
REMARK    8  A    between atoms: S_16  and  C_17
REMARK    9  A    between atoms: C_20  and  C_30
REMARK   10  A    between atoms: C_21  and  C_23
REMARK   11  A    between atoms: C_26  and  C_29
REMARK   12  A    between atoms: C_33  and  C_36
REMARK                            x       y       z     vdW  Elec       q    Type
REMARK                         _______ _______ _______ _____ _____    ______ ____
ROOT
ATOM      1  C   UNL     1      -3.277   3.590   0.959  0.00  0.00    +0.168 A 
ATOM      2  N   UNL     1      -4.072   4.283   1.821  0.00  0.00    -0.332 N 
ATOM      3  H   UNL     1      -3.903   4.432   2.795  0.00  0.00    +0.168 HD
ATOM      4  C   UNL     1      -5.157   4.742   1.096  0.00  0.00    +0.075 A 
ATOM      5  C   UNL     1      -4.977   4.294  -0.198  0.00  0.00    +0.098 A 
ATOM      6  N   UNL     1      -3.822   3.599  -0.234  0.00  0.00    -0.221 NA
ENDROOT
BRANCH   5   7
ATOM      7  C   UNL     1      -5.889   4.533  -1.341  0.00  0.00    +0.002 A 
ATOM      8  C   UNL     1      -7.268   4.574  -1.139  0.00  0.00    +0.010 A 
ATOM      9  C   UNL     1      -8.112   4.803  -2.206  0.00  0.00    +0.004 A 
ATOM     10  C   UNL     1      -7.593   4.981  -3.476  0.00  0.00    -0.050 A 
ATOM     11  C   UNL     1      -6.226   4.936  -3.683  0.00  0.00    +0.004 A 
ATOM     12  C   UNL     1      -5.372   4.713  -2.623  0.00  0.00    +0.010 A 
ATOM     13  C   UNL     1      -8.521   5.224  -4.638  0.00  0.00    +0.044 C 
ENDBRANCH   5   7
BRANCH   4  14
ATOM     14  C   UNL     1      -6.285   5.545   1.605  0.00  0.00    +0.000 A 
ATOM     15  C   UNL     1      -6.742   6.650   0.882  0.00  0.00    +0.010 A 
ATOM     16  C   UNL     1      -7.801   7.393   1.361  0.00  0.00    +0.004 A 
ATOM     17  C   UNL     1      -8.402   7.053   2.560  0.00  0.00    -0.050 A 
ATOM     18  C   UNL     1      -7.950   5.964   3.285  0.00  0.00    +0.004 A 
ATOM     19  C   UNL     1      -6.896   5.209   2.815  0.00  0.00    +0.010 A 
ATOM     20  C   UNL     1      -9.554   7.874   3.080  0.00  0.00    +0.044 C 
ENDBRANCH   4  14
BRANCH   1  21
ATOM     21  S   UNL     1      -1.760   2.800   1.381  0.00  0.00    -0.082 S 
BRANCH  21  22
ATOM     22  C   UNL     1      -1.307   2.107  -0.229  0.00  0.00    +0.128 C 
BRANCH  22  24
ATOM     23  C   UNL     1      -0.005   0.014  -0.090  0.00  0.00    +0.074 C 
ATOM     24  C   UNL     1      -0.002   1.364  -0.107  0.00  0.00    +0.034 C 
ATOM     25  N   UNL     1       1.166   2.067  -0.020  0.00  0.00    -0.272 N 
ATOM     26  C   UNL     1       2.371   1.494   0.085  0.00  0.00    +0.304 C 
ATOM     27  O   UNL     1       3.356   2.204   0.157  0.00  0.00    -0.253 OA
ATOM     28  N   UNL     1       2.529   0.156   0.114  0.00  0.00    -0.292 N 
ATOM     29  C   UNL     1       1.329  -0.693   0.027  0.00  0.00    +0.110 C 
ATOM     30  C   UNL     1       1.487  -1.609  -1.189  0.00  0.00    +0.033 C 
ATOM     31  H   UNL     1       1.119   3.036  -0.037  0.00  0.00    +0.156 HD
ATOM     32  H   UNL     1       3.412  -0.238   0.191  0.00  0.00    +0.151 HD
BRANCH  23  33
ATOM     33  C   UNL     1      -1.214  -0.715  -0.179  0.00  0.00    +0.338 C 
ATOM     34  O   UNL     1      -1.714  -1.189   0.824  0.00  0.00    -0.245 OA
BRANCH  33  35
ATOM     35  O   UNL     1      -1.813  -0.886  -1.377  0.00  0.00    -0.462 OA
BRANCH  35  37
ATOM     36  C   UNL     1      -3.557  -1.721  -2.826  0.00  0.00    +0.048 C 
ATOM     37  C   UNL     1      -3.031  -1.633  -1.392  0.00  0.00    +0.229 C 
ENDBRANCH  35  37
ENDBRANCH  33  35
ENDBRANCH  23  33
ENDBRANCH  22  24
ENDBRANCH  21  22
ENDBRANCH   1  21
TORSDOF 8
