REMARK  Name = ZINC21927439
REMARK  4 active torsions:
REMARK  status: ('A' for Active; 'I' for Inactive)
REMARK    1  A    between atoms: C_1  and  C_2
REMARK    2  A    between atoms: C_2  and  N_3
REMARK    3  A    between atoms: N_3  and  S_4
REMARK    4  A    between atoms: S_4  and  C_7
REMARK                            x       y       z     vdW  Elec       q    Type
REMARK                         _______ _______ _______ _____ _____    ______ ____
ROOT
ATOM      1  C   UNL     1      -0.256  -3.060  -1.302  0.00  0.00    +0.106 A 
ATOM      2  C   UNL     1      -0.757  -3.501  -0.087  0.00  0.00    +0.034 A 
ATOM      3  C   UNL     1      -1.889  -4.280  -0.035  0.00  0.00    -0.023 A 
ATOM      4  C   UNL     1      -2.501  -4.582  -1.254  0.00  0.00    +0.043 A 
ATOM      5  C   UNL     1      -1.991  -4.165  -2.473  0.00  0.00    -0.022 A 
ATOM      6  C   UNL     1      -0.855  -3.378  -2.517  0.00  0.00    +0.034 A 
ATOM      7  C   UNL     1      -2.867  -4.730  -3.549  0.00  0.00    +0.056 C 
ATOM      8  C   UNL     1      -3.964  -5.517  -2.792  0.00  0.00    +0.118 C 
ATOM      9  N   UNL     1      -3.676  -5.319  -1.375  0.00  0.00    -0.271 N 
ATOM     10  C   UNL     1      -4.367  -5.685  -0.273  0.00  0.00    +0.220 C 
ATOM     11  O   UNL     1      -5.255  -6.508  -0.341  0.00  0.00    -0.275 OA
ATOM     12  C   UNL     1      -4.006  -5.042   1.045  0.00  0.00    +0.101 C 
ATOM     13  C   UNL     1      -2.501  -4.846   1.210  0.00  0.00    +0.046 C 
ENDROOT
BRANCH   1  14
ATOM     14  S   UNL     1       1.189  -2.051  -1.307  0.00  0.00    +0.058 S 
ATOM     15  O   UNL     1       1.786  -2.204  -2.588  0.00  0.00    -0.153 OA
ATOM     16  O   UNL     1       1.887  -2.336  -0.102  0.00  0.00    -0.153 OA
BRANCH  14  17
ATOM     17  N   UNL     1       0.688  -0.476  -1.203  0.00  0.00    -0.190 NA
ATOM     18  H   UNL     1       0.848   0.133  -1.941  0.00  0.00    +0.148 HD
BRANCH  17  20
ATOM     19  C   UNL     1      -0.019   1.526   0.010  0.00  0.00    +0.022 C 
ATOM     20  C   UNL     1       0.002  -0.004   0.002  0.00  0.00    +0.102 C 
ENDBRANCH  17  20
ENDBRANCH  14  17
ENDBRANCH   1  14
TORSDOF 3
