REMARK  Name = ZINC39513679
REMARK  7 active torsions:
REMARK  status: ('A' for Active; 'I' for Inactive)
REMARK    1  A    between atoms: C_4  and  C_7
REMARK    2  A    between atoms: C_7  and  C_8
REMARK    3  A    between atoms: N_13  and  C_30
REMARK    4  A    between atoms: C_17  and  S_20
REMARK    5  A    between atoms: S_20  and  O_23
REMARK    6  A    between atoms: O_23  and  C_24
REMARK    7  A    between atoms: C_30  and  C_31
REMARK                            x       y       z     vdW  Elec       q    Type
REMARK                         _______ _______ _______ _____ _____    ______ ____
ROOT
ATOM      1  C   UNL     1       4.171  -0.963   1.399  0.00  0.00    -0.017 C 
ATOM      2  C   UNL     1       4.466   0.373   2.088  0.00  0.00    +0.001 C 
ATOM      3  C   UNL     1       5.012   0.101   3.492  0.00  0.00    -0.018 C 
ATOM      4  C   UNL     1       6.260  -0.779   3.389  0.00  0.00    -0.078 C 
ATOM      5  N   UNL     1       5.912  -2.054   2.750  0.00  0.00    +0.386 N 
ATOM      6  C   UNL     1       5.440  -1.814   1.384  0.00  0.00    -0.060 C 
ATOM      7  C   UNL     1       5.166  -3.150   0.678  0.00  0.00    -0.010 C 
ATOM      8  C   UNL     1       6.108  -3.203  -0.543  0.00  0.00    +0.028 C 
ATOM      9  C   UNL     1       6.424  -1.716  -0.843  0.00  0.00    +0.170 C 
ATOM     10  C   UNL     1       6.535  -1.097   0.573  0.00  0.00    +0.018 C 
ATOM     11  H   UNL     1       5.184  -2.508   3.280  0.00  0.00    -0.081 HD
ENDROOT
BRANCH   9  12
ATOM     12  S   UNL     1       7.992  -1.561  -1.742  0.00  0.00    +0.123 S 
ATOM     13  O   UNL     1       8.199  -0.212  -2.137  0.00  0.00    -0.136 OA
ATOM     14  O   UNL     1       9.015  -2.284  -1.071  0.00  0.00    -0.136 OA
BRANCH  12  15
ATOM     15  O   UNL     1       7.772  -2.317  -3.045  0.00  0.00    -0.346 OA
BRANCH  15  16
ATOM     16  C   UNL     1       6.997  -1.657  -3.943  0.00  0.00    +0.156 A 
ATOM     17  C   UNL     1       5.620  -1.831  -3.934  0.00  0.00    +0.048 A 
ATOM     18  C   UNL     1       4.834  -1.158  -4.849  0.00  0.00    +0.004 A 
ATOM     19  C   UNL     1       5.417  -0.311  -5.773  0.00  0.00    +0.000 A 
ATOM     20  C   UNL     1       6.789  -0.136  -5.785  0.00  0.00    +0.004 A 
ATOM     21  C   UNL     1       7.579  -0.802  -4.868  0.00  0.00    +0.048 A 
ENDBRANCH  15  16
ENDBRANCH  12  15
ENDBRANCH   9  12
BRANCH   1  22
ATOM     22  C   UNL     1       3.711  -0.707  -0.038  0.00  0.00    +0.037 C 
BRANCH  22  26
ATOM     23  C   UNL     1      -0.017   1.378   0.010  0.00  0.00    +0.000 A 
ATOM     24  C   UNL     1       1.171   2.086   0.002  0.00  0.00    +0.000 A 
ATOM     25  C   UNL     1       2.377   1.411  -0.013  0.00  0.00    +0.003 A 
ATOM     26  C   UNL     1       2.396   0.029  -0.020  0.00  0.00    -0.047 A 
ATOM     27  C   UNL     1       1.208  -0.679  -0.012  0.00  0.00    +0.003 A 
ATOM     28  C   UNL     1       0.002  -0.004   0.002  0.00  0.00    +0.000 A 
ENDBRANCH  22  26
ENDBRANCH   1  22
BRANCH   5  29
ATOM     29  C   UNL     1       7.098  -2.920   2.711  0.00  0.00    -0.042 C 
BRANCH  29  30
ATOM     30  C   UNL     1       7.505  -3.277   4.117  0.00  0.00    -0.064 A 
ATOM     31  C   UNL     1       8.395  -2.472   4.804  0.00  0.00    +0.002 A 
ATOM     32  C   UNL     1       8.768  -2.799   6.094  0.00  0.00    +0.000 A 
ATOM     33  C   UNL     1       8.253  -3.931   6.697  0.00  0.00    +0.000 A 
ATOM     34  C   UNL     1       7.363  -4.736   6.010  0.00  0.00    +0.000 A 
ATOM     35  C   UNL     1       6.986  -4.406   4.722  0.00  0.00    +0.002 A 
ENDBRANCH  29  30
ENDBRANCH   5  29
TORSDOF 7
