REMARK  Name = ZINC07009561
REMARK  5 active torsions:
REMARK  status: ('A' for Active; 'I' for Inactive)
REMARK    1  A    between atoms: C_1  and  C_2
REMARK    2  A    between atoms: C_5  and  N_8
REMARK    3  A    between atoms: N_8  and  C_9
REMARK    4  A    between atoms: C_9  and  C_10
REMARK    5  A    between atoms: N_12  and  N_13
REMARK                            x       y       z     vdW  Elec       q    Type
REMARK                         _______ _______ _______ _____ _____    ______ ____
ROOT
ATOM      1  C   UNL     1       5.537   2.014  -0.247  0.00  0.00    +0.249 C 
ATOM      2  O   UNL     1       6.154   0.970  -0.259  0.00  0.00    -0.272 OA
ATOM      3  N   UNL     1       4.194   2.002  -0.133  0.00  0.00    -0.205 N 
ATOM      4  H   UNL     1       3.700   2.837  -0.124  0.00  0.00    +0.177 HD
ENDROOT
BRANCH   3   5
ATOM      5  N   UNL     1       3.511   0.783  -0.027  0.00  0.00    -0.179 NA
ATOM      6  C   UNL     1       2.203   0.764  -0.032  0.00  0.00    +0.097 C 
ATOM      7  C   UNL     1       1.307   1.909  -0.307  0.00  0.00    +0.010 A 
ATOM      8  C   UNL     1       1.559   3.242  -0.620  0.00  0.00    +0.011 A 
ATOM      9  C   UNL     1       0.506   4.109  -0.831  0.00  0.00    +0.001 A 
ATOM     10  C   UNL     1      -0.801   3.660  -0.735  0.00  0.00    +0.001 A 
ATOM     11  C   UNL     1      -1.068   2.341  -0.430  0.00  0.00    +0.009 A 
ATOM     12  C   UNL     1      -0.018   1.451  -0.208  0.00  0.00    -0.008 A 
ATOM     13  C   UNL     1       0.002   0.012   0.130  0.00  0.00    -0.008 A 
ATOM     14  C   UNL     1       1.340  -0.407   0.238  0.00  0.00    +0.010 A 
ATOM     15  C   UNL     1       1.628  -1.732   0.552  0.00  0.00    +0.011 A 
ATOM     16  C   UNL     1       0.600  -2.630   0.756  0.00  0.00    +0.001 A 
ATOM     17  C   UNL     1      -0.719  -2.220   0.651  0.00  0.00    +0.001 A 
ATOM     18  C   UNL     1      -1.022  -0.910   0.341  0.00  0.00    +0.009 A 
ENDBRANCH   3   5
BRANCH   1  19
ATOM     19  C   UNL     1       6.271   3.325  -0.361  0.00  0.00    +0.199 C 
BRANCH  19  20
ATOM     20  N   UNL     1       7.710   3.071  -0.473  0.00  0.00    -0.335 N 
ATOM     21  H   UNL     1       8.043   2.160  -0.465  0.00  0.00    +0.147 HD
BRANCH  20  26
ATOM     22  C   UNL     1      11.328   7.411  -0.951  0.00  0.00    +0.044 C 
ATOM     23  C   UNL     1      10.366   6.257  -0.824  0.00  0.00    -0.050 A 
ATOM     24  C   UNL     1      10.843   4.959  -0.813  0.00  0.00    +0.005 A 
ATOM     25  C   UNL     1       9.965   3.900  -0.697  0.00  0.00    +0.023 A 
ATOM     26  C   UNL     1       8.601   4.139  -0.590  0.00  0.00    +0.028 A 
ATOM     27  C   UNL     1       8.125   5.444  -0.607  0.00  0.00    +0.023 A 
ATOM     28  C   UNL     1       9.009   6.499  -0.719  0.00  0.00    +0.005 A 
ENDBRANCH  20  26
ENDBRANCH  19  20
ENDBRANCH   1  19
TORSDOF 4
