REMARK  Name = ZINC06333361
REMARK  5 active torsions:
REMARK  status: ('A' for Active; 'I' for Inactive)
REMARK    1  A    between atoms: C_6  and  S_7
REMARK    2  A    between atoms: S_7  and  N_10
REMARK    3  A    between atoms: N_10  and  N_11
REMARK    4  A    between atoms: C_12  and  C_14
REMARK    5  A    between atoms: C_18  and  N_20
REMARK                            x       y       z     vdW  Elec       q    Type
REMARK                         _______ _______ _______ _____ _____    ______ ____
ROOT
ATOM      1  N   UNL     1      -3.681   3.184   0.054  0.00  0.00    -0.228 N 
ATOM      2  C   UNL     1      -2.521   3.870   0.046  0.00  0.00    +0.259 C 
ATOM      3  O   UNL     1      -2.533   5.085   0.053  0.00  0.00    -0.269 OA
ATOM      4  H   UNL     1      -3.671   2.214   0.049  0.00  0.00    +0.171 HD
ENDROOT
BRANCH   2   5
ATOM      5  C   UNL     1      -1.234   3.144   0.030  0.00  0.00    +0.040 A 
ATOM      6  C   UNL     1      -1.217   1.748   0.017  0.00  0.00    +0.014 A 
ATOM      7  C   UNL     1      -0.013   1.076   0.008  0.00  0.00    +0.023 A 
ATOM      8  C   UNL     1       1.178   1.783   0.000  0.00  0.00    +0.071 A 
ATOM      9  C   UNL     1       1.168   3.168   0.007  0.00  0.00    +0.145 A 
ATOM     10  C   UNL     1      -0.030   3.851   0.023  0.00  0.00    +0.047 A 
ATOM     11 CL   UNL     1       2.691   0.931  -0.019  0.00  0.00    -0.081 Cl
BRANCH   9  12
ATOM     12  N   UNL     1       2.445   3.917  -0.001  0.00  0.00    +0.058 N 
ATOM     13  O   UNL     1       2.436   5.135   0.005  0.00  0.00    -0.126 OA
ATOM     14  O   UNL     1       3.503   3.315  -0.014  0.00  0.00    -0.126 OA
ENDBRANCH   9  12
ENDBRANCH   2   5
BRANCH   1  15
ATOM     15  N   UNL     1      -4.902   3.872   0.069  0.00  0.00    -0.108 NA
ATOM     16  H   UNL     1      -5.081   4.526   0.762  0.00  0.00    +0.172 HD
BRANCH  15  17
ATOM     17  S   UNL     1      -6.038   3.568  -1.097  0.00  0.00    +0.074 S 
ATOM     18  O   UNL     1      -7.200   4.301  -0.732  0.00  0.00    -0.152 OA
ATOM     19  O   UNL     1      -5.391   3.742  -2.350  0.00  0.00    -0.152 OA
BRANCH  17  25
ATOM     20  C   UNL     1      -5.761   0.925  -1.716  0.00  0.00    +0.030 A 
ATOM     21  C   UNL     1      -6.089  -0.415  -1.621  0.00  0.00    +0.022 A 
ATOM     22  C   UNL     1      -7.125  -0.816  -0.797  0.00  0.00    +0.041 A 
ATOM     23  C   UNL     1      -7.829   0.123  -0.064  0.00  0.00    +0.022 A 
ATOM     24  C   UNL     1      -7.497   1.462  -0.156  0.00  0.00    +0.030 A 
ATOM     25  C   UNL     1      -6.461   1.862  -0.980  0.00  0.00    +0.107 A 
ATOM     26 CL   UNL     1      -7.542  -2.497  -0.681  0.00  0.00    -0.084 Cl
ENDBRANCH  17  25
ENDBRANCH  15  17
ENDBRANCH   1  15
TORSDOF 5
