REMARK  Name = ZINC09664294
REMARK  6 active torsions:
REMARK  status: ('A' for Active; 'I' for Inactive)
REMARK    1  A    between atoms: C_9  and  S_11
REMARK    2  A    between atoms: S_11  and  C_12
REMARK    3  A    between atoms: C_12  and  C_13
REMARK    4  A    between atoms: N_15  and  C_16
REMARK    5  A    between atoms: C_20  and  S_22
REMARK    6  A    between atoms: S_22  and  N_25
REMARK                            x       y       z     vdW  Elec       q    Type
REMARK                         _______ _______ _______ _____ _____    ______ ____
ROOT
ATOM      1  C   UNL     1       2.120  -3.082   4.754  0.00  0.00    +0.227 C 
ATOM      2  O   UNL     1       2.048  -3.554   3.640  0.00  0.00    -0.275 OA
ATOM      3  N   UNL     1       2.496  -1.798   4.919  0.00  0.00    -0.285 N 
ATOM      4  H   UNL     1       2.627  -1.442   5.812  0.00  0.00    +0.155 HD
ENDROOT
BRANCH   3   5
ATOM      5  C   UNL     1       2.696  -0.979   3.803  0.00  0.00    +0.035 A 
ATOM      6  C   UNL     1       3.670   0.011   3.832  0.00  0.00    +0.023 A 
ATOM      7  C   UNL     1       3.865   0.818   2.728  0.00  0.00    +0.004 A 
ATOM      8  C   UNL     1       3.095   0.637   1.593  0.00  0.00    +0.029 A 
ATOM      9  C   UNL     1       2.122  -0.344   1.563  0.00  0.00    +0.110 A 
ATOM     10  C   UNL     1       1.921  -1.154   2.664  0.00  0.00    +0.052 A 
BRANCH   9  11
ATOM     11  S   UNL     1       1.140  -0.565   0.117  0.00  0.00    +0.073 S 
ATOM     12  O   UNL     1       0.675  -1.908   0.143  0.00  0.00    -0.150 OA
ATOM     13  O   UNL     1       1.892  -0.041  -0.969  0.00  0.00    -0.150 OA
BRANCH  11  14
ATOM     14  N   UNL     1      -0.195   0.401   0.278  0.00  0.00    -0.205 N 
ATOM     15  C   UNL     1      -0.055   1.763   0.311  0.00  0.00    +0.088 C 
ATOM     16  C   UNL     1       0.911   3.840   0.285  0.00  0.00    +0.114 C 
ATOM     17  C   UNL     1      -0.511   4.067   0.850  0.00  0.00    +0.028 C 
ATOM     18  C   UNL     1      -1.202   2.740   0.448  0.00  0.00    +0.072 C 
ATOM     19  H   UNL     1      -1.077   0.002   0.350  0.00  0.00    +0.175 HD
ATOM     20  N   UNL     1       1.086   2.373   0.221  0.00  0.00    -0.375 N 
ATOM     21  H   UNL     1       1.992   1.900   0.119  0.00  0.00    +0.161 HD
ENDBRANCH  11  14
ENDBRANCH   9  11
ENDBRANCH   3   5
BRANCH   1  22
ATOM     22  C   UNL     1       1.789  -3.930   5.955  0.00  0.00    +0.170 C 
BRANCH  22  23
ATOM     23  S   UNL     1       1.323  -5.596   5.409  0.00  0.00    -0.115 S 
BRANCH  23  32
ATOM     24  C   UNL     1       0.812  -6.478   9.310  0.00  0.00    +0.002 A 
ATOM     25  C   UNL     1       0.420  -7.782   9.309  0.00  0.00    +0.008 A 
ATOM     26  C   UNL     1       0.289  -8.475   8.093  0.00  0.00    -0.015 A 
ATOM     27  C   UNL     1      -0.114  -9.821   8.062  0.00  0.00    +0.008 A 
ATOM     28  C   UNL     1      -0.231 -10.462   6.867  0.00  0.00    +0.002 A 
ATOM     29  C   UNL     1       0.042  -9.804   5.670  0.00  0.00    +0.020 A 
ATOM     30  C   UNL     1       0.434  -8.499   5.662  0.00  0.00    +0.050 A 
ATOM     31  C   UNL     1       0.561  -7.804   6.876  0.00  0.00    +0.014 A 
ATOM     32  C   UNL     1       0.971  -6.453   6.907  0.00  0.00    +0.017 A 
ATOM     33  C   UNL     1       1.088  -5.809   8.122  0.00  0.00    +0.015 A 
ATOM     34 CL   UNL     1       0.769  -7.698   4.159  0.00  0.00    -0.083 Cl
ENDBRANCH  23  32
ENDBRANCH  22  23
ENDBRANCH   1  22
TORSDOF 6
