REMARK  Name = ZINC08769225
REMARK  10 active torsions:
REMARK  status: ('A' for Active; 'I' for Inactive)
REMARK    1  A    between atoms: C_1  and  C_2
REMARK    2  A    between atoms: C_2  and  O_3
REMARK    3  A    between atoms: O_3  and  C_4
REMARK    4  A    between atoms: C_4  and  C_6
REMARK    5  A    between atoms: C_7  and  C_29
REMARK    6  A    between atoms: C_10  and  N_11
REMARK    7  A    between atoms: C_12  and  C_14
REMARK    8  A    between atoms: C_14  and  N_15
REMARK    9  A    between atoms: C_16  and  C_25
REMARK   10  A    between atoms: C_19  and  C_22
REMARK                            x       y       z     vdW  Elec       q    Type
REMARK                         _______ _______ _______ _____ _____    ______ ____
ROOT
ATOM      1  N   UNL     1      -3.406   7.529  -1.528  0.00  0.00    -0.278 N 
ATOM      2  C   UNL     1      -3.699   8.823  -1.292  0.00  0.00    +0.237 C 
ATOM      3  O   UNL     1      -3.120   9.426  -0.413  0.00  0.00    -0.273 OA
ATOM      4  H   UNL     1      -3.869   7.047  -2.231  0.00  0.00    +0.155 HD
ENDROOT
BRANCH   1   9
ATOM      5  C   UNL     1      -2.010   5.570  -0.859  0.00  0.00    +0.096 A 
ATOM      6  C   UNL     1      -0.979   5.155   0.074  0.00  0.00    +0.012 A 
ATOM      7  C   UNL     1      -0.540   6.092   0.955  0.00  0.00    +0.057 A 
ATOM      8  S   UNL     1      -1.496   7.533   0.531  0.00  0.00    -0.080 S 
ATOM      9  C   UNL     1      -2.444   6.886  -0.765  0.00  0.00    +0.086 A 
BRANCH   6  10
ATOM     10  C   UNL     1      -0.439   3.780   0.071  0.00  0.00    +0.021 A 
ATOM     11  C   UNL     1       0.867   3.366   0.054  0.00  0.00    +0.016 A 
ATOM     12  C   UNL     1       1.132   2.013   0.055  0.00  0.00    +0.008 A 
ATOM     13  C   UNL     1       0.097   1.136   0.072  0.00  0.00    +0.046 A 
ATOM     14  S   UNL     1      -1.317   2.225   0.081  0.00  0.00    -0.097 S 
ENDBRANCH   6  10
BRANCH   5  15
ATOM     15  C   UNL     1      -2.566   4.648  -1.849  0.00  0.00    +0.342 C 
ATOM     16  O   UNL     1      -3.538   3.972  -1.572  0.00  0.00    -0.245 OA
BRANCH  15  17
ATOM     17  O   UNL     1      -2.000   4.548  -3.069  0.00  0.00    -0.461 OA
BRANCH  17  19
ATOM     18  C   UNL     1      -1.821   3.651  -5.306  0.00  0.00    +0.048 C 
ATOM     19  C   UNL     1      -2.594   3.627  -3.986  0.00  0.00    +0.229 C 
ENDBRANCH  17  19
ENDBRANCH  15  17
ENDBRANCH   5  15
ENDBRANCH   1   9
BRANCH   2  20
ATOM     20  C   UNL     1      -4.746   9.522  -2.121  0.00  0.00    +0.221 C 
BRANCH  20  21
ATOM     21  N   UNL     1      -4.878  10.910  -1.673  0.00  0.00    -0.295 N 
ATOM     22  C   UNL     1      -4.108  11.870  -2.240  0.00  0.00    +0.126 A 
ATOM     23  C   UNL     1      -4.201  13.167  -1.851  0.00  0.00    +0.031 A 
ATOM     24  C   UNL     1      -5.101  13.536  -0.852  0.00  0.00    +0.020 A 
ATOM     25  C   UNL     1      -5.896  12.554  -0.264  0.00  0.00    +0.101 A 
ATOM     26  C   UNL     1      -5.766  11.213  -0.707  0.00  0.00    +0.264 A 
ATOM     27  O   UNL     1      -6.454  10.336  -0.212  0.00  0.00    -0.267 OA
BRANCH  25  28
ATOM     28  C   UNL     1      -6.857  12.903   0.793  0.00  0.00    +0.247 C 
ATOM     29  O   UNL     1      -6.890  14.036   1.236  0.00  0.00    -0.270 OA
ATOM     30  N   UNL     1      -7.702  11.969   1.272  0.00  0.00    -0.325 N 
ATOM     31  H   UNL     1      -7.627  11.049   0.973  0.00  0.00    +0.145 HD
ATOM     32  H   UNL     1      -8.385  12.216   1.915  0.00  0.00    +0.145 HD
ENDBRANCH  25  28
BRANCH  22  33
ATOM     33  C   UNL     1      -3.130  11.490  -3.321  0.00  0.00    +0.433 C 
ATOM     34  F   UNL     1      -2.449  12.632  -3.756  0.00  0.00    -0.164 F 
ATOM     35  F   UNL     1      -2.212  10.564  -2.815  0.00  0.00    -0.164 F 
ATOM     36  F   UNL     1      -3.821  10.921  -4.396  0.00  0.00    -0.164 F 
ENDBRANCH  22  33
ENDBRANCH  20  21
ENDBRANCH   2  20
TORSDOF 9
