REMARK  Name = ZINC39606622
REMARK  10 active torsions:
REMARK  status: ('A' for Active; 'I' for Inactive)
REMARK    1  A    between atoms: C_1  and  C_2
REMARK    2  A    between atoms: C_2  and  C_3
REMARK    3  A    between atoms: C_3  and  C_5
REMARK    4  A    between atoms: C_3  and  C_6
REMARK    5  A    between atoms: C_6  and  N_7
REMARK    6  A    between atoms: C_8  and  C_10
REMARK    7  A    between atoms: C_21  and  C_23
REMARK    8  A    between atoms: C_23  and  O_24
REMARK    9  A    between atoms: O_24  and  C_25
REMARK   10  A    between atoms: C_35  and  C_36
REMARK                            x       y       z     vdW  Elec       q    Type
REMARK                         _______ _______ _______ _____ _____    ______ ____
ROOT
ATOM      1  C   UNL     1      -4.434  -4.387  -0.472  0.00  0.00    +0.100 C 
ATOM      2  C   UNL     1      -5.144  -3.741  -1.683  0.00  0.00    +0.121 C 
ATOM      3  N   UNL     1      -4.968  -4.717  -2.784  0.00  0.00    -0.297 N 
ATOM      4  C   UNL     1      -5.139  -6.039  -2.135  0.00  0.00    +0.115 C 
ATOM      5  C   UNL     1      -4.436  -5.895  -0.771  0.00  0.00    -0.004 C 
ATOM      6  C   UNL     1      -5.213  -6.646   0.306  0.00  0.00    -0.010 C 
ATOM      7  C   UNL     1      -5.151  -8.149   0.019  0.00  0.00    -0.082 C 
ATOM      8  N   UNL     1      -3.751  -8.589   0.001  0.00  0.00    +0.379 N 
ATOM      9  C   UNL     1      -3.033  -7.931  -1.097  0.00  0.00    -0.082 C 
ATOM     10  C   UNL     1      -3.005  -6.418  -0.857  0.00  0.00    -0.010 C 
ATOM     11  C   UNL     1      -4.712  -4.460  -4.082  0.00  0.00    +0.253 C 
ATOM     12  O   UNL     1      -4.594  -5.375  -4.869  0.00  0.00    -0.272 OA
ATOM     13  H   UNL     1      -3.313  -8.350   0.878  0.00  0.00    -0.086 HD
ATOM     14  H   UNL     1      -3.715  -9.589  -0.128  0.00  0.00    -0.086 HD
ENDROOT
BRANCH   1  16
ATOM     15  N   UNL     1      -2.417  -3.822   0.845  0.00  0.00    -0.315 N 
ATOM     16  C   UNL     1      -3.020  -3.876  -0.359  0.00  0.00    +0.218 C 
ATOM     17  O   UNL     1      -2.426  -3.513  -1.352  0.00  0.00    -0.275 OA
ATOM     18  H   UNL     1      -2.893  -4.113   1.639  0.00  0.00    +0.149 HD
BRANCH  15  19
ATOM     19  C   UNL     1      -1.043  -3.326   0.955  0.00  0.00    +0.107 C 
BRANCH  19  20
ATOM     20  C   UNL     1      -0.601  -3.369   2.419  0.00  0.00    +0.003 C 
ATOM     21  C   UNL     1      -0.544  -4.823   2.892  0.00  0.00    +0.009 C 
BRANCH  20  23
ATOM     22  C   UNL     1       1.175  -2.666   4.029  0.00  0.00    +0.004 C 
ATOM     23  C   UNL     1       0.786  -2.736   2.551  0.00  0.00    +0.001 C 
ENDBRANCH  20  23
ENDBRANCH  19  20
ENDBRANCH  15  19
ENDBRANCH   1  16
BRANCH  11  24
ATOM     24  C   UNL     1      -4.571  -3.037  -4.555  0.00  0.00    +0.324 C 
BRANCH  24  25
ATOM     25  O   UNL     1      -4.303  -3.025  -5.958  0.00  0.00    -0.479 OA
BRANCH  25  26
ATOM     26  C   UNL     1      -4.148  -1.810  -6.548  0.00  0.00    +0.164 A 
ATOM     27  C   UNL     1      -4.245  -0.656  -5.791  0.00  0.00    +0.049 A 
ATOM     28  C   UNL     1      -4.088   0.590  -6.381  0.00  0.00    +0.004 A 
ATOM     29  C   UNL     1      -3.833   0.696  -7.729  0.00  0.00    +0.012 A 
ATOM     30  C   UNL     1      -3.731  -0.461  -8.509  0.00  0.00    +0.024 A 
ATOM     31  C   UNL     1      -3.884  -1.724  -7.913  0.00  0.00    +0.181 A 
ATOM     32  O   UNL     1      -3.781  -2.840  -8.667  0.00  0.00    -0.418 OA
ATOM     33  C   UNL     1      -3.528  -2.776  -9.983  0.00  0.00    +0.338 A 
ATOM     34  O   UNL     1      -3.443  -3.809 -10.623  0.00  0.00    -0.245 OA
ATOM     35  C   UNL     1      -3.357  -1.541 -10.645  0.00  0.00    +0.096 A 
ATOM     36  C   UNL     1      -3.461  -0.381  -9.947  0.00  0.00    -0.033 A 
ATOM     37  C   UNL     1      -3.284   0.951 -10.629  0.00  0.00    +0.045 C 
ENDBRANCH  25  26
ENDBRANCH  24  25
ENDBRANCH  11  24
TORSDOF 7
