REMARK  Name = ZINC39687300
REMARK  8 active torsions:
REMARK  status: ('A' for Active; 'I' for Inactive)
REMARK    1  A    between atoms: C_1  and  C_2
REMARK    2  A    between atoms: C_5  and  C_9
REMARK    3  A    between atoms: C_6  and  C_8
REMARK    4  A    between atoms: C_13  and  C_22
REMARK    5  A    between atoms: N_24  and  C_25
REMARK    6  A    between atoms: C_25  and  C_27
REMARK    7  A    between atoms: C_25  and  C_34
REMARK    8  A    between atoms: C_27  and  C_28
REMARK                            x       y       z     vdW  Elec       q    Type
REMARK                         _______ _______ _______ _____ _____    ______ ____
ROOT
ATOM      1  C   UNL     1      -0.447  -3.810   0.065  0.00  0.00    +0.247 C 
ATOM      2  O   UNL     1      -0.494  -4.403   1.125  0.00  0.00    -0.270 OA
ATOM      3  N   UNL     1      -0.440  -4.499  -1.093  0.00  0.00    -0.296 N 
ATOM      4  C   UNL     1      -0.291  -3.965  -2.467  0.00  0.00    +0.121 C 
ATOM      5  C   UNL     1       0.606  -4.994  -3.191  0.00  0.00    +0.100 C 
ATOM      6  C   UNL     1       0.411  -6.303  -2.409  0.00  0.00    -0.004 C 
ATOM      7  C   UNL     1      -0.573  -5.964  -1.280  0.00  0.00    +0.115 C 
ATOM      8  C   UNL     1      -0.176  -7.379  -3.317  0.00  0.00    -0.010 C 
ATOM      9  C   UNL     1      -0.307  -8.688  -2.533  0.00  0.00    -0.082 C 
ATOM     10  N   UNL     1       1.014  -9.101  -2.043  0.00  0.00    +0.379 N 
ATOM     11  C   UNL     1       1.531  -8.104  -1.097  0.00  0.00    -0.082 C 
ATOM     12  C   UNL     1       1.739  -6.771  -1.821  0.00  0.00    -0.010 C 
ATOM     13  H   UNL     1       0.935  -9.993  -1.579  0.00  0.00    -0.086 HD
ATOM     14  H   UNL     1       1.649  -9.184  -2.822  0.00  0.00    -0.086 HD
ENDROOT
BRANCH   1  19
ATOM     15  C   UNL     1      -0.256   1.941  -0.009  0.00  0.00    +0.044 C 
ATOM     16  C   UNL     1      -0.306   0.435   0.010  0.00  0.00    -0.050 A 
ATOM     17  C   UNL     1       0.629  -0.294  -0.702  0.00  0.00    +0.004 A 
ATOM     18  C   UNL     1       0.589  -1.673  -0.688  0.00  0.00    +0.013 A 
ATOM     19  C   UNL     1      -0.398  -2.333   0.046  0.00  0.00    +0.040 A 
ATOM     20  C   UNL     1      -1.339  -1.591   0.762  0.00  0.00    -0.038 A 
ATOM     21  C   UNL     1      -1.284  -0.212   0.744  0.00  0.00    +0.007 A 
ATOM     22  C   UNL     1      -2.408  -2.294   1.557  0.00  0.00    +0.044 C 
ENDBRANCH   1  19
BRANCH   5  23
ATOM     23  C   UNL     1       0.162  -5.163  -4.621  0.00  0.00    +0.219 C 
ATOM     24  O   UNL     1      -1.014  -5.080  -4.905  0.00  0.00    -0.275 OA
ATOM     25  N   UNL     1       1.072  -5.406  -5.585  0.00  0.00    -0.303 N 
ATOM     26  H   UNL     1       2.013  -5.471  -5.359  0.00  0.00    +0.149 HD
BRANCH  25  27
ATOM     27  C   UNL     1       0.641  -5.570  -6.976  0.00  0.00    +0.163 C 
BRANCH  27  28
ATOM     28  C   UNL     1       0.227  -7.000  -7.207  0.00  0.00    +0.236 C 
ATOM     29  O   UNL     1       0.709  -7.888  -6.535  0.00  0.00    -0.274 OA
ATOM     30  N   UNL     1      -0.678  -7.294  -8.162  0.00  0.00    -0.300 N 
ATOM     31  C   UNL     1      -1.185  -6.247  -9.060  0.00  0.00    +0.108 C 
ATOM     32  C   UNL     1      -0.986  -6.703 -10.509  0.00  0.00    +0.019 C 
ATOM     33  C   UNL     1      -1.643  -8.071 -10.704  0.00  0.00    +0.003 C 
ATOM     34  C   UNL     1      -0.979  -9.094  -9.781  0.00  0.00    +0.019 C 
ATOM     35  C   UNL     1      -1.173  -8.668  -8.328  0.00  0.00    +0.108 C 
ENDBRANCH  27  28
BRANCH  27  36
ATOM     36  C   UNL     1       1.796  -5.215  -7.914  0.00  0.00    +0.067 C 
BRANCH  36  37
ATOM     37  C   UNL     1       2.122  -3.750  -7.777  0.00  0.00    -0.045 A 
ATOM     38  C   UNL     1       1.483  -2.822  -8.579  0.00  0.00    +0.004 A 
ATOM     39  C   UNL     1       1.782  -1.478  -8.454  0.00  0.00    +0.000 A 
ATOM     40  C   UNL     1       2.719  -1.062  -7.527  0.00  0.00    +0.000 A 
ATOM     41  C   UNL     1       3.356  -1.989  -6.724  0.00  0.00    +0.000 A 
ATOM     42  C   UNL     1       3.054  -3.333  -6.846  0.00  0.00    +0.004 A 
ENDBRANCH  36  37
ENDBRANCH  27  36
ENDBRANCH  25  27
ENDBRANCH   5  23
TORSDOF 6
