REMARK  Name = ZINC21318181
REMARK  8 active torsions:
REMARK  status: ('A' for Active; 'I' for Inactive)
REMARK    1  A    between atoms: C_1  and  C_2
REMARK    2  A    between atoms: C_2  and  C_25
REMARK    3  A    between atoms: N_3  and  N_4
REMARK    4  A    between atoms: C_8  and  S_11
REMARK    5  A    between atoms: N_9  and  N_10
REMARK    6  A    between atoms: S_11  and  C_12
REMARK    7  A    between atoms: C_12  and  C_13
REMARK    8  A    between atoms: C_13  and  C_15
REMARK                            x       y       z     vdW  Elec       q    Type
REMARK                         _______ _______ _______ _____ _____    ______ ____
ROOT
ATOM      1  N   UNL     1       1.749  -1.664   0.747  0.00  0.00    -0.204 N 
ATOM      2  C   UNL     1       1.296  -0.356   0.651  0.00  0.00    +0.254 A 
ATOM      3  N   UNL     1       0.049   0.036   0.751  0.00  0.00    -0.109 NA
ATOM      4  N   UNL     1       0.020   1.428   0.596  0.00  0.00    -0.119 NA
ATOM      5  C   UNL     1       1.250   1.841   0.406  0.00  0.00    +0.210 A 
ATOM      6  N   UNL     1       2.071   0.749   0.435  0.00  0.00    -0.211 N 
ATOM      7  H   UNL     1       2.823  -1.883   0.648  0.00  0.00    +0.178 HD
ENDROOT
BRANCH   1  10
ATOM      8  C   UNL     1       2.735  -4.229   0.925  0.00  0.00    +0.068 C 
ATOM      9  C   UNL     1       1.264  -3.930   1.061  0.00  0.00    +0.063 C 
ATOM     10  N   UNL     1       0.840  -2.706   0.971  0.00  0.00    -0.184 NA
BRANCH   9  11
ATOM     11  C   UNL     1       0.307  -5.026   1.296  0.00  0.00    +0.001 A 
ATOM     12  C   UNL     1       0.762  -6.344   1.393  0.00  0.00    +0.013 A 
ATOM     13  C   UNL     1      -0.135  -7.368   1.614  0.00  0.00    +0.050 A 
ATOM     14  C   UNL     1      -1.490  -7.095   1.740  0.00  0.00    +0.166 A 
ATOM     15  C   UNL     1      -1.950  -5.782   1.644  0.00  0.00    +0.167 A 
ATOM     16  C   UNL     1      -1.056  -4.750   1.428  0.00  0.00    +0.059 A 
ATOM     17  O   UNL     1      -3.306  -5.784   1.801  0.00  0.00    -0.453 OA
ATOM     18  C   UNL     1      -3.623  -7.054   2.400  0.00  0.00    +0.466 C 
ATOM     19  O   UNL     1      -2.558  -7.916   1.957  0.00  0.00    -0.453 OA
ENDBRANCH   9  11
ENDBRANCH   1  10
BRANCH   6  20
ATOM     20  N   UNL     1       3.428   0.760   0.277  0.00  0.00    -0.294 N 
ATOM     21  H   UNL     1       3.954   1.711   0.107  0.00  0.00    +0.163 HD
ATOM     22  H   UNL     1       3.994  -0.182   0.318  0.00  0.00    +0.163 HD
ENDBRANCH   6  20
BRANCH   5  23
ATOM     23  S   UNL     1       1.756   3.510   0.157  0.00  0.00    -0.077 S 
BRANCH  23  24
ATOM     24  C   UNL     1       0.208   4.453   0.230  0.00  0.00    +0.152 C 
BRANCH  24  25
ATOM     25  C   UNL     1       0.502   5.918   0.028  0.00  0.00    +0.147 C 
ATOM     26  O   UNL     1       1.639   6.287  -0.146  0.00  0.00    -0.296 OA
BRANCH  25  27
ATOM     27  C   UNL     1      -0.622   6.921   0.045  0.00  0.00    +0.062 C 
ATOM     28  C   UNL     1      -1.421   6.813  -1.256  0.00  0.00    +0.000 C 
ATOM     29  C   UNL     1      -2.563   7.831  -1.239  0.00  0.00    +0.007 C 
ATOM     30  C   UNL     1      -1.985   9.242  -1.112  0.00  0.00    -0.010 C 
ATOM     31  C   UNL     1      -1.065   9.526  -2.301  0.00  0.00    +0.007 C 
ATOM     32  C   UNL     1       0.076   8.507  -2.317  0.00  0.00    -0.010 C 
ATOM     33  C   UNL     1      -0.501   7.096  -2.445  0.00  0.00    +0.007 C 
ATOM     34  C   UNL     1       0.875   8.616  -1.017  0.00  0.00    +0.007 C 
ATOM     35  C   UNL     1      -0.044   8.332   0.172  0.00  0.00    +0.000 C 
ATOM     36  C   UNL     1      -1.186   9.351   0.188  0.00  0.00    +0.007 C 
ENDBRANCH  25  27
ENDBRANCH  24  25
ENDBRANCH  23  24
ENDBRANCH   5  23
TORSDOF 7
