REMARK  Name = ZINC00663565
REMARK  5 active torsions:
REMARK  status: ('A' for Active; 'I' for Inactive)
REMARK    1  A    between atoms: C_4  and  O_7
REMARK    2  A    between atoms: O_7  and  C_8
REMARK    3  A    between atoms: C_10  and  C_15
REMARK    4  A    between atoms: C_29  and  N_33
REMARK    5  A    between atoms: C_30  and  C_31
REMARK                            x       y       z     vdW  Elec       q    Type
REMARK                         _______ _______ _______ _____ _____    ______ ____
ROOT
ATOM      1  C   UNL     1      -1.155  -2.208  -0.023  0.00  0.00    +0.105 C 
ATOM      2  C   UNL     1       0.200  -2.756   0.336  0.00  0.00    +0.092 A 
ATOM      3  C   UNL     1       1.304  -1.957   0.297  0.00  0.00    +0.152 A 
ATOM      4  C   UNL     1       2.602  -2.546   0.661  0.00  0.00    +0.060 A 
ATOM      5  C   UNL     1       3.771  -1.782   0.644  0.00  0.00    +0.015 A 
ATOM      6  C   UNL     1       4.970  -2.364   0.990  0.00  0.00    +0.001 A 
ATOM      7  C   UNL     1       5.019  -3.702   1.353  0.00  0.00    +0.004 A 
ATOM      8  C   UNL     1       3.872  -4.468   1.375  0.00  0.00    +0.047 A 
ATOM      9  C   UNL     1       2.653  -3.900   1.030  0.00  0.00    +0.143 A 
ATOM     10  O   UNL     1       1.519  -4.633   1.045  0.00  0.00    -0.422 OA
ATOM     11  C   UNL     1       0.331  -4.103   0.716  0.00  0.00    +0.345 A 
ATOM     12  O   UNL     1      -0.662  -4.808   0.748  0.00  0.00    -0.245 OA
ATOM     13  O   UNL     1       1.225  -0.661  -0.062  0.00  0.00    -0.440 OA
ATOM     14  C   UNL     1       0.041  -0.024  -0.020  0.00  0.00    +0.199 C 
ATOM     15  C   UNL     1      -1.130  -0.705   0.005  0.00  0.00    +0.098 C 
ENDROOT
BRANCH   1  18
ATOM     16  C   UNL     1      -3.019  -3.867  -2.860  0.00  0.00    +0.164 A 
ATOM     17  C   UNL     1      -2.672  -3.436  -1.589  0.00  0.00    +0.053 A 
ATOM     18  C   UNL     1      -1.532  -2.677  -1.405  0.00  0.00    -0.031 A 
ATOM     19  C   UNL     1      -0.741  -2.341  -2.488  0.00  0.00    +0.007 A 
ATOM     20  C   UNL     1      -1.081  -2.773  -3.756  0.00  0.00    +0.042 A 
ATOM     21  C   UNL     1      -2.220  -3.534  -3.946  0.00  0.00    +0.165 A 
ATOM     22  F   UNL     1      -2.556  -3.952  -5.187  0.00  0.00    -0.202 F 
BRANCH  16  23
ATOM     23  O   UNL     1      -4.140  -4.614  -3.043  0.00  0.00    -0.453 OA
BRANCH  23  27
ATOM     24  C   UNL     1      -3.708  -8.703  -3.384  0.00  0.00    +0.000 A 
ATOM     25  C   UNL     1      -4.949  -8.122  -3.571  0.00  0.00    +0.004 A 
ATOM     26  C   UNL     1      -5.097  -6.753  -3.457  0.00  0.00    +0.046 A 
ATOM     27  C   UNL     1      -3.998  -5.961  -3.155  0.00  0.00    +0.129 A 
ATOM     28  C   UNL     1      -2.753  -6.546  -2.974  0.00  0.00    +0.046 A 
ATOM     29  C   UNL     1      -2.612  -7.916  -3.083  0.00  0.00    +0.004 A 
ENDBRANCH  23  27
ENDBRANCH  16  23
ENDBRANCH   1  18
BRANCH  14  30
ATOM     30  N   UNL     1       0.019   1.348   0.002  0.00  0.00    -0.328 N 
ATOM     31  H   UNL     1       0.851   1.847  -0.012  0.00  0.00    +0.145 HD
ATOM     32  H   UNL     1      -0.829   1.819   0.028  0.00  0.00    +0.145 HD
ENDBRANCH  14  30
BRANCH  15  33
ATOM     33  C   UNL     1      -2.365   0.019   0.056  0.00  0.00    +0.101 C 
ATOM     34  N   UNL     1      -3.344   0.593   0.096  0.00  0.00    -0.191 NA
ENDBRANCH  15  33
TORSDOF 5
