REMARK  Name = ZINC11866306
REMARK  12 active torsions:
REMARK  status: ('A' for Active; 'I' for Inactive)
REMARK    1  A    between atoms: C_1  and  C_2
REMARK    2  A    between atoms: C_5  and  C_34
REMARK    3  A    between atoms: C_6  and  C_8
REMARK    4  A    between atoms: C_8  and  O_9
REMARK    5  A    between atoms: O_9  and  C_10
REMARK    6  A    between atoms: C_13  and  C_17
REMARK    7  A    between atoms: C_14  and  O_16
REMARK    8  A    between atoms: C_18  and  O_25
REMARK    9  A    between atoms: C_19  and  C_24
REMARK   10  A    between atoms: O_25  and  C_26
REMARK   11  A    between atoms: C_30  and  O_32
REMARK   12  A    between atoms: O_32  and  C_33
REMARK                            x       y       z     vdW  Elec       q    Type
REMARK                         _______ _______ _______ _____ _____    ______ ____
ROOT
ATOM      1  C   UNL     1       1.073  -0.665  -0.064  0.00  0.00    +0.122 A 
ATOM      2  C   UNL     1       1.865   0.050  -0.976  0.00  0.00    +0.175 A 
ATOM      3  C   UNL     1       1.900   1.432  -0.875  0.00  0.00    +0.086 A 
ATOM      4  N   UNL     1       1.191   2.030   0.071  0.00  0.00    -0.216 NA
ATOM      5  C   UNL     1       0.453   1.329   0.918  0.00  0.00    +0.214 A 
ATOM      6  N   UNL     1       0.389   0.008   0.860  0.00  0.00    -0.211 NA
ATOM      7  N   UNL     1      -0.277   1.997   1.889  0.00  0.00    -0.327 N 
ATOM      8  C   UNL     1       2.735   2.245  -1.830  0.00  0.00    +0.070 C 
ATOM      9  H   UNL     1      -0.826   1.497   2.513  0.00  0.00    +0.145 HD
ATOM     10  H   UNL     1      -0.240   2.965   1.943  0.00  0.00    +0.145 HD
ENDROOT
BRANCH   1  14
ATOM     11  C   UNL     1       0.864  -4.910  -0.244  0.00  0.00    +0.124 A 
ATOM     12  C   UNL     1       2.098  -4.271  -0.285  0.00  0.00    +0.046 A 
ATOM     13  C   UNL     1       2.169  -2.897  -0.227  0.00  0.00    +0.017 A 
ATOM     14  C   UNL     1       1.000  -2.142  -0.127  0.00  0.00    +0.046 A 
ATOM     15  C   UNL     1      -0.242  -2.786  -0.080  0.00  0.00    +0.130 A 
ATOM     16  C   UNL     1      -0.303  -4.168  -0.144  0.00  0.00    +0.091 A 
BRANCH  15  17
ATOM     17  O   UNL     1      -1.383  -2.058   0.024  0.00  0.00    -0.506 OA
ATOM     18  H   UNL     1      -1.768  -1.807  -0.827  0.00  0.00    +0.292 HD
ENDBRANCH  15  17
BRANCH  11  19
ATOM     19  O   UNL     1       0.801  -6.266  -0.301  0.00  0.00    -0.487 OA
BRANCH  19  20
ATOM     20  C   UNL     1       2.041  -6.969  -0.403  0.00  0.00    +0.264 C 
BRANCH  20  26
ATOM     21  C   UNL     1      -1.183 -10.796  -0.394  0.00  0.00    +0.044 C 
ATOM     22  C   UNL     1       0.232 -10.282  -0.450  0.00  0.00    -0.050 A 
ATOM     23  C   UNL     1       1.287 -11.171  -0.550  0.00  0.00    +0.003 A 
ATOM     24  C   UNL     1       2.585 -10.700  -0.602  0.00  0.00    +0.004 A 
ATOM     25  C   UNL     1       2.829  -9.339  -0.560  0.00  0.00    -0.044 A 
ATOM     26  C   UNL     1       1.775  -8.451  -0.455  0.00  0.00    -0.007 A 
ATOM     27  C   UNL     1       0.476  -8.923  -0.402  0.00  0.00    +0.010 A 
ATOM     28  C   UNL     1       4.244  -8.825  -0.623  0.00  0.00    +0.044 C 
ENDBRANCH  20  26
ENDBRANCH  19  20
ENDBRANCH  11  19
ENDBRANCH   1  14
BRANCH   2  29
ATOM     29  O   UNL     1       2.580  -0.598  -1.934  0.00  0.00    -0.452 OA
BRANCH  29  30
ATOM     30  C   UNL     1       1.983  -0.819  -3.135  0.00  0.00    +0.132 A 
ATOM     31  C   UNL     1       0.680  -0.392  -3.352  0.00  0.00    +0.046 A 
ATOM     32  C   UNL     1       0.075  -0.612  -4.574  0.00  0.00    +0.007 A 
ATOM     33  C   UNL     1       0.761  -1.266  -5.580  0.00  0.00    +0.046 A 
ATOM     34  C   UNL     1       2.062  -1.699  -5.366  0.00  0.00    +0.124 A 
ATOM     35  C   UNL     1       2.674  -1.475  -4.142  0.00  0.00    +0.091 A 
BRANCH  34  36
ATOM     36  O   UNL     1       2.736  -2.342  -6.355  0.00  0.00    -0.495 OA
ATOM     37  C   UNL     1       2.044  -2.539  -7.590  0.00  0.00    +0.277 C 
ENDBRANCH  34  36
ENDBRANCH  29  30
ENDBRANCH   2  29
TORSDOF 8
