REMARK  Name = ZINC63271679
REMARK  10 active torsions:
REMARK  status: ('A' for Active; 'I' for Inactive)
REMARK    1  A    between atoms: C_1  and  C_2
REMARK    2  A    between atoms: C_2  and  C_4
REMARK    3  A    between atoms: C_2  and  N_10
REMARK    4  A    between atoms: C_4  and  C_5
REMARK    5  A    between atoms: C_5  and  C_6
REMARK    6  A    between atoms: C_6  and  C_7
REMARK    7  A    between atoms: C_7  and  C_8
REMARK    8  A    between atoms: C_7  and  C_9
REMARK    9  A    between atoms: C_11  and  C_13
REMARK   10  A    between atoms: C_13  and  N_14
REMARK                            x       y       z     vdW  Elec       q    Type
REMARK                         _______ _______ _______ _____ _____    ______ ____
ROOT
ATOM      1  N   UNL     1      -3.979  -1.210  -2.505  0.00  0.00    -0.291 N 
ATOM      2  C   UNL     1      -5.231  -1.650  -2.741  0.00  0.00    +0.303 C 
ATOM      3  O   UNL     1      -5.902  -2.092  -1.829  0.00  0.00    -0.253 OA
ATOM      4  N   UNL     1      -5.738  -1.601  -3.989  0.00  0.00    -0.283 N 
ATOM      5  C   UNL     1      -4.883  -1.179  -5.103  0.00  0.00    +0.114 C 
ATOM      6  C   UNL     1      -5.515   0.039  -5.802  0.00  0.00    +0.052 C 
ATOM      7  C   UNL     1      -6.980  -0.276  -5.978  0.00  0.00    -0.036 C 
ATOM      8  C   UNL     1      -7.764  -0.235  -7.048  0.00  0.00    -0.001 A 
ATOM      9  C   UNL     1      -7.523   0.233  -8.422  0.00  0.00    +0.010 A 
ATOM     10  C   UNL     1      -8.562   0.110  -9.289  0.00  0.00    +0.001 A 
ATOM     11  C   UNL     1      -9.803  -0.427  -8.931  0.00  0.00    +0.002 A 
ATOM     12  C   UNL     1     -10.115  -0.874  -7.689  0.00  0.00    +0.026 A 
ATOM     13  C   UNL     1      -9.105  -0.788  -6.687  0.00  0.00    +0.043 A 
ATOM     14  N   UNL     1      -9.138  -1.115  -5.429  0.00  0.00    -0.376 N 
ATOM     15  C   UNL     1      -7.854  -0.756  -4.825  0.00  0.00    +0.124 C 
ATOM     16  C   UNL     1      -7.142  -1.976  -4.219  0.00  0.00    +0.138 C 
ATOM     17  H   UNL     1      -3.417  -0.926  -3.243  0.00  0.00    +0.151 HD
ATOM     18  H   UNL     1      -9.886  -1.527  -4.969  0.00  0.00    +0.160 HD
ENDROOT
BRANCH   1  19
ATOM     19  C   UNL     1      -3.466  -1.161  -1.133  0.00  0.00    +0.201 C 
BRANCH  19  21
ATOM     20  N   UNL     1      -1.376  -0.502   0.014  0.00  0.00    -0.311 N 
ATOM     21  C   UNL     1      -2.054  -0.635  -1.143  0.00  0.00    +0.230 C 
ATOM     22  O   UNL     1      -1.527  -0.332  -2.193  0.00  0.00    -0.274 OA
ATOM     23  H   UNL     1      -1.798  -0.745   0.854  0.00  0.00    +0.149 HD
BRANCH  20  25
ATOM     24  C   UNL     1      -0.028   1.538   0.013  0.00  0.00    +0.028 C 
ATOM     25  C   UNL     1      -0.003   0.008   0.004  0.00  0.00    +0.070 C 
BRANCH  25  26
ATOM     26  C   UNL     1       0.738  -0.497   1.244  0.00  0.00    +0.022 C 
BRANCH  26  27
ATOM     27  C   UNL     1       0.871  -2.020   1.173  0.00  0.00    +0.002 C 
BRANCH  27  28
ATOM     28  C   UNL     1       1.612  -2.525   2.413  0.00  0.00    +0.003 C 
BRANCH  28  29
ATOM     29  C   UNL     1       1.746  -4.048   2.341  0.00  0.00    -0.017 C 
ATOM     30  C   UNL     1       2.635  -4.427   1.156  0.00  0.00    +0.007 C 
ATOM     31  C   UNL     1       2.374  -4.566   3.637  0.00  0.00    +0.007 C 
ENDBRANCH  28  29
ENDBRANCH  27  28
ENDBRANCH  26  27
ENDBRANCH  25  26
ENDBRANCH  20  25
ENDBRANCH  19  21
ENDBRANCH   1  19
TORSDOF 7
