REMARK  Name = ZINC39583580
REMARK  6 active torsions:
REMARK  status: ('A' for Active; 'I' for Inactive)
REMARK    1  A    between atoms: C_9  and  C_11
REMARK    2  A    between atoms: C_11  and  S_12
REMARK    3  A    between atoms: S_12  and  C_13
REMARK    4  A    between atoms: C_17  and  C_26
REMARK    5  A    between atoms: N_19  and  C_20
REMARK    6  A    between atoms: C_20  and  C_21
REMARK                            x       y       z     vdW  Elec       q    Type
REMARK                         _______ _______ _______ _____ _____    ______ ____
ROOT
ATOM      1  C   UNL     1       5.090  -5.023  -1.644  0.00  0.00    +0.201 C 
ATOM      2  N   UNL     1       4.256  -6.113  -1.088  0.00  0.00    -0.229 NA
ATOM      3  N   UNL     1       5.211  -6.984  -0.385  0.00  0.00    -0.233 NA
ATOM      4  C   UNL     1       6.168  -6.018   0.216  0.00  0.00    +0.178 C 
ATOM      5  N   UNL     1       6.311  -4.960  -0.813  0.00  0.00    -0.250 NA
ATOM      6  H   UNL     1       3.782  -6.615  -1.823  0.00  0.00    +0.143 HD
ATOM      7  H   UNL     1       5.679  -7.603  -1.030  0.00  0.00    +0.143 HD
ENDROOT
BRANCH   4   8
ATOM      8  C   UNL     1       7.494  -6.683   0.478  0.00  0.00    +0.022 A 
ATOM      9  C   UNL     1       8.227  -6.706   1.619  0.00  0.00    +0.014 A 
ATOM     10  C   UNL     1       9.429  -7.389   1.630  0.00  0.00    +0.008 A 
ATOM     11  C   UNL     1       9.839  -8.015   0.500  0.00  0.00    +0.045 A 
ATOM     12  S   UNL     1       8.505  -7.653  -0.629  0.00  0.00    -0.099 S 
ENDBRANCH   4   8
BRANCH   1  13
ATOM     13  S   UNL     1       4.195  -3.447  -1.554  0.00  0.00    -0.117 S 
BRANCH  13  14
ATOM     14  C   UNL     1       3.824  -3.254   0.211  0.00  0.00    +0.146 C 
BRANCH  14  23
ATOM     15  C   UNL     1       0.293   1.565   0.993  0.00  0.00    +0.002 A 
ATOM     16  C   UNL     1       1.513   2.203   1.167  0.00  0.00    +0.002 A 
ATOM     17  C   UNL     1       2.684   1.504   1.080  0.00  0.00    +0.030 A 
ATOM     18  C   UNL     1       2.657   0.132   0.815  0.00  0.00    +0.089 A 
ATOM     19  C   UNL     1       1.422  -0.514   0.639  0.00  0.00    +0.066 A 
ATOM     20  C   UNL     1       0.243   0.213   0.730  0.00  0.00    +0.028 A 
ATOM     21  N   UNL     1       1.717  -1.841   0.396  0.00  0.00    -0.341 N 
ATOM     22  H   UNL     1       1.077  -2.551   0.232  0.00  0.00    +0.167 HD
ATOM     23  C   UNL     1       3.071  -1.966   0.427  0.00  0.00    +0.118 A 
ATOM     24  N   UNL     1       3.622  -0.813   0.672  0.00  0.00    -0.232 NA
ENDBRANCH  14  23
ENDBRANCH  13  14
ENDBRANCH   1  13
BRANCH   5  25
ATOM     25  C   UNL     1       7.514  -5.175  -1.627  0.00  0.00    +0.163 C 
BRANCH  25  26
ATOM     26  C   UNL     1       7.683  -4.026  -2.588  0.00  0.00    +0.119 A 
ATOM     27  C   UNL     1       8.373  -2.896  -2.349  0.00  0.00    +0.046 A 
ATOM     28  C   UNL     1       8.269  -2.100  -3.513  0.00  0.00    +0.041 A 
ATOM     29  C   UNL     1       7.522  -2.790  -4.393  0.00  0.00    +0.195 A 
ATOM     30  O   UNL     1       7.175  -3.959  -3.829  0.00  0.00    -0.467 OA
ENDBRANCH  25  26
ENDBRANCH   5  25
TORSDOF 6
