REMARK  Name = ZINC20183261
REMARK  9 active torsions:
REMARK  status: ('A' for Active; 'I' for Inactive)
REMARK    1  A    between atoms: C_1  and  C_2
REMARK    2  A    between atoms: C_2  and  C_3
REMARK    3  A    between atoms: C_7  and  N_9
REMARK    4  A    between atoms: N_9  and  C_10
REMARK    5  A    between atoms: C_10  and  N_12
REMARK    6  A    between atoms: N_12  and  N_13
REMARK    7  A    between atoms: C_14  and  C_15
REMARK    8  A    between atoms: C_22  and  S_25
REMARK    9  A    between atoms: S_25  and  N_28
REMARK                            x       y       z     vdW  Elec       q    Type
REMARK                         _______ _______ _______ _____ _____    ______ ____
ROOT
ATOM      1  C   UNL     1       0.900   3.105   0.371  0.00  0.00    +0.020 A 
ATOM      2  C   UNL     1       1.310   1.808   0.393  0.00  0.00    +0.093 A 
ATOM      3  N   UNL     1       0.292   1.012   0.827  0.00  0.00    -0.360 N 
ATOM      4  H   UNL     1       0.443  -0.075   0.914  0.00  0.00    +0.165 HD
ATOM      5  C   UNL     1      -0.826   1.771   1.099  0.00  0.00    +0.047 A 
ATOM      6  C   UNL     1      -0.499   3.111   0.834  0.00  0.00    +0.010 A 
ATOM      7  C   UNL     1      -1.449   4.112   1.027  0.00  0.00    +0.039 A 
ATOM      8  C   UNL     1      -2.705   3.781   1.484  0.00  0.00    +0.106 A 
ATOM      9  C   UNL     1      -3.027   2.459   1.752  0.00  0.00    +0.030 A 
ATOM     10  C   UNL     1      -2.099   1.458   1.565  0.00  0.00    +0.028 A 
ENDROOT
BRANCH   8  11
ATOM     11  S   UNL     1      -3.909   5.044   1.730  0.00  0.00    +0.061 S 
ATOM     12  O   UNL     1      -4.836   4.541   2.683  0.00  0.00    -0.153 OA
ATOM     13  O   UNL     1      -3.193   6.255   1.930  0.00  0.00    -0.153 OA
BRANCH  11  14
ATOM     14  N   UNL     1      -4.739   5.214   0.307  0.00  0.00    -0.177 NA
ATOM     15  C   UNL     1      -4.283   6.165  -0.716  0.00  0.00    +0.109 C 
ATOM     16  C   UNL     1      -4.132   5.415  -2.048  0.00  0.00    +0.017 C 
ATOM     17  C   UNL     1      -5.450   4.714  -2.385  0.00  0.00    +0.003 C 
ATOM     18  C   UNL     1      -5.781   3.695  -1.292  0.00  0.00    +0.017 C 
ATOM     19  C   UNL     1      -5.947   4.421   0.046  0.00  0.00    +0.109 C 
ENDBRANCH  11  14
ENDBRANCH   8  11
BRANCH   1  21
ATOM     20  N   UNL     1       1.172   5.461  -0.006  0.00  0.00    -0.188 NA
ATOM     21  C   UNL     1       1.698   4.273  -0.036  0.00  0.00    +0.140 C 
BRANCH  20  22
ATOM     22  N   UNL     1       1.931   6.573  -0.394  0.00  0.00    -0.218 N 
ATOM     23  H   UNL     1       2.973   6.440  -0.723  0.00  0.00    +0.176 HD
BRANCH  22  24
ATOM     24  C   UNL     1       1.386   7.805  -0.363  0.00  0.00    +0.154 C 
ATOM     25  S   UNL     1       2.313   9.164  -0.837  0.00  0.00    -0.017 S 
BRANCH  24  26
ATOM     26  N   UNL     1       0.110   7.967   0.040  0.00  0.00    -0.296 N 
ATOM     27  H   UNL     1      -0.508   7.088   0.277  0.00  0.00    +0.154 HD
BRANCH  26  32
ATOM     28  C   UNL     1      -0.758  11.455  -0.734  0.00  0.00    -0.046 A 
ATOM     29  C   UNL     1      -1.494  11.796   0.387  0.00  0.00    +0.004 A 
ATOM     30  C   UNL     1      -1.698  10.869   1.392  0.00  0.00    +0.002 A 
ATOM     31  C   UNL     1      -1.172   9.597   1.278  0.00  0.00    +0.023 A 
ATOM     32  C   UNL     1      -0.428   9.253   0.157  0.00  0.00    +0.033 A 
ATOM     33  C   UNL     1      -0.225  10.186  -0.852  0.00  0.00    +0.027 A 
BRANCH  28  35
ATOM     34  C   UNL     1      -1.670  12.365  -2.852  0.00  0.00    +0.009 C 
ATOM     35  C   UNL     1      -0.539  12.468  -1.827  0.00  0.00    +0.032 C 
ENDBRANCH  28  35
ENDBRANCH  26  32
ENDBRANCH  24  26
ENDBRANCH  22  24
ENDBRANCH  20  22
ENDBRANCH   1  21
TORSDOF 8
