REMARK  Name = ZINC13584304
REMARK  9 active torsions:
REMARK  status: ('A' for Active; 'I' for Inactive)
REMARK    1  A    between atoms: C_1  and  C_2
REMARK    2  A    between atoms: C_5  and  N_8
REMARK    3  A    between atoms: C_17  and  S_18
REMARK    4  A    between atoms: S_18  and  C_19
REMARK    5  A    between atoms: C_19  and  C_20
REMARK    6  A    between atoms: N_22  and  N_23
REMARK    7  A    between atoms: C_24  and  C_25
REMARK    8  A    between atoms: C_24  and  C_26
REMARK    9  A    between atoms: C_29  and  O_32
REMARK                            x       y       z     vdW  Elec       q    Type
REMARK                         _______ _______ _______ _____ _____    ______ ____
ROOT
ATOM      1  N   UNL     1       1.304  -4.546  -0.363  0.00  0.00    -0.255 N 
ATOM      2  C   UNL     1       1.815  -3.352   0.018  0.00  0.00    +0.268 A 
ATOM      3  O   UNL     1       3.014  -3.174   0.152  0.00  0.00    -0.267 OA
ATOM      4  C   UNL     1       0.861  -2.309   0.253  0.00  0.00    +0.076 A 
ATOM      5  C   UNL     1       1.149  -0.946   0.666  0.00  0.00    -0.023 A 
ATOM      6  C   UNL     1       0.088  -0.124   0.830  0.00  0.00    -0.004 A 
ATOM      7  S   UNL     1      -1.333  -1.116   0.445  0.00  0.00    -0.073 S 
ATOM      8  C   UNL     1      -0.503  -2.627   0.066  0.00  0.00    +0.117 A 
ATOM      9  N   UNL     1      -0.942  -3.823  -0.309  0.00  0.00    -0.215 NA
ATOM     10  C   UNL     1      -0.033  -4.765  -0.519  0.00  0.00    +0.178 A 
ATOM     11  C   UNL     1       0.110   1.314   1.247  0.00  0.00    +0.043 C 
ATOM     12  C   UNL     1       1.496   1.633   1.824  0.00  0.00    +0.005 C 
ATOM     13  C   UNL     1       2.561   1.091   0.867  0.00  0.00    +0.005 C 
ATOM     14  C   UNL     1       2.568  -0.438   0.910  0.00  0.00    +0.037 C 
ENDROOT
BRANCH   1  19
ATOM     15  C   UNL     1       4.888  -8.833  -1.353  0.00  0.00    +0.044 C 
ATOM     16  C   UNL     1       3.936  -7.695  -1.090  0.00  0.00    -0.050 A 
ATOM     17  C   UNL     1       3.582  -6.841  -2.118  0.00  0.00    +0.005 A 
ATOM     18  C   UNL     1       2.710  -5.796  -1.880  0.00  0.00    +0.026 A 
ATOM     19  C   UNL     1       2.189  -5.605  -0.607  0.00  0.00    +0.052 A 
ATOM     20  C   UNL     1       2.550  -6.462   0.424  0.00  0.00    +0.026 A 
ATOM     21  C   UNL     1       3.419  -7.507   0.178  0.00  0.00    +0.005 A 
ENDBRANCH   1  19
BRANCH  10  22
ATOM     22  S   UNL     1      -0.574  -6.366  -1.018  0.00  0.00    -0.078 S 
BRANCH  22  23
ATOM     23  C   UNL     1      -2.363  -6.092  -1.063  0.00  0.00    +0.174 C 
BRANCH  23  24
ATOM     24  C   UNL     1      -3.055  -7.365  -1.479  0.00  0.00    +0.242 C 
ATOM     25  O   UNL     1      -2.404  -8.359  -1.721  0.00  0.00    -0.273 OA
ATOM     26  N   UNL     1      -4.399  -7.398  -1.581  0.00  0.00    -0.206 N 
ATOM     27  H   UNL     1      -4.920  -6.604  -1.388  0.00  0.00    +0.177 HD
BRANCH  26  28
ATOM     28  N   UNL     1      -5.042  -8.581  -1.968  0.00  0.00    -0.185 NA
ATOM     29  C   UNL     1      -6.336  -8.614  -2.067  0.00  0.00    +0.063 C 
ATOM     30  C   UNL     1      -7.146  -7.379  -1.766  0.00  0.00    +0.068 C 
BRANCH  29  31
ATOM     31  C   UNL     1      -7.013  -9.858  -2.473  0.00  0.00    -0.002 A 
ATOM     32  C   UNL     1      -8.407  -9.897  -2.575  0.00  0.00    +0.013 A 
ATOM     33  C   UNL     1      -9.035 -11.061  -2.961  0.00  0.00    +0.046 A 
ATOM     34  C   UNL     1      -8.287 -12.198  -3.237  0.00  0.00    +0.117 A 
ATOM     35  C   UNL     1      -6.902 -12.166  -3.132  0.00  0.00    +0.046 A 
ATOM     36  C   UNL     1      -6.265 -11.005  -2.752  0.00  0.00    +0.013 A 
BRANCH  34  37
ATOM     37  O   UNL     1      -8.911 -13.345  -3.612  0.00  0.00    -0.507 OA
ATOM     38  H   UNL     1      -9.150 -13.922  -2.873  0.00  0.00    +0.292 HD
ENDBRANCH  34  37
ENDBRANCH  29  31
ENDBRANCH  26  28
ENDBRANCH  23  24
ENDBRANCH  22  23
ENDBRANCH  10  22
TORSDOF 7
