REMARK  Name = ZINC59639368
REMARK  8 active torsions:
REMARK  status: ('A' for Active; 'I' for Inactive)
REMARK    1  A    between atoms: C_1  and  C_2
REMARK    2  A    between atoms: C_2  and  C_39
REMARK    3  A    between atoms: C_6  and  C_19
REMARK    4  A    between atoms: C_23  and  O_34
REMARK    5  A    between atoms: C_24  and  O_25
REMARK    6  A    between atoms: O_25  and  C_26
REMARK    7  A    between atoms: C_26  and  C_27
REMARK    8  A    between atoms: O_34  and  C_35
REMARK                            x       y       z     vdW  Elec       q    Type
REMARK                         _______ _______ _______ _____ _____    ______ ____
ROOT
ATOM      1  C   UNL     1       0.391   1.505   0.257  0.00  0.00    +0.011 C 
ATOM      2  C   UNL     1       0.290  -0.022   0.177  0.00  0.00    -0.024 C 
ATOM      3  C   UNL     1      -1.182  -0.436   0.248  0.00  0.00    +0.043 C 
ATOM      4  C   UNL     1      -1.305  -1.936   0.222  0.00  0.00    -0.029 C 
ATOM      5  C   UNL     1      -0.328  -2.706   0.784  0.00  0.00    +0.023 C 
ATOM      6  C   UNL     1      -0.446  -4.212   0.769  0.00  0.00    +0.138 C 
ATOM      7  N   UNL     1      -1.196  -4.617  -0.426  0.00  0.00    -0.332 N 
ATOM      8  C   UNL     1      -2.354  -3.913  -0.730  0.00  0.00    +0.036 A 
ATOM      9  C   UNL     1      -2.429  -2.555  -0.374  0.00  0.00    +0.007 A 
ATOM     10  C   UNL     1      -3.694  -1.858  -0.601  0.00  0.00    -0.009 A 
ATOM     11  C   UNL     1      -3.959  -0.583  -0.094  0.00  0.00    +0.009 A 
ATOM     12  C   UNL     1      -5.138   0.042  -0.387  0.00  0.00    +0.001 A 
ATOM     13  C   UNL     1      -6.100  -0.579  -1.176  0.00  0.00    +0.001 A 
ATOM     14  C   UNL     1      -5.899  -1.840  -1.648  0.00  0.00    +0.008 A 
ATOM     15  C   UNL     1      -4.713  -2.523  -1.330  0.00  0.00    -0.017 A 
ATOM     16  C   UNL     1      -4.544  -3.870  -1.706  0.00  0.00    +0.010 A 
ATOM     17  C   UNL     1      -3.404  -4.539  -1.399  0.00  0.00    +0.024 A 
ATOM     18  C   UNL     1       0.806  -2.130   1.372  0.00  0.00    +0.162 C 
ATOM     19  O   UNL     1       1.637  -2.848   1.897  0.00  0.00    -0.292 OA
ATOM     20  C   UNL     1       1.030  -0.643   1.365  0.00  0.00    +0.086 C 
ATOM     21  C   UNL     1       0.908  -0.502  -1.136  0.00  0.00    +0.011 C 
ATOM     22  H   UNL     1      -0.894  -5.348  -0.983  0.00  0.00    +0.147 HD
ENDROOT
BRANCH   6  23
ATOM     23  C   UNL     1      -1.175  -4.678   2.003  0.00  0.00    +0.023 A 
ATOM     24  C   UNL     1      -1.899  -3.775   2.760  0.00  0.00    +0.009 A 
ATOM     25  C   UNL     1      -2.569  -4.198   3.893  0.00  0.00    +0.004 A 
ATOM     26  C   UNL     1      -2.518  -5.526   4.274  0.00  0.00    +0.049 A 
ATOM     27  C   UNL     1      -1.795  -6.436   3.520  0.00  0.00    +0.162 A 
ATOM     28  C   UNL     1      -1.125  -6.011   2.376  0.00  0.00    +0.168 A 
BRANCH  27  29
ATOM     29  O   UNL     1      -1.744  -7.743   3.893  0.00  0.00    -0.491 OA
ATOM     30  C   UNL     1      -2.460  -8.108   5.074  0.00  0.00    +0.277 C 
ENDBRANCH  27  29
BRANCH  28  31
ATOM     31  O   UNL     1      -0.419  -6.901   1.629  0.00  0.00    -0.483 OA
BRANCH  31  32
ATOM     32  C   UNL     1       0.920  -7.178   2.045  0.00  0.00    +0.264 C 
BRANCH  32  33
ATOM     33  C   UNL     1       1.581  -8.085   1.039  0.00  0.00    -0.009 A 
ATOM     34  C   UNL     1       1.579  -9.454   1.236  0.00  0.00    +0.007 A 
ATOM     35  C   UNL     1       2.185 -10.286   0.314  0.00  0.00    +0.002 A 
ATOM     36  C   UNL     1       2.794  -9.751  -0.805  0.00  0.00    +0.020 A 
ATOM     37  C   UNL     1       2.796  -8.382  -1.003  0.00  0.00    +0.041 A 
ATOM     38  C   UNL     1       2.184  -7.549  -0.083  0.00  0.00    +0.027 A 
ATOM     39 CL   UNL     1       3.561  -7.709  -2.409  0.00  0.00    -0.084 Cl
ENDBRANCH  32  33
ENDBRANCH  31  32
ENDBRANCH  28  31
ENDBRANCH   6  23
TORSDOF 5
