REMARK  Name = ZINC18199804
REMARK  4 active torsions:
REMARK  status: ('A' for Active; 'I' for Inactive)
REMARK    1  A    between atoms: C_1  and  C_2
REMARK    2  A    between atoms: C_2  and  C_3
REMARK    3  A    between atoms: N_9  and  C_12
REMARK    4  A    between atoms: C_24  and  C_27
REMARK                            x       y       z     vdW  Elec       q    Type
REMARK                         _______ _______ _______ _____ _____    ______ ____
ROOT
ATOM      1  C   UNL     1       4.836   7.579   0.003  0.00  0.00    +0.062 C 
ATOM      2  C   UNL     1       5.485   7.727  -1.345  0.00  0.00    +0.066 A 
ATOM      3  C   UNL     1       4.940   7.196  -2.486  0.00  0.00    +0.124 A 
ATOM      4  N   UNL     1       5.758   7.503  -3.530  0.00  0.00    -0.277 N 
ATOM      5  H   UNL     1       5.617   7.255  -4.457  0.00  0.00    +0.189 HD
ATOM      6  N   UNL     1       6.841   8.241  -3.026  0.00  0.00    -0.218 N 
ATOM      7  C   UNL     1       6.671   8.375  -1.692  0.00  0.00    +0.277 A 
ATOM      8  O   UNL     1       7.421   8.958  -0.928  0.00  0.00    -0.265 OA
ATOM      9  N   UNL     1       3.762   6.489  -2.457  0.00  0.00    -0.303 N 
ATOM     10  C   UNL     1       3.279   6.057  -1.243  0.00  0.00    +0.017 C 
ATOM     11  C   UNL     1       3.754   6.523  -0.070  0.00  0.00    +0.020 C 
ATOM     12  C   UNL     1       3.251   6.044   1.155  0.00  0.00    +0.162 C 
ATOM     13  O   UNL     1       3.690   6.496   2.194  0.00  0.00    -0.292 OA
ATOM     14  C   UNL     1       2.184   4.987   1.208  0.00  0.00    +0.088 C 
ATOM     15  C   UNL     1       2.284   4.117  -0.049  0.00  0.00    +0.039 C 
ATOM     16  C   UNL     1       2.174   5.026  -1.274  0.00  0.00    +0.060 C 
ATOM     17  H   UNL     1       3.280   6.298  -3.276  0.00  0.00    +0.153 HD
ENDROOT
BRANCH   6  18
ATOM     18  C   UNL     1       7.908   8.748  -3.773  0.00  0.00    +0.067 A 
ATOM     19  C   UNL     1       8.916   9.469  -3.147  0.00  0.00    +0.028 A 
ATOM     20  C   UNL     1       9.972   9.964  -3.887  0.00  0.00    +0.002 A 
ATOM     21  C   UNL     1      10.020   9.752  -5.253  0.00  0.00    +0.000 A 
ATOM     22  C   UNL     1       9.015   9.039  -5.881  0.00  0.00    +0.002 A 
ATOM     23  C   UNL     1       7.960   8.537  -5.145  0.00  0.00    +0.028 A 
ENDBRANCH   6  18
BRANCH  15  24
ATOM     24  C   UNL     1       1.163   3.110  -0.061  0.00  0.00    -0.006 A 
ATOM     25  C   UNL     1       1.230   1.757  -0.084  0.00  0.00    +0.011 A 
ATOM     26  C   UNL     1       0.056   1.027  -0.091  0.00  0.00    +0.008 A 
ATOM     27  C   UNL     1      -1.128   1.687  -0.080  0.00  0.00    +0.045 A 
ATOM     28  S   UNL     1      -0.600   3.392  -0.049  0.00  0.00    -0.101 S 
ENDBRANCH  15  24
BRANCH   1  30
ATOM     29  C   UNL     1       6.401   5.760   0.698  0.00  0.00    +0.005 C 
ATOM     30  C   UNL     1       5.888   7.162   1.032  0.00  0.00    +0.010 C 
ENDBRANCH   1  30
TORSDOF 3
