REMARK  Name = ZINC64604261
REMARK  8 active torsions:
REMARK  status: ('A' for Active; 'I' for Inactive)
REMARK    1  A    between atoms: C_1  and  C_2
REMARK    2  A    between atoms: C_7  and  S_12
REMARK    3  A    between atoms: S_12  and  C_13
REMARK    4  A    between atoms: C_13  and  C_14
REMARK    5  A    between atoms: C_16  and  C_19
REMARK    6  A    between atoms: C_19  and  C_20
REMARK    7  A    between atoms: C_20  and  C_21
REMARK    8  A    between atoms: N_23  and  C_24
REMARK                            x       y       z     vdW  Elec       q    Type
REMARK                         _______ _______ _______ _____ _____    ______ ____
ROOT
ATOM      1  C   UNL     1      -4.082  -4.913   1.822  0.00  0.00    +0.182 A 
ATOM      2  N   UNL     1      -4.755  -5.779   1.056  0.00  0.00    -0.195 NA
ATOM      3  C   UNL     1      -5.838  -6.171   1.669  0.00  0.00    +0.228 A 
ATOM      4  O   UNL     1      -5.890  -5.561   2.860  0.00  0.00    -0.338 OA
ATOM      5  N   UNL     1      -4.729  -4.748   2.941  0.00  0.00    -0.060 NA
ENDROOT
BRANCH   1   6
ATOM      6  C   UNL     1      -2.783  -4.243   1.454  0.00  0.00    +0.152 C 
BRANCH   6   7
ATOM      7  S   UNL     1      -1.395  -5.274   2.001  0.00  0.00    -0.107 S 
BRANCH   7  14
ATOM      8  C   UNL     1      -0.020   1.498  -0.039  0.00  0.00    +0.044 C 
ATOM      9  C   UNL     1      -0.000  -0.008  -0.048  0.00  0.00    -0.048 A 
ATOM     10  C   UNL     1      -0.007  -0.676  -1.286  0.00  0.00    +0.005 A 
ATOM     11  C   UNL     1       0.009  -2.020  -1.387  0.00  0.00    +0.028 A 
ATOM     12  C   UNL     1       0.034  -2.838  -0.167  0.00  0.00    +0.061 A 
ATOM     13  N   UNL     1       0.053  -4.124   0.037  0.00  0.00    -0.355 N 
ATOM     14  C   UNL     1       0.074  -4.340   1.489  0.00  0.00    +0.236 C 
ATOM     15  N   UNL     1       0.065  -3.008   2.106  0.00  0.00    -0.355 N 
ATOM     16  C   UNL     1       0.042  -2.132   1.143  0.00  0.00    +0.061 A 
ATOM     17  C   UNL     1       0.028  -0.662   1.130  0.00  0.00    +0.030 A 
ATOM     18  H   UNL     1       0.052  -4.813  -0.646  0.00  0.00    +0.162 HD
ATOM     19  H   UNL     1       0.074  -2.816   3.057  0.00  0.00    +0.162 HD
ENDBRANCH   7  14
ENDBRANCH   6   7
ENDBRANCH   1   6
BRANCH   3  20
ATOM     20  C   UNL     1      -6.854  -7.144   1.130  0.00  0.00    +0.108 C 
BRANCH  20  21
ATOM     21  C   UNL     1      -6.467  -8.566   1.539  0.00  0.00    +0.105 C 
BRANCH  21  22
ATOM     22  C   UNL     1      -7.484  -9.539   1.000  0.00  0.00    +0.218 C 
ATOM     23  O   UNL     1      -8.426  -9.134   0.352  0.00  0.00    -0.275 OA
ATOM     24  N   UNL     1      -7.346 -10.858   1.238  0.00  0.00    -0.285 N 
ATOM     25  H   UNL     1      -6.559 -11.189   1.698  0.00  0.00    +0.155 HD
BRANCH  24  26
ATOM     26  C   UNL     1      -8.339 -11.751   0.821  0.00  0.00    +0.034 A 
ATOM     27  C   UNL     1      -8.640 -12.866   1.594  0.00  0.00    +0.024 A 
ATOM     28  C   UNL     1      -9.617 -13.748   1.187  0.00  0.00    +0.010 A 
ATOM     29  C   UNL     1     -10.309 -13.523  -0.006  0.00  0.00    -0.014 A 
ATOM     30  C   UNL     1     -10.003 -12.403  -0.775  0.00  0.00    -0.034 A 
ATOM     31  C   UNL     1      -9.029 -11.521  -0.363  0.00  0.00    +0.027 A 
ATOM     32  C   UNL     1     -10.900 -12.425  -1.988  0.00  0.00    +0.071 C 
ATOM     33  C   UNL     1     -11.756 -13.661  -1.852  0.00  0.00    -0.035 A 
ATOM     34  C   UNL     1     -11.388 -14.297  -0.669  0.00  0.00    -0.014 A 
ATOM     35  C   UNL     1     -12.032 -15.479  -0.298  0.00  0.00    +0.009 A 
ATOM     36  C   UNL     1     -13.021 -16.006  -1.102  0.00  0.00    +0.001 A 
ATOM     37  C   UNL     1     -13.380 -15.367  -2.276  0.00  0.00    +0.000 A 
ATOM     38  C   UNL     1     -12.745 -14.195  -2.649  0.00  0.00    +0.004 A 
ENDBRANCH  24  26
ENDBRANCH  21  22
ENDBRANCH  20  21
ENDBRANCH   3  20
TORSDOF 7
