REMARK  Name = ZINC14094868
REMARK  15 active torsions:
REMARK  status: ('A' for Active; 'I' for Inactive)
REMARK    1  A    between atoms: C_1  and  C_2
REMARK    2  A    between atoms: C_2  and  C_3
REMARK    3  A    between atoms: C_3  and  C_5
REMARK    4  A    between atoms: C_3  and  N_64
REMARK    5  A    between atoms: C_8  and  S_17
REMARK    6  A    between atoms: N_9  and  C_10
REMARK    7  A    between atoms: C_10  and  C_11
REMARK    8  A    between atoms: S_17  and  C_18
REMARK    9  A    between atoms: C_18  and  C_20
REMARK   10  A    between atoms: C_18  and  C_21
REMARK   11  A    between atoms: N_23  and  C_24
REMARK   12  A    between atoms: C_27  and  S_30
REMARK   13  A    between atoms: S_30  and  N_33
REMARK   14  A    between atoms: C_34  and  N_64
REMARK   15  A    between atoms: C_35  and  N_64
REMARK                            x       y       z     vdW  Elec       q    Type
REMARK                         _______ _______ _______ _____ _____    ______ ____
ROOT
ATOM      1  C   UNL     1       3.842  -8.738  -1.580  0.00  0.00    +0.121 A 
ATOM      2  N   UNL     1       2.628  -8.617  -1.121  0.00  0.00    -0.135 NA
ATOM      3  N   UNL     1       2.432  -7.418  -0.703  0.00  0.00    -0.123 NA
ATOM      4  C   UNL     1       3.520  -6.702  -0.874  0.00  0.00    +0.193 A 
ATOM      5  N   UNL     1       4.451  -7.521  -1.445  0.00  0.00    -0.303 N 
ENDROOT
BRANCH   1   6
ATOM      6  C   UNL     1       4.457  -9.986  -2.159  0.00  0.00    +0.000 C 
BRANCH   6   9
ATOM      7  C   UNL     1       3.060  -9.662  -4.110  0.00  0.00    -0.096 C 
ATOM      8  C   UNL     1       4.090 -11.815  -3.703  0.00  0.00    -0.096 C 
ATOM      9  N   UNL     1       3.484 -10.624  -3.071  0.00  0.00    +0.383 N 
ATOM     10  H   UNL     1       2.662 -10.915  -2.530  0.00  0.00    -0.082 HD
ENDBRANCH   6   9
BRANCH   6  12
ATOM     11  C   UNL     1       3.498 -11.395  -0.333  0.00  0.00    +0.002 C 
ATOM     12  C   UNL     1       4.790 -10.962  -1.029  0.00  0.00    -0.011 C 
ENDBRANCH   6  12
ENDBRANCH   1   6
BRANCH   5  13
ATOM     13  C   UNL     1       5.821  -7.170  -1.829  0.00  0.00    +0.160 C 
BRANCH  13  14
ATOM     14  C   UNL     1       6.749  -7.428  -0.671  0.00  0.00    -0.028 A 
ATOM     15  C   UNL     1       7.003  -6.427   0.247  0.00  0.00    +0.005 A 
ATOM     16  C   UNL     1       7.851  -6.664   1.313  0.00  0.00    +0.000 A 
ATOM     17  C   UNL     1       8.454  -7.900   1.454  0.00  0.00    +0.000 A 
ATOM     18  C   UNL     1       8.204  -8.900   0.532  0.00  0.00    +0.000 A 
ATOM     19  C   UNL     1       7.352  -8.664  -0.530  0.00  0.00    +0.005 A 
ENDBRANCH  13  14
ENDBRANCH   5  13
BRANCH   4  20
ATOM     20  S   UNL     1       3.734  -5.005  -0.454  0.00  0.00    -0.074 S 
BRANCH  20  21
ATOM     21  C   UNL     1       2.097  -4.640   0.225  0.00  0.00    +0.137 C 
ATOM     22  C   UNL     1       1.879  -5.458   1.499  0.00  0.00    +0.029 C 
BRANCH  21  23
ATOM     23  C   UNL     1       2.004  -3.171   0.550  0.00  0.00    +0.230 C 
ATOM     24  O   UNL     1       3.014  -2.517   0.694  0.00  0.00    -0.274 OA
ATOM     25  N   UNL     1       0.797  -2.585   0.681  0.00  0.00    -0.285 N 
ATOM     26  H   UNL     1      -0.010  -3.122   0.638  0.00  0.00    +0.155 HD
BRANCH  25  27
ATOM     27  C   UNL     1       0.708  -1.202   0.877  0.00  0.00    +0.034 A 
ATOM     28  C   UNL     1       1.633  -0.354   0.281  0.00  0.00    +0.025 A 
ATOM     29  C   UNL     1       1.542   1.010   0.477  0.00  0.00    +0.030 A 
ATOM     30  C   UNL     1       0.532   1.532   1.265  0.00  0.00    +0.105 A 
ATOM     31  C   UNL     1      -0.390   0.690   1.859  0.00  0.00    +0.030 A 
ATOM     32  C   UNL     1      -0.304  -0.675   1.668  0.00  0.00    +0.025 A 
BRANCH  30  33
ATOM     33  S   UNL     1       0.420   3.273   1.512  0.00  0.00    +0.056 S 
ATOM     34  O   UNL     1      -0.285   3.465   2.730  0.00  0.00    -0.153 OA
ATOM     35  O   UNL     1       1.722   3.798   1.293  0.00  0.00    -0.153 OA
BRANCH  33  36
ATOM     36  N   UNL     1      -0.542   3.877   0.307  0.00  0.00    -0.204 NA
ATOM     37  H   UNL     1      -0.919   3.280  -0.358  0.00  0.00    +0.144 HD
ATOM     38  H   UNL     1      -0.729   4.828   0.267  0.00  0.00    +0.144 HD
ENDBRANCH  33  36
ENDBRANCH  30  33
ENDBRANCH  25  27
ENDBRANCH  21  23
ENDBRANCH  20  21
ENDBRANCH   4  20
TORSDOF 11
