REMARK  Name = ZINC59310281
REMARK  8 active torsions:
REMARK  status: ('A' for Active; 'I' for Inactive)
REMARK    1  A    between atoms: C_4  and  C_7
REMARK    2  A    between atoms: C_7  and  C_8
REMARK    3  A    between atoms: C_8  and  N_9
REMARK    4  A    between atoms: C_10  and  C_12
REMARK    5  A    between atoms: C_12  and  S_13
REMARK    6  A    between atoms: S_13  and  C_14
REMARK    7  A    between atoms: N_19  and  N_20
REMARK    8  A    between atoms: C_21  and  C_22
REMARK                            x       y       z     vdW  Elec       q    Type
REMARK                         _______ _______ _______ _____ _____    ______ ____
ROOT
ATOM      1  C   UNL     1       9.412  -3.959   4.038  0.00  0.00    +0.211 A 
ATOM      2  N   UNL     1      10.191  -4.386   5.038  0.00  0.00    -0.186 NA
ATOM      3  C   UNL     1      11.264  -4.968   4.545  0.00  0.00    +0.232 A 
ATOM      4  N   UNL     1      11.183  -4.919   3.198  0.00  0.00    -0.245 N 
ATOM      5  N   UNL     1       9.977  -4.267   2.896  0.00  0.00    -0.144 NA
ATOM      6  N   UNL     1      12.294  -5.529   5.277  0.00  0.00    -0.205 N 
ATOM      7  H   UNL     1      13.048  -5.937   4.822  0.00  0.00    +0.177 HD
ATOM      8  H   UNL     1      11.830  -5.267   2.564  0.00  0.00    +0.192 HD
ENDROOT
BRANCH   6   9
ATOM      9  N   UNL     1      12.249  -5.510   6.678  0.00  0.00    -0.188 NA
ATOM     10  C   UNL     1      13.203  -6.030   7.356  0.00  0.00    +0.139 C 
BRANCH  10  11
ATOM     11  C   UNL     1      13.155  -6.010   8.828  0.00  0.00    +0.002 A 
ATOM     12  C   UNL     1      14.185  -6.717   9.610  0.00  0.00    +0.010 A 
ATOM     13  C   UNL     1      14.153  -6.705  10.927  0.00  0.00    +0.009 A 
ATOM     14  C   UNL     1      13.078  -5.978  11.624  0.00  0.00    -0.017 A 
ATOM     15  C   UNL     1      13.014  -5.945  13.095  0.00  0.00    +0.009 A 
ATOM     16  C   UNL     1      12.044  -5.288  13.700  0.00  0.00    +0.009 A 
ATOM     17  C   UNL     1      11.021  -4.585  12.907  0.00  0.00    -0.017 A 
ATOM     18  C   UNL     1       9.929  -3.844  13.562  0.00  0.00    +0.008 A 
ATOM     19  C   UNL     1       9.028  -3.225  12.827  0.00  0.00    +0.001 A 
ATOM     20  C   UNL     1       9.104  -3.266  11.356  0.00  0.00    +0.008 A 
ATOM     21  C   UNL     1      10.078  -3.926  10.768  0.00  0.00    -0.017 A 
ATOM     22  C   UNL     1      11.082  -4.617  11.597  0.00  0.00    -0.002 A 
ATOM     23  C   UNL     1      12.165  -5.351  10.921  0.00  0.00    -0.002 A 
ATOM     24  C   UNL     1      12.197  -5.355   9.447  0.00  0.00    -0.008 A 
ATOM     25  C   UNL     1      11.156  -4.634   8.701  0.00  0.00    +0.010 A 
ATOM     26  C   UNL     1      10.185  -3.989   9.303  0.00  0.00    +0.009 A 
ENDBRANCH  10  11
ENDBRANCH   6   9
BRANCH   1  27
ATOM     27  S   UNL     1       7.872  -3.123   4.227  0.00  0.00    -0.075 S 
BRANCH  27  28
ATOM     28  C   UNL     1       7.322  -2.827   2.523  0.00  0.00    +0.173 C 
BRANCH  28  30
ATOM     29  N   UNL     1       5.393  -1.782   1.382  0.00  0.00    -0.314 N 
ATOM     30  C   UNL     1       5.997  -2.109   2.541  0.00  0.00    +0.223 C 
ATOM     31  O   UNL     1       5.476  -1.825   3.598  0.00  0.00    -0.275 OA
ATOM     32  H   UNL     1       5.810  -2.010   0.536  0.00  0.00    +0.149 HD
BRANCH  29  33
ATOM     33  C   UNL     1       4.105  -1.084   1.399  0.00  0.00    +0.109 C 
BRANCH  33  34
ATOM     34  C   UNL     1       3.641  -0.835  -0.038  0.00  0.00    +0.054 C 
BRANCH  34  38
ATOM     35  C   UNL     1      -0.114   1.202   0.009  0.00  0.00    +0.000 A 
ATOM     36  C   UNL     1       1.065   1.925   0.001  0.00  0.00    +0.000 A 
ATOM     37  C   UNL     1       2.280   1.266  -0.014  0.00  0.00    +0.004 A 
ATOM     38  C   UNL     1       2.317  -0.116  -0.021  0.00  0.00    -0.046 A 
ATOM     39  C   UNL     1       1.138  -0.839  -0.012  0.00  0.00    +0.004 A 
ATOM     40  C   UNL     1      -0.077  -0.180   0.002  0.00  0.00    +0.000 A 
ENDBRANCH  34  38
ENDBRANCH  33  34
ENDBRANCH  29  33
ENDBRANCH  28  30
ENDBRANCH  27  28
ENDBRANCH   1  27
TORSDOF 8
