REMARK  Name = ZINC20994618
REMARK  8 active torsions:
REMARK  status: ('A' for Active; 'I' for Inactive)
REMARK    1  A    between atoms: C_3  and  C_8
REMARK    2  A    between atoms: C_8  and  N_9
REMARK    3  A    between atoms: C_11  and  N_30
REMARK    4  A    between atoms: C_14  and  C_16
REMARK    5  A    between atoms: N_18  and  C_19
REMARK    6  A    between atoms: C_19  and  C_20
REMARK    7  A    between atoms: C_20  and  C_21
REMARK    8  A    between atoms: N_30  and  C_31
REMARK                            x       y       z     vdW  Elec       q    Type
REMARK                         _______ _______ _______ _____ _____    ______ ____
ROOT
ATOM      1  N   UNL     1      -2.162   1.837   0.757  0.00  0.00    -0.289 NA
ATOM      2  C   UNL     1      -0.778   1.605   1.244  0.00  0.00    +0.070 C 
ATOM      3  C   UNL     1      -0.013   1.086   0.008  0.00  0.00    -0.055 C 
ATOM      4  C   UNL     1      -0.801   1.618  -1.207  0.00  0.00    +0.014 C 
ATOM      5  C   UNL     1      -1.980   2.413  -0.600  0.00  0.00    +0.142 C 
ENDROOT
BRANCH   5   6
ATOM      6  C   UNL     1      -3.226   2.221  -1.425  0.00  0.00    +0.230 C 
ATOM      7  O   UNL     1      -4.189   1.660  -0.946  0.00  0.00    -0.274 OA
ATOM      8  N   UNL     1      -3.272   2.674  -2.693  0.00  0.00    -0.314 N 
ATOM      9  H   UNL     1      -2.398   3.183  -3.127  0.00  0.00    +0.149 HD
BRANCH   8  10
ATOM     10  C   UNL     1      -4.484   2.487  -3.495  0.00  0.00    +0.109 C 
BRANCH  10  11
ATOM     11  C   UNL     1      -4.272   3.087  -4.886  0.00  0.00    +0.054 C 
BRANCH  11  12
ATOM     12  C   UNL     1      -5.519   2.895  -5.711  0.00  0.00    -0.042 A 
ATOM     13  C   UNL     1      -6.510   3.860  -5.698  0.00  0.00    +0.007 A 
ATOM     14  C   UNL     1      -7.655   3.689  -6.453  0.00  0.00    +0.050 A 
ATOM     15  C   UNL     1      -7.813   2.549  -7.224  0.00  0.00    +0.166 A 
ATOM     16  C   UNL     1      -6.815   1.577  -7.237  0.00  0.00    +0.166 A 
ATOM     17  C   UNL     1      -5.667   1.758  -6.482  0.00  0.00    +0.053 A 
ATOM     18  O   UNL     1      -7.204   0.563  -8.064  0.00  0.00    -0.453 OA
ATOM     19  C   UNL     1      -8.623   0.731  -8.238  0.00  0.00    +0.466 C 
ATOM     20  O   UNL     1      -8.827   2.143  -8.044  0.00  0.00    -0.453 OA
ENDBRANCH  11  12
ENDBRANCH  10  11
ENDBRANCH   8  10
ENDBRANCH   5   6
BRANCH   3  21
ATOM     21  N   UNL     1       1.358   1.614  -0.002  0.00  0.00    +0.384 N 
ATOM     22  H   UNL     1       1.718   1.679  -1.040  0.00  0.00    -0.085 HD
ATOM     23  H   UNL     1       1.369   2.615   0.453  0.00  0.00    -0.085 HD
BRANCH  21  24
ATOM     24  C   UNL     1       2.264   0.742   0.757  0.00  0.00    -0.071 C 
ATOM     25  C   UNL     1       2.203   1.111   2.241  0.00  0.00    -0.016 C 
ATOM     26  C   UNL     1       2.814  -0.018   3.073  0.00  0.00    -0.002 C 
ATOM     27  C   UNL     1       2.309  -1.366   2.555  0.00  0.00    -0.000 C 
ATOM     28  C   UNL     1       3.473  -2.142   1.934  0.00  0.00    -0.000 C 
ATOM     29  C   UNL     1       3.801  -1.554   0.560  0.00  0.00    -0.000 C 
ATOM     30  C   UNL     1       4.562  -0.239   0.736  0.00  0.00    -0.002 C 
ATOM     31  C   UNL     1       3.694   0.922   0.245  0.00  0.00    -0.016 C 
ENDBRANCH  21  24
ENDBRANCH   3  21
BRANCH   1  32
ATOM     32  C   UNL     1      -2.879   2.773   1.634  0.00  0.00    +0.120 C 
BRANCH  32  35
ATOM     33  C   UNL     1      -2.500   1.594   5.201  0.00  0.00    +0.002 A 
ATOM     34  C   UNL     1      -2.243   2.205   3.987  0.00  0.00    +0.005 A 
ATOM     35  C   UNL     1      -3.159   2.107   2.957  0.00  0.00    -0.032 A 
ATOM     36  C   UNL     1      -4.335   1.405   3.141  0.00  0.00    +0.025 A 
ATOM     37  C   UNL     1      -4.591   0.790   4.354  0.00  0.00    +0.041 A 
ATOM     38  C   UNL     1      -3.673   0.887   5.385  0.00  0.00    +0.020 A 
ATOM     39 CL   UNL     1      -6.064  -0.098   4.584  0.00  0.00    -0.084 Cl
ENDBRANCH  32  35
ENDBRANCH   1  32
TORSDOF 8
