REMARK  Name = ZINC09279776
REMARK  10 active torsions:
REMARK  status: ('A' for Active; 'I' for Inactive)
REMARK    1  A    between atoms: C_1  and  O_2
REMARK    2  A    between atoms: O_2  and  C_3
REMARK    3  A    between atoms: C_3  and  C_4
REMARK    4  A    between atoms: C_4  and  N_5
REMARK    5  A    between atoms: C_9  and  S_30
REMARK    6  A    between atoms: N_14  and  C_15
REMARK    7  A    between atoms: C_15  and  C_17
REMARK    8  A    between atoms: C_21  and  O_23
REMARK    9  A    between atoms: O_23  and  C_24
REMARK   10  A    between atoms: S_30  and  N_33
REMARK                            x       y       z     vdW  Elec       q    Type
REMARK                         _______ _______ _______ _____ _____    ______ ____
ROOT
ATOM      1  N   UNL     1      -1.504   2.338   0.977  0.00  0.00    -0.319 N 
ATOM      2  C   UNL     1      -0.545   1.356   1.141  0.00  0.00    +0.058 A 
ATOM      3  C   UNL     1      -0.722  -0.036   1.183  0.00  0.00    +0.029 A 
ATOM      4  C   UNL     1       0.352  -0.877   1.349  0.00  0.00    +0.030 A 
ATOM      5  C   UNL     1       1.639  -0.381   1.481  0.00  0.00    +0.106 A 
ATOM      6  C   UNL     1       1.842   0.988   1.444  0.00  0.00    +0.045 A 
ATOM      7  C   UNL     1       0.768   1.829   1.278  0.00  0.00    +0.041 A 
ATOM      8  S   UNL     1       0.579   3.591   1.175  0.00  0.00    -0.052 S 
ATOM      9  C   UNL     1      -1.142   3.649   0.966  0.00  0.00    +0.167 A 
ATOM     10  N   UNL     1      -1.919   4.718   0.824  0.00  0.00    -0.152 NA
ENDROOT
BRANCH   5  11
ATOM     11  S   UNL     1       3.000  -1.479   1.695  0.00  0.00    +0.056 S 
ATOM     12  O   UNL     1       4.025  -0.735   2.339  0.00  0.00    -0.153 OA
ATOM     13  O   UNL     1       2.472  -2.679   2.241  0.00  0.00    -0.153 OA
BRANCH  11  14
ATOM     14  N   UNL     1       3.567  -1.855   0.185  0.00  0.00    -0.204 NA
ATOM     15  H   UNL     1       3.142  -1.476  -0.601  0.00  0.00    +0.144 HD
ATOM     16  H   UNL     1       4.323  -2.454   0.086  0.00  0.00    +0.144 HD
ENDBRANCH  11  14
ENDBRANCH   5  11
BRANCH  10  17
ATOM     17  C   UNL     1      -1.381   5.941   0.834  0.00  0.00    +0.270 C 
ATOM     18  O   UNL     1      -0.178   6.077   0.972  0.00  0.00    -0.268 OA
BRANCH  17  19
ATOM     19  C   UNL     1      -2.248   7.132   0.675  0.00  0.00    +0.042 A 
ATOM     20  C   UNL     1      -3.626   6.979   0.516  0.00  0.00    +0.013 A 
ATOM     21  C   UNL     1      -4.431   8.091   0.369  0.00  0.00    +0.004 A 
ATOM     22  C   UNL     1      -3.876   9.357   0.380  0.00  0.00    +0.046 A 
ATOM     23  C   UNL     1      -2.506   9.519   0.537  0.00  0.00    +0.129 A 
ATOM     24  C   UNL     1      -1.691   8.410   0.691  0.00  0.00    +0.059 A 
BRANCH  23  25
ATOM     25  O   UNL     1      -1.966  10.766   0.547  0.00  0.00    -0.456 OA
BRANCH  25  26
ATOM     26  C   UNL     1      -1.185  11.131  -0.503  0.00  0.00    +0.128 A 
ATOM     27  C   UNL     1      -1.022  10.271  -1.580  0.00  0.00    +0.046 A 
ATOM     28  C   UNL     1      -0.232  10.647  -2.649  0.00  0.00    +0.004 A 
ATOM     29  C   UNL     1       0.406  11.874  -2.641  0.00  0.00    +0.000 A 
ATOM     30  C   UNL     1       0.249  12.730  -1.567  0.00  0.00    +0.004 A 
ATOM     31  C   UNL     1      -0.544  12.362  -0.498  0.00  0.00    +0.046 A 
ENDBRANCH  25  26
ENDBRANCH  23  25
ENDBRANCH  17  19
ENDBRANCH  10  17
BRANCH   1  32
ATOM     32  C   UNL     1      -2.912   1.966   0.818  0.00  0.00    +0.152 C 
BRANCH  32  33
ATOM     33  C   UNL     1      -3.799   3.064   1.409  0.00  0.00    +0.181 C 
BRANCH  33  35
ATOM     34  C   UNL     1      -6.078   3.590   1.933  0.00  0.00    +0.194 C 
ATOM     35  O   UNL     1      -5.161   2.633   1.398  0.00  0.00    -0.381 OA
ENDBRANCH  33  35
ENDBRANCH  32  33
ENDBRANCH   1  32
TORSDOF 9
