REMARK  Name = ZINC37063958
REMARK  4 active torsions:
REMARK  status: ('A' for Active; 'I' for Inactive)
REMARK    1  A    between atoms: C_1  and  C_2
REMARK    2  A    between atoms: N_8  and  S_9
REMARK    3  A    between atoms: S_9  and  C_12
REMARK    4  A    between atoms: C_13  and  N_20
REMARK                            x       y       z     vdW  Elec       q    Type
REMARK                         _______ _______ _______ _____ _____    ______ ____
ROOT
ATOM      1  S   UNL     1       0.046  -1.346   4.410  0.00  0.00    +0.103 S 
ATOM      2  O   UNL     1       1.238  -0.645   4.736  0.00  0.00    -0.146 OA
ATOM      3  O   UNL     1      -1.244  -0.776   4.584  0.00  0.00    -0.146 OA
ENDROOT
BRANCH   1  11
ATOM      4  C   UNL     1      -0.013   2.909   1.680  0.00  0.00    +0.063 C 
ATOM      5  C   UNL     1       0.089   1.460   1.277  0.00  0.00    +0.015 A 
ATOM      6  C   UNL     1       0.186   1.136  -0.029  0.00  0.00    +0.021 A 
ATOM      7  C   UNL     1       0.281  -0.209  -0.423  0.00  0.00    +0.005 A 
ATOM      8  C   UNL     1       0.276  -1.188   0.519  0.00  0.00    +0.048 A 
ATOM      9  C   UNL     1       0.173  -0.833   1.885  0.00  0.00    +0.153 A 
ATOM     10  N   UNL     1       0.087   0.492   2.237  0.00  0.00    -0.343 N 
ATOM     11  N   UNL     1       0.166  -1.767   2.813  0.00  0.00    -0.111 NA
ATOM     12  H   UNL     1       0.021   0.740   3.172  0.00  0.00    +0.167 HD
ENDBRANCH   1  11
BRANCH   1  13
ATOM     13  C   UNL     1       0.067  -2.839   5.346  0.00  0.00    +0.147 A 
ATOM     14  C   UNL     1      -1.124  -3.488   5.646  0.00  0.00    +0.054 A 
ATOM     15  C   UNL     1      -1.103  -4.665   6.383  0.00  0.00    +0.040 A 
ATOM     16  C   UNL     1       0.101  -5.187   6.816  0.00  0.00    +0.021 A 
ATOM     17  C   UNL     1       1.286  -4.537   6.516  0.00  0.00    +0.032 A 
ATOM     18  C   UNL     1       1.268  -3.368   5.777  0.00  0.00    +0.048 A 
ATOM     19 BR   UNL     1       2.890  -2.488   5.363  0.00  0.00    -0.048 Br
ATOM     20 BR   UNL     1       0.131  -6.789   7.820  0.00  0.00    -0.050 Br
BRANCH  14  21
ATOM     21  N   UNL     1      -2.340  -2.959   5.207  0.00  0.00    -0.356 N 
ATOM     22  H   UNL     1      -2.360  -2.357   4.447  0.00  0.00    +0.142 HD
ATOM     23  H   UNL     1      -3.163  -3.193   5.663  0.00  0.00    +0.142 HD
ENDBRANCH  14  21
ENDBRANCH   1  13
TORSDOF 3
