REMARK  Name = ZINC08826164
REMARK  8 active torsions:
REMARK  status: ('A' for Active; 'I' for Inactive)
REMARK    1  A    between atoms: C_1  and  C_2
REMARK    2  A    between atoms: C_4  and  C_22
REMARK    3  A    between atoms: C_7  and  C_12
REMARK    4  A    between atoms: C_15  and  O_18
REMARK    5  A    between atoms: O_18  and  C_19
REMARK    6  A    between atoms: C_25  and  N_28
REMARK    7  A    between atoms: N_28  and  S_29
REMARK    8  A    between atoms: S_29  and  C_32
REMARK                            x       y       z     vdW  Elec       q    Type
REMARK                         _______ _______ _______ _____ _____    ______ ____
ROOT
ATOM      1  C   UNL     1       4.284  -0.716   5.331  0.00  0.00    +0.026 C 
ATOM      2  C   UNL     1       4.541  -1.556   4.078  0.00  0.00    +0.102 C 
ATOM      3  C   UNL     1       3.281  -2.270   3.697  0.00  0.00    +0.082 C 
ATOM      4  N   UNL     1       2.869  -3.385   4.191  0.00  0.00    -0.166 NA
ATOM      5  N   UNL     1       3.601  -4.102   5.133  0.00  0.00    -0.186 N 
ATOM      6  C   UNL     1       3.229  -5.076   6.015  0.00  0.00    +0.186 A 
ATOM      7  N   UNL     1       4.313  -5.427   6.678  0.00  0.00    -0.126 NA
ATOM      8  N   UNL     1       5.326  -4.739   6.270  0.00  0.00    -0.120 NA
ATOM      9  C   UNL     1       4.951  -3.918   5.337  0.00  0.00    +0.213 A 
ATOM     10  S   UNL     1       5.877  -2.735   4.415  0.00  0.00    -0.075 S 
ENDROOT
BRANCH   6  11
ATOM     11  C   UNL     1       1.870  -5.629   6.193  0.00  0.00    +0.021 A 
ATOM     12  C   UNL     1       0.766  -4.959   5.663  0.00  0.00    +0.015 A 
ATOM     13  C   UNL     1      -0.499  -5.482   5.826  0.00  0.00    +0.046 A 
ATOM     14  C   UNL     1      -0.677  -6.668   6.526  0.00  0.00    +0.127 A 
ATOM     15  C   UNL     1       0.418  -7.335   7.059  0.00  0.00    +0.046 A 
ATOM     16  C   UNL     1       1.687  -6.822   6.896  0.00  0.00    +0.015 A 
BRANCH  14  17
ATOM     17  O   UNL     1      -1.926  -7.177   6.689  0.00  0.00    -0.434 OA
BRANCH  17  18
ATOM     18  C   UNL     1      -3.007  -6.440   6.115  0.00  0.00    +0.541 C 
ATOM     19  F   UNL     1      -3.048  -5.159   6.676  0.00  0.00    -0.166 F 
ATOM     20  F   UNL     1      -2.821  -6.339   4.733  0.00  0.00    -0.166 F 
ENDBRANCH  17  18
ENDBRANCH  14  17
ENDBRANCH   6  11
BRANCH   3  21
ATOM     21  C   UNL     1       2.435  -1.637   2.670  0.00  0.00    -0.001 A 
ATOM     22  C   UNL     1       1.244  -2.250   2.268  0.00  0.00    +0.011 A 
ATOM     23  C   UNL     1       0.456  -1.655   1.307  0.00  0.00    +0.025 A 
ATOM     24  C   UNL     1       0.843  -0.446   0.738  0.00  0.00    +0.048 A 
ATOM     25  C   UNL     1       2.030   0.164   1.132  0.00  0.00    +0.025 A 
ATOM     26  C   UNL     1       2.820  -0.422   2.096  0.00  0.00    +0.011 A 
BRANCH  24  27
ATOM     27  N   UNL     1       0.043   0.153  -0.233  0.00  0.00    -0.221 N 
ATOM     28  H   UNL     1       0.306   0.121  -1.166  0.00  0.00    +0.173 HD
BRANCH  27  29
ATOM     29  S   UNL     1      -1.359   0.918   0.206  0.00  0.00    +0.040 S 
ATOM     30  O   UNL     1      -1.901   1.408  -1.013  0.00  0.00    -0.155 OA
ATOM     31  O   UNL     1      -2.067  -0.038   0.982  0.00  0.00    -0.155 OA
ATOM     32  C   UNL     1      -0.826   2.301   1.252  0.00  0.00    +0.218 C 
ENDBRANCH  27  29
ENDBRANCH  24  27
ENDBRANCH   3  21
TORSDOF 6
