REMARK  Name = ZINC63416405
REMARK  6 active torsions:
REMARK  status: ('A' for Active; 'I' for Inactive)
REMARK    1  A    between atoms: C_1  and  C_2
REMARK    2  A    between atoms: C_4  and  C_16
REMARK    3  A    between atoms: C_6  and  C_14
REMARK    4  A    between atoms: C_7  and  N_13
REMARK    5  A    between atoms: C_19  and  C_22
REMARK    6  A    between atoms: C_22  and  C_23
REMARK                            x       y       z     vdW  Elec       q    Type
REMARK                         _______ _______ _______ _____ _____    ______ ____
ROOT
ATOM      1  C   UNL     1      -0.018   1.503   0.010  0.00  0.00    +0.067 C 
ATOM      2  C   UNL     1       0.002  -0.004   0.002  0.00  0.00    +0.066 C 
ATOM      3  C   UNL     1      -1.064  -0.768   0.003  0.00  0.00    +0.030 C 
ATOM      4  C   UNL     1      -2.537  -0.492  -0.122  0.00  0.00    +0.098 C 
ATOM      5  C   UNL     1      -3.075  -1.565  -1.050  0.00  0.00    +0.097 C 
ATOM      6  C   UNL     1      -2.317  -2.612  -1.438  0.00  0.00    +0.195 C 
ATOM      7  O   UNL     1      -1.033  -2.841  -1.107  0.00  0.00    -0.448 OA
ATOM      8  C   UNL     1      -0.528  -2.199   0.066  0.00  0.00    +0.343 C 
ATOM      9  N   UNL     1       0.921  -1.985   0.002  0.00  0.00    -0.138 NA
ATOM     10  N   UNL     1       1.127  -0.765  -0.013  0.00  0.00    -0.155 NA
ENDROOT
BRANCH   4  11
ATOM     11  C   UNL     1      -3.201  -0.585   1.227  0.00  0.00    -0.035 A 
ATOM     12  C   UNL     1      -3.149  -1.766   1.943  0.00  0.00    +0.005 A 
ATOM     13  C   UNL     1      -3.758  -1.851   3.181  0.00  0.00    +0.004 A 
ATOM     14  C   UNL     1      -4.419  -0.755   3.703  0.00  0.00    -0.043 A 
ATOM     15  C   UNL     1      -4.470   0.426   2.988  0.00  0.00    +0.004 A 
ATOM     16  C   UNL     1      -3.857   0.513   1.752  0.00  0.00    +0.005 A 
BRANCH  14  17
ATOM     17  C   UNL     1      -5.084  -0.849   5.053  0.00  0.00    +0.071 C 
BRANCH  17  18
ATOM     18  C   UNL     1      -4.102  -0.451   6.125  0.00  0.00    -0.025 A 
ATOM     19  C   UNL     1      -3.366  -1.419   6.782  0.00  0.00    +0.005 A 
ATOM     20  C   UNL     1      -2.466  -1.055   7.765  0.00  0.00    +0.000 A 
ATOM     21  C   UNL     1      -2.301   0.278   8.092  0.00  0.00    +0.001 A 
ATOM     22  C   UNL     1      -3.036   1.247   7.436  0.00  0.00    +0.020 A 
ATOM     23  C   UNL     1      -3.933   0.883   6.448  0.00  0.00    +0.044 A 
ATOM     24 CL   UNL     1      -4.853   2.101   5.619  0.00  0.00    -0.083 Cl
ENDBRANCH  17  18
ENDBRANCH  14  17
ENDBRANCH   4  11
BRANCH   6  25
ATOM     25  N   UNL     1      -2.917  -3.538  -2.254  0.00  0.00    -0.329 N 
ATOM     26  H   UNL     1      -3.842  -3.421  -2.523  0.00  0.00    +0.145 HD
ATOM     27  H   UNL     1      -2.417  -4.310  -2.562  0.00  0.00    +0.145 HD
ENDBRANCH   6  25
BRANCH   5  28
ATOM     28  C   UNL     1      -4.422  -1.466  -1.525  0.00  0.00    +0.101 C 
ATOM     29  N   UNL     1      -5.491  -1.387  -1.903  0.00  0.00    -0.191 NA
ENDBRANCH   5  28
TORSDOF 5
