REMARK  Name = ZINC00570663
REMARK  6 active torsions:
REMARK  status: ('A' for Active; 'I' for Inactive)
REMARK    1  A    between atoms: C_1  and  C_2
REMARK    2  A    between atoms: C_4  and  C_15
REMARK    3  A    between atoms: C_10  and  O_13
REMARK    4  A    between atoms: O_13  and  C_14
REMARK    5  A    between atoms: C_16  and  C_17
REMARK    6  A    between atoms: C_16  and  C_19
REMARK                            x       y       z     vdW  Elec       q    Type
REMARK                         _______ _______ _______ _____ _____    ______ ____
ROOT
ATOM      1  C   UNL     1       3.083   1.040  -1.153  0.00  0.00    +0.057 C 
ATOM      2  C   UNL     1       2.421   1.308   0.201  0.00  0.00    +0.201 C 
ATOM      3  C   UNL     1       1.169   2.118  -0.009  0.00  0.00    -0.005 C 
ATOM      4  C   UNL     1      -0.017   1.480  -0.236  0.00  0.00    +0.019 C 
ATOM      5  C   UNL     1      -0.014   0.012  -0.245  0.00  0.00    +0.021 A 
ATOM      6  C   UNL     1      -1.077  -0.716  -0.787  0.00  0.00    +0.012 A 
ATOM      7  C   UNL     1      -1.034  -2.094  -0.774  0.00  0.00    +0.004 A 
ATOM      8  C   UNL     1       0.054  -2.757  -0.230  0.00  0.00    +0.049 A 
ATOM      9  C   UNL     1       1.116  -2.048   0.310  0.00  0.00    +0.162 A 
ATOM     10  C   UNL     1       1.090  -0.660   0.307  0.00  0.00    +0.170 A 
ATOM     11  O   UNL     1       2.111   0.064   0.829  0.00  0.00    -0.480 OA
ENDROOT
BRANCH   9  12
ATOM     12  O   UNL     1       2.179  -2.709   0.841  0.00  0.00    -0.491 OA
ATOM     13  C   UNL     1       2.136  -4.138   0.809  0.00  0.00    +0.277 C 
ENDBRANCH   9  12
BRANCH   3  14
ATOM     14  C   UNL     1       1.220   3.519   0.028  0.00  0.00    +0.037 C 
ATOM     15  C   UNL     1       0.405   4.220   0.903  0.00  0.00    +0.129 C 
BRANCH  15  16
ATOM     16  C   UNL     1      -0.397   3.513   1.856  0.00  0.00    +0.110 C 
ATOM     17  N   UNL     1      -1.034   2.952   2.611  0.00  0.00    -0.190 NA
ENDBRANCH  15  16
BRANCH  15  18
ATOM     18  C   UNL     1       0.366   5.650   0.856  0.00  0.00    +0.110 C 
ATOM     19  N   UNL     1       0.335   6.785   0.818  0.00  0.00    -0.190 NA
ENDBRANCH  15  18
ENDBRANCH   3  14
TORSDOF 4
