REMARK  Name = ZINC07620537
REMARK  10 active torsions:
REMARK  status: ('A' for Active; 'I' for Inactive)
REMARK    1  A    between atoms: C_4  and  C_7
REMARK    2  A    between atoms: C_7  and  C_8
REMARK    3  A    between atoms: C_8  and  C_9
REMARK    4  A    between atoms: C_9  and  N_10
REMARK    5  A    between atoms: C_11  and  C_13
REMARK    6  A    between atoms: C_13  and  O_14
REMARK    7  A    between atoms: O_14  and  C_15
REMARK    8  A    between atoms: C_15  and  C_17
REMARK    9  A    between atoms: C_17  and  C_18
REMARK   10  A    between atoms: C_18  and  N_19
REMARK                            x       y       z     vdW  Elec       q    Type
REMARK                         _______ _______ _______ _____ _____    ______ ____
ROOT
ATOM      1  O   UNL     1       6.230   0.535  -2.658  0.00  0.00    -0.455 OA
ENDROOT
BRANCH   1   2
ATOM      2  C   UNL     1       5.570   0.547  -1.489  0.00  0.00    +0.309 C 
ATOM      3  O   UNL     1       6.183   0.525  -0.448  0.00  0.00    -0.251 OA
BRANCH   2   4
ATOM      4  C   UNL     1       4.064   0.589  -1.475  0.00  0.00    +0.142 C 
BRANCH   4   5
ATOM      5  C   UNL     1       3.567   0.596  -0.028  0.00  0.00    +0.140 C 
BRANCH   5   6
ATOM      6  N   UNL     1       2.103   0.636  -0.015  0.00  0.00    -0.274 N 
ATOM      7  C   UNL     1       1.310   1.784  -0.001  0.00  0.00    +0.090 A 
ATOM      8  C   UNL     1       1.597   3.139   0.004  0.00  0.00    +0.030 A 
ATOM      9  C   UNL     1       0.568   4.060   0.018  0.00  0.00    +0.002 A 
ATOM     10  C   UNL     1      -0.749   3.632   0.029  0.00  0.00    +0.004 A 
ATOM     11  C   UNL     1      -1.043   2.283   0.029  0.00  0.00    +0.048 A 
ATOM     12  C   UNL     1      -0.016   1.351   0.009  0.00  0.00    +0.157 A 
ATOM     13  O   UNL     1       0.002  -0.004   0.002  0.00  0.00    -0.407 OA
ATOM     14  C   UNL     1       1.276  -0.428  -0.012  0.00  0.00    +0.421 A 
ATOM     15  O   UNL     1       1.629  -1.591  -0.021  0.00  0.00    -0.223 OA
ENDBRANCH   5   6
ENDBRANCH   4   5
ENDBRANCH   2   4
ENDBRANCH   1   2
BRANCH   1  16
ATOM     16  C   UNL     1       7.681   0.494  -2.595  0.00  0.00    +0.327 C 
BRANCH  16  18
ATOM     17  N   UNL     1       9.578   0.450  -4.182  0.00  0.00    -0.313 N 
ATOM     18  C   UNL     1       8.244   0.486  -3.993  0.00  0.00    +0.251 C 
ATOM     19  O   UNL     1       7.497   0.512  -4.948  0.00  0.00    -0.272 OA
ATOM     20  H   UNL     1      10.175   0.429  -3.418  0.00  0.00    +0.149 HD
BRANCH  17  21
ATOM     21  C   UNL     1      10.125   0.441  -5.540  0.00  0.00    +0.104 C 
BRANCH  21  22
ATOM     22  C   UNL     1      11.653   0.398  -5.474  0.00  0.00    +0.023 C 
BRANCH  22  23
ATOM     23  C   UNL     1      12.225   0.390  -6.894  0.00  0.00    +0.036 C 
BRANCH  23  27
ATOM     24  C   UNL     1      16.491   0.270  -6.710  0.00  0.00    +0.000 A 
ATOM     25  C   UNL     1      15.767  -0.907  -6.746  0.00  0.00    +0.000 A 
ATOM     26  C   UNL     1      14.387  -0.869  -6.805  0.00  0.00    +0.003 A 
ATOM     27  C   UNL     1      13.730   0.347  -6.829  0.00  0.00    -0.047 A 
ATOM     28  C   UNL     1      14.454   1.525  -6.798  0.00  0.00    +0.003 A 
ATOM     29  C   UNL     1      15.834   1.486  -6.734  0.00  0.00    +0.000 A 
ENDBRANCH  23  27
ENDBRANCH  22  23
ENDBRANCH  21  22
ENDBRANCH  17  21
ENDBRANCH  16  18
ENDBRANCH   1  16
TORSDOF 10
