REMARK  Name = ZINC65403961
REMARK  7 active torsions:
REMARK  status: ('A' for Active; 'I' for Inactive)
REMARK    1  A    between atoms: C_1  and  C_2
REMARK    2  A    between atoms: C_2  and  C_3
REMARK    3  A    between atoms: C_2  and  C_4
REMARK    4  A    between atoms: C_2  and  O_29
REMARK    5  A    between atoms: C_5  and  C_6
REMARK    6  A    between atoms: C_9  and  C_11
REMARK    7  A    between atoms: C_19  and  C_23
REMARK                            x       y       z     vdW  Elec       q    Type
REMARK                         _______ _______ _______ _____ _____    ______ ____
ROOT
ATOM      1  C   UNL     1      -7.301  -3.751   0.058  0.00  0.00    +0.070 C 
ATOM      2  C   UNL     1      -7.210  -4.645   1.298  0.00  0.00    +0.109 C 
ATOM      3  C   UNL     1      -6.130  -5.678   1.157  0.00  0.00    +0.219 C 
ATOM      4  O   UNL     1      -5.446  -5.942   2.123  0.00  0.00    -0.275 OA
ATOM      5  N   UNL     1      -5.891  -6.325  -0.003  0.00  0.00    -0.269 N 
ATOM      6  C   UNL     1      -6.541  -5.864  -1.159  0.00  0.00    +0.151 A 
ATOM      7  C   UNL     1      -7.231  -4.631  -1.165  0.00  0.00    +0.028 A 
ATOM      8  C   UNL     1      -7.755  -4.450  -2.399  0.00  0.00    +0.071 A 
ATOM      9  N   UNL     1      -7.398  -5.532  -3.154  0.00  0.00    -0.275 N 
ATOM     10  H   UNL     1      -7.631  -5.681  -4.084  0.00  0.00    +0.189 HD
ATOM     11  N   UNL     1      -6.630  -6.389  -2.345  0.00  0.00    -0.158 NA
ATOM     12  H   UNL     1      -5.288  -7.084  -0.037  0.00  0.00    +0.156 HD
ENDROOT
BRANCH   8  13
ATOM     13  C   UNL     1      -8.566  -3.296  -2.847  0.00  0.00    +0.000 A 
ATOM     14  C   UNL     1      -9.589  -2.802  -2.038  0.00  0.00    +0.010 A 
ATOM     15  C   UNL     1     -10.341  -1.725  -2.462  0.00  0.00    +0.001 A 
ATOM     16  C   UNL     1     -10.081  -1.135  -3.686  0.00  0.00    +0.000 A 
ATOM     17  C   UNL     1      -9.067  -1.620  -4.493  0.00  0.00    +0.001 A 
ATOM     18  C   UNL     1      -8.305  -2.693  -4.078  0.00  0.00    +0.010 A 
ENDBRANCH   8  13
BRANCH   1  22
ATOM     19  C   UNL     1      -3.824  -1.416   0.031  0.00  0.00    +0.062 A 
ATOM     20  C   UNL     1      -5.003  -0.716   0.040  0.00  0.00    +0.025 A 
ATOM     21  C   UNL     1      -6.188  -1.417   0.049  0.00  0.00    +0.013 A 
ATOM     22  C   UNL     1      -6.154  -2.775   0.049  0.00  0.00    -0.001 A 
ATOM     23  S   UNL     1      -4.399  -3.106   0.027  0.00  0.00    -0.084 S 
BRANCH  19  25
ATOM     24  C   UNL     1      -1.379  -0.514   0.013  0.00  0.00    -0.062 C 
ATOM     25  C   UNL     1      -2.480  -0.920   0.021  0.00  0.00    -0.056 C 
BRANCH  24  27
ATOM     26  C   UNL     1      -0.019   1.526   0.010  0.00  0.00    +0.055 C 
ATOM     27  C   UNL     1       0.002  -0.004   0.002  0.00  0.00    +0.121 C 
ATOM     28  C   UNL     1       0.742  -0.511   1.242  0.00  0.00    +0.055 C 
BRANCH  27  29
ATOM     29  O   UNL     1       0.671  -0.465  -1.174  0.00  0.00    -0.377 OA
ATOM     30  H   UNL     1       0.256  -0.181  -1.999  0.00  0.00    +0.211 HD
ENDBRANCH  27  29
ENDBRANCH  24  27
ENDBRANCH  19  25
ENDBRANCH   1  22
TORSDOF 5
