REMARK  Name = ZINC10244098
REMARK  8 active torsions:
REMARK  status: ('A' for Active; 'I' for Inactive)
REMARK    1  A    between atoms: C_1  and  C_2
REMARK    2  A    between atoms: C_7  and  C_10
REMARK    3  A    between atoms: C_11  and  C_13
REMARK    4  A    between atoms: C_13  and  S_14
REMARK    5  A    between atoms: S_14  and  C_15
REMARK    6  A    between atoms: N_29  and  C_30
REMARK    7  A    between atoms: C_35  and  O_36
REMARK    8  A    between atoms: O_36  and  C_37
REMARK                            x       y       z     vdW  Elec       q    Type
REMARK                         _______ _______ _______ _____ _____    ______ ____
ROOT
ATOM      1  C   UNL     1       1.149  -4.415  -0.032  0.00  0.00    +0.177 A 
ATOM      2  N   UNL     1       1.694  -3.219  -0.031  0.00  0.00    -0.221 NA
ATOM      3  C   UNL     1       0.934  -2.112  -0.018  0.00  0.00    +0.104 A 
ATOM      4  C   UNL     1       1.238  -0.673  -0.013  0.00  0.00    +0.026 A 
ATOM      5  C   UNL     1       2.426   0.058  -0.021  0.00  0.00    +0.012 A 
ATOM      6  C   UNL     1       2.385   1.424  -0.013  0.00  0.00    +0.001 A 
ATOM      7  C   UNL     1       1.168   2.091   0.002  0.00  0.00    +0.002 A 
ATOM      8  C   UNL     1      -0.017   1.389   0.010  0.00  0.00    +0.026 A 
ATOM      9  C   UNL     1       0.002  -0.004   0.002  0.00  0.00    +0.049 A 
ATOM     10  N   UNL     1      -1.002  -0.949   0.006  0.00  0.00    -0.349 N 
ATOM     11  H   UNL     1      -1.951  -0.751   0.016  0.00  0.00    +0.166 HD
ATOM     12  C   UNL     1      -0.455  -2.223  -0.005  0.00  0.00    +0.132 A 
ATOM     13  C   UNL     1      -1.027  -3.512  -0.007  0.00  0.00    +0.283 A 
ATOM     14  O   UNL     1      -2.239  -3.656   0.004  0.00  0.00    -0.265 OA
ATOM     15  N   UNL     1      -0.206  -4.584  -0.020  0.00  0.00    -0.251 N 
ENDROOT
BRANCH  15  16
ATOM     16  C   UNL     1      -0.748  -5.877  -0.021  0.00  0.00    +0.093 A 
ATOM     17  C   UNL     1      -1.034  -6.511  -1.221  0.00  0.00    +0.030 A 
ATOM     18  C   UNL     1      -1.563  -7.787  -1.220  0.00  0.00    +0.002 A 
ATOM     19  C   UNL     1      -1.819  -8.432  -0.023  0.00  0.00    +0.004 A 
ATOM     20  C   UNL     1      -1.542  -7.805   1.177  0.00  0.00    +0.048 A 
ATOM     21  C   UNL     1      -1.006  -6.527   1.184  0.00  0.00    +0.144 A 
BRANCH  21  22
ATOM     22  O   UNL     1      -0.733  -5.909   2.364  0.00  0.00    -0.493 OA
ATOM     23  C   UNL     1      -1.023  -6.636   3.559  0.00  0.00    +0.277 C 
ENDBRANCH  21  22
ENDBRANCH  15  16
BRANCH   1  24
ATOM     24  S   UNL     1       2.192  -5.835  -0.050  0.00  0.00    -0.078 S 
BRANCH  24  25
ATOM     25  C   UNL     1       3.815  -5.032  -0.061  0.00  0.00    +0.173 C 
BRANCH  25  34
ATOM     26  C   UNL     1       7.593  -6.594   2.373  0.00  0.00    +0.039 C 
ATOM     27  C   UNL     1       8.260  -6.388   1.012  0.00  0.00    +0.133 C 
ATOM     28  C   UNL     1       7.264  -6.725  -0.103  0.00  0.00    +0.139 C 
ATOM     29  N   UNL     1       6.192  -5.717  -0.087  0.00  0.00    -0.296 N 
ATOM     30  C   UNL     1       6.577  -4.297  -0.089  0.00  0.00    +0.139 C 
ATOM     31  C   UNL     1       7.608  -4.078   1.030  0.00  0.00    +0.133 C 
ATOM     32  O   UNL     1       8.669  -5.024   0.882  0.00  0.00    -0.371 OA
ATOM     33  C   UNL     1       8.171  -2.659   0.936  0.00  0.00    +0.039 C 
ATOM     34  C   UNL     1       4.895  -6.083  -0.077  0.00  0.00    +0.226 C 
ATOM     35  O   UNL     1       4.597  -7.259  -0.080  0.00  0.00    -0.275 OA
ENDBRANCH  25  34
ENDBRANCH  24  25
ENDBRANCH   1  24
TORSDOF 5
