REMARK  Name = ZINC08969843
REMARK  10 active torsions:
REMARK  status: ('A' for Active; 'I' for Inactive)
REMARK    1  A    between atoms: C_1  and  C_2
REMARK    2  A    between atoms: C_5  and  N_8
REMARK    3  A    between atoms: C_9  and  C_11
REMARK    4  A    between atoms: C_11  and  S_12
REMARK    5  A    between atoms: S_12  and  C_13
REMARK    6  A    between atoms: C_14  and  C_33
REMARK    7  A    between atoms: C_15  and  C_26
REMARK    8  A    between atoms: C_17  and  C_22
REMARK    9  A    between atoms: C_22  and  O_24
REMARK   10  A    between atoms: O_24  and  C_25
REMARK                            x       y       z     vdW  Elec       q    Type
REMARK                         _______ _______ _______ _____ _____    ______ ____
ROOT
ATOM      1  C   UNL     1       0.593  -8.709   2.636  0.00  0.00    +0.115 C 
ATOM      2  C   UNL     1       0.713  -9.509   3.753  0.00  0.00    +0.070 C 
ATOM      3  C   UNL     1       0.833 -11.004   3.586  0.00  0.00    +0.085 C 
ATOM      4  C   UNL     1       0.025 -11.433   2.359  0.00  0.00    +0.200 C 
ATOM      5  C   UNL     1       0.333 -10.515   1.207  0.00  0.00    +0.262 C 
ATOM      6  O   UNL     1       0.344 -11.009  -0.045  0.00  0.00    -0.270 OA
ATOM      7  N   UNL     1       0.582  -9.255   1.397  0.00  0.00    -0.205 NA
ENDROOT
BRANCH   3   8
ATOM      8  C   UNL     1       2.281 -11.375   3.394  0.00  0.00    -0.038 A 
ATOM      9  C   UNL     1       2.992 -10.858   2.327  0.00  0.00    +0.006 A 
ATOM     10  C   UNL     1       4.319 -11.198   2.151  0.00  0.00    +0.020 A 
ATOM     11  C   UNL     1       4.938 -12.056   3.043  0.00  0.00    +0.041 A 
ATOM     12  C   UNL     1       4.226 -12.573   4.111  0.00  0.00    +0.020 A 
ATOM     13  C   UNL     1       2.900 -12.228   4.289  0.00  0.00    +0.006 A 
ATOM     14 CL   UNL     1       6.606 -12.484   2.821  0.00  0.00    -0.084 Cl
ENDBRANCH   3   8
BRANCH   4  15
ATOM     15  C   UNL     1      -1.446 -11.362   2.678  0.00  0.00    +0.320 C 
ATOM     16  O   UNL     1      -1.811 -11.005   3.773  0.00  0.00    -0.250 OA
BRANCH  15  17
ATOM     17  O   UNL     1      -2.352 -11.696   1.744  0.00  0.00    -0.467 OA
ATOM     18  C   UNL     1      -3.729 -11.606   2.115  0.00  0.00    +0.280 C 
ENDBRANCH  15  17
ENDBRANCH   4  15
BRANCH   2  19
ATOM     19  C   UNL     1       0.724  -8.926   5.061  0.00  0.00    +0.098 C 
ATOM     20  N   UNL     1       0.732  -8.463   6.099  0.00  0.00    -0.191 NA
ENDBRANCH   2  19
BRANCH   1  21
ATOM     21  S   UNL     1       0.446  -6.963   2.823  0.00  0.00    -0.095 S 
BRANCH  21  22
ATOM     22  C   UNL     1       0.309  -6.349   1.121  0.00  0.00    +0.172 C 
BRANCH  22  24
ATOM     23  N   UNL     1       0.059  -4.170  -0.021  0.00  0.00    -0.285 N 
ATOM     24  C   UNL     1       0.175  -4.848   1.138  0.00  0.00    +0.227 C 
ATOM     25  O   UNL     1       0.173  -4.251   2.193  0.00  0.00    -0.275 OA
ATOM     26  H   UNL     1      -0.017  -4.651  -0.860  0.00  0.00    +0.155 HD
BRANCH  23  31
ATOM     27  C   UNL     1       0.008   1.503   0.007  0.00  0.00    +0.044 C 
ATOM     28  C   UNL     1       0.022  -0.004  -0.001  0.00  0.00    -0.050 A 
ATOM     29  C   UNL     1       0.777  -0.692   0.931  0.00  0.00    +0.005 A 
ATOM     30  C   UNL     1       0.791  -2.073   0.927  0.00  0.00    +0.023 A 
ATOM     31  C   UNL     1       0.046  -2.771  -0.014  0.00  0.00    +0.033 A 
ATOM     32  C   UNL     1      -0.712  -2.077  -0.948  0.00  0.00    +0.023 A 
ATOM     33  C   UNL     1      -0.726  -0.696  -0.936  0.00  0.00    +0.005 A 
ENDBRANCH  23  31
ENDBRANCH  22  24
ENDBRANCH  21  22
ENDBRANCH   1  21
TORSDOF 8
