REMARK  Name = ZINC57316594
REMARK  8 active torsions:
REMARK  status: ('A' for Active; 'I' for Inactive)
REMARK    1  A    between atoms: C_1  and  C_2
REMARK    2  A    between atoms: C_2  and  C_3
REMARK    3  A    between atoms: C_9  and  C_11
REMARK    4  A    between atoms: C_15  and  N_17
REMARK    5  A    between atoms: N_17  and  C_18
REMARK    6  A    between atoms: C_18  and  N_20
REMARK    7  A    between atoms: C_21  and  C_23
REMARK    8  A    between atoms: C_23  and  C_24
REMARK                            x       y       z     vdW  Elec       q    Type
REMARK                         _______ _______ _______ _____ _____    ______ ____
ROOT
ATOM      1  N   UNL     1       9.208  -1.848  -1.264  0.00  0.00    -0.297 N 
ATOM      2  H   UNL     1       9.116  -2.186  -2.168  0.00  0.00    +0.154 HD
ENDROOT
BRANCH   1   7
ATOM      3  C   UNL     1       6.981   0.104   0.930  0.00  0.00    +0.011 A 
ATOM      4  C   UNL     1       5.817  -0.662   0.863  0.00  0.00    +0.011 A 
ATOM      5  C   UNL     1       5.788  -1.809   0.096  0.00  0.00    +0.002 A 
ATOM      6  C   UNL     1       6.910  -2.202  -0.609  0.00  0.00    +0.023 A 
ATOM      7  C   UNL     1       8.074  -1.446  -0.549  0.00  0.00    +0.033 A 
ATOM      8  C   UNL     1       8.111  -0.289   0.215  0.00  0.00    +0.034 A 
BRANCH   3  15
ATOM      9  C   UNL     1       5.595   3.885   4.045  0.00  0.00    +0.155 A 
ATOM     10  N   UNL     1       6.406   4.847   4.383  0.00  0.00    -0.132 NA
ATOM     11  N   UNL     1       7.550   4.681   3.815  0.00  0.00    -0.120 NA
ATOM     12  C   UNL     1       7.518   3.604   3.089  0.00  0.00    +0.218 A 
ATOM     13  N   UNL     1       6.273   3.032   3.198  0.00  0.00    -0.190 N 
ATOM     14  N   UNL     1       6.065   1.859   2.484  0.00  0.00    -0.156 NA
ATOM     15  C   UNL     1       7.014   1.335   1.752  0.00  0.00    +0.132 A 
ATOM     16  S   UNL     1       8.356   2.488   1.992  0.00  0.00    -0.026 S 
BRANCH   9  18
ATOM     17  C   UNL     1       4.134   2.905   5.793  0.00  0.00    +0.012 C 
ATOM     18  C   UNL     1       4.168   3.728   4.503  0.00  0.00    +0.075 C 
ENDBRANCH   9  18
ENDBRANCH   3  15
ENDBRANCH   1   7
BRANCH   1  19
ATOM     19  C   UNL     1      10.427  -1.765  -0.695  0.00  0.00    +0.141 C 
ATOM     20  S   UNL     1      10.577  -1.303   0.946  0.00  0.00    -0.018 S 
BRANCH  19  21
ATOM     21  N   UNL     1      11.528  -2.046  -1.420  0.00  0.00    -0.268 N 
ATOM     22  C   UNL     1      12.748  -1.963  -0.852  0.00  0.00    +0.219 C 
ATOM     23  O   UNL     1      12.854  -1.636   0.311  0.00  0.00    -0.275 OA
ATOM     24  H   UNL     1      11.444  -2.308  -2.350  0.00  0.00    +0.156 HD
BRANCH  22  25
ATOM     25  C   UNL     1      13.979  -2.278  -1.661  0.00  0.00    +0.103 C 
BRANCH  25  26
ATOM     26  C   UNL     1      15.223  -2.108  -0.786  0.00  0.00    -0.020 C 
ATOM     27  C   UNL     1      15.298  -0.665  -0.281  0.00  0.00    +0.011 C 
ATOM     28  C   UNL     1      16.541  -0.496   0.594  0.00  0.00    -0.010 C 
ATOM     29  C   UNL     1      17.791  -0.815  -0.228  0.00  0.00    +0.007 C 
ATOM     30  C   UNL     1      17.716  -2.257  -0.732  0.00  0.00    -0.010 C 
ATOM     31  C   UNL     1      16.473  -2.427  -1.608  0.00  0.00    +0.011 C 
ATOM     32  C   UNL     1      17.633  -3.211   0.461  0.00  0.00    +0.007 C 
ATOM     33  C   UNL     1      16.383  -2.892   1.283  0.00  0.00    -0.010 C 
ATOM     34  C   UNL     1      16.459  -1.450   1.788  0.00  0.00    +0.007 C 
ATOM     35  C   UNL     1      15.140  -3.062   0.408  0.00  0.00    +0.011 C 
ENDBRANCH  25  26
ENDBRANCH  22  25
ENDBRANCH  19  21
ENDBRANCH   1  19
TORSDOF 7
