REMARK  Name = ZINC54752509
REMARK  4 active torsions:
REMARK  status: ('A' for Active; 'I' for Inactive)
REMARK    1  A    between atoms: C_1  and  C_2
REMARK    2  A    between atoms: C_2  and  C_3
REMARK    3  A    between atoms: C_16  and  C_18
REMARK    4  A    between atoms: N_21  and  C_23
REMARK                            x       y       z     vdW  Elec       q    Type
REMARK                         _______ _______ _______ _____ _____    ______ ____
ROOT
ATOM      1  C   UNL     1      -1.433  -0.534   0.013  0.00  0.00    -0.006 C 
ATOM      2  C   UNL     1      -1.419  -2.060  -0.113  0.00  0.00    +0.008 C 
ATOM      3  C   UNL     1      -2.838  -2.574  -0.352  0.00  0.00    +0.037 C 
ATOM      4  C   UNL     1      -3.756  -2.016   0.732  0.00  0.00    -0.023 A 
ATOM      5  C   UNL     1      -3.385  -0.936   1.458  0.00  0.00    -0.004 A 
ATOM      6  S   UNL     1      -4.730  -0.644   2.579  0.00  0.00    -0.073 S 
ATOM      7  C   UNL     1      -5.784  -1.967   2.075  0.00  0.00    +0.116 A 
ATOM      8  C   UNL     1      -5.050  -2.597   1.044  0.00  0.00    +0.075 A 
ATOM      9  C   UNL     1      -5.652  -3.737   0.414  0.00  0.00    +0.260 A 
ATOM     10  O   UNL     1      -5.098  -4.347  -0.484  0.00  0.00    -0.267 OA
ATOM     11  N   UNL     1      -6.872  -4.093   0.879  0.00  0.00    -0.306 N 
ATOM     12  H   UNL     1      -7.314  -4.859   0.480  0.00  0.00    +0.170 HD
ATOM     13  C   UNL     1      -7.508  -3.423   1.883  0.00  0.00    +0.145 A 
ATOM     14  N   UNL     1      -6.980  -2.367   2.486  0.00  0.00    -0.222 NA
ATOM     15  C   UNL     1      -2.113  -0.153   1.336  0.00  0.00    +0.046 C 
ENDROOT
BRANCH  13  16
ATOM     16  C   UNL     1      -8.838  -3.893   2.316  0.00  0.00    +0.055 A 
ATOM     17  C   UNL     1      -9.546  -4.999   1.795  0.00  0.00    +0.145 A 
ATOM     18  N   UNL     1     -10.680  -5.091   2.435  0.00  0.00    -0.179 NA
ATOM     19  N   UNL     1     -10.749  -4.064   3.383  0.00  0.00    -0.274 N 
ATOM     20  C   UNL     1      -9.618  -3.339   3.309  0.00  0.00    +0.119 A 
ATOM     21  C   UNL     1     -11.863  -3.822   4.304  0.00  0.00    +0.172 C 
ENDBRANCH  13  16
BRANCH   1  23
ATOM     22  C   UNL     1      -0.019   1.526   0.010  0.00  0.00    +0.004 C 
ATOM     23  C   UNL     1       0.002  -0.004   0.002  0.00  0.00    +0.000 C 
ENDBRANCH   1  23
TORSDOF 2
