REMARK  Name = ZINC48415783
REMARK  6 active torsions:
REMARK  status: ('A' for Active; 'I' for Inactive)
REMARK    1  A    between atoms: C_4  and  C_7
REMARK    2  A    between atoms: C_8  and  C_9
REMARK    3  A    between atoms: C_9  and  N_10
REMARK    4  A    between atoms: N_13  and  C_14
REMARK    5  A    between atoms: C_14  and  C_15
REMARK    6  A    between atoms: C_15  and  N_20
REMARK                            x       y       z     vdW  Elec       q    Type
REMARK                         _______ _______ _______ _____ _____    ______ ____
ROOT
ATOM      1  N   UNL     1       6.061  -3.307  -0.350  0.00  0.00    -0.289 N 
ATOM      2  C   UNL     1       7.033  -4.239  -0.304  0.00  0.00    +0.300 C 
ATOM      3  O   UNL     1       8.201  -3.901  -0.324  0.00  0.00    -0.253 OA
ATOM      4  N   UNL     1       6.711  -5.546  -0.235  0.00  0.00    -0.301 N 
ATOM      5  H   UNL     1       5.129  -3.577  -0.334  0.00  0.00    +0.151 HD
ATOM      6  H   UNL     1       5.780  -5.816  -0.219  0.00  0.00    +0.150 HD
ENDROOT
BRANCH   1   7
ATOM      7  C   UNL     1       6.410  -1.887  -0.425  0.00  0.00    +0.195 C 
BRANCH   7   9
ATOM      8  C   UNL     1       4.198  -0.436  -0.495  0.00  0.00    -0.065 C 
ATOM      9  C   UNL     1       5.180  -1.080  -0.464  0.00  0.00    -0.078 C 
BRANCH   8  13
ATOM     10  C   UNL     1       0.686   1.867  -0.609  0.00  0.00    +0.000 A 
ATOM     11  C   UNL     1       1.921   2.491  -0.643  0.00  0.00    +0.001 A 
ATOM     12  C   UNL     1       3.078   1.740  -0.606  0.00  0.00    +0.017 A 
ATOM     13  C   UNL     1       3.001   0.349  -0.534  0.00  0.00    +0.025 A 
ATOM     14  C   UNL     1       1.753  -0.274  -0.499  0.00  0.00    +0.017 A 
ATOM     15  C   UNL     1       0.604   0.488  -0.537  0.00  0.00    +0.001 A 
ENDBRANCH   8  13
ENDBRANCH   7   9
ENDBRANCH   1   7
BRANCH   4  16
ATOM     16  C   UNL     1       7.768  -6.559  -0.184  0.00  0.00    +0.094 C 
BRANCH  16  17
ATOM     17  C   UNL     1       7.138  -7.951  -0.111  0.00  0.00    -0.050 C 
ATOM     18  C   UNL     1       8.239  -9.031  -0.124  0.00  0.00    -0.010 C 
ATOM     19  C   UNL     1       8.473  -9.354   1.372  0.00  0.00    -0.001 C 
ATOM     20  C   UNL     1       7.042  -9.290   1.963  0.00  0.00    -0.001 C 
ATOM     21  C   UNL     1       6.377  -8.116   1.217  0.00  0.00    -0.010 C 
BRANCH  17  22
ATOM     22  N   UNL     1       6.223  -8.149  -1.243  0.00  0.00    +0.386 N 
ATOM     23  C   UNL     1       5.608  -9.474  -1.137  0.00  0.00    -0.067 C 
ATOM     24  C   UNL     1       4.395  -9.561  -2.070  0.00  0.00    +0.050 C 
ATOM     25  S   UNL     1       4.975  -9.343  -3.781  0.00  0.00    -0.164 S 
ATOM     26  C   UNL     1       5.998  -7.841  -3.667  0.00  0.00    +0.050 C 
ATOM     27  C   UNL     1       6.971  -8.011  -2.494  0.00  0.00    -0.067 C 
ATOM     28  H   UNL     1       5.500  -7.446  -1.211  0.00  0.00    -0.081 HD
ENDBRANCH  17  22
ENDBRANCH  16  17
ENDBRANCH   4  16
TORSDOF 6
