REMARK  Name = ZINC39352314
REMARK  5 active torsions:
REMARK  status: ('A' for Active; 'I' for Inactive)
REMARK    1  A    between atoms: C_1  and  C_2
REMARK    2  A    between atoms: C_2  and  C_3
REMARK    3  A    between atoms: C_5  and  C_17
REMARK    4  A    between atoms: C_7  and  C_15
REMARK    5  A    between atoms: C_8  and  N_14
REMARK                            x       y       z     vdW  Elec       q    Type
REMARK                         _______ _______ _______ _____ _____    ______ ____
ROOT
ATOM      1  C   UNL     1      -1.412  -0.526   0.013  0.00  0.00    +0.069 C 
ATOM      2  C   UNL     1      -2.091  -0.872  -1.054  0.00  0.00    +0.030 C 
ATOM      3  C   UNL     1      -1.827  -0.764  -2.531  0.00  0.00    +0.098 C 
ATOM      4  C   UNL     1      -3.139  -0.315  -3.147  0.00  0.00    +0.097 C 
ATOM      5  C   UNL     1      -4.280  -0.267  -2.428  0.00  0.00    +0.195 C 
ATOM      6  O   UNL     1      -4.421  -0.564  -1.124  0.00  0.00    -0.448 OA
ATOM      7  C   UNL     1      -3.425  -1.397  -0.524  0.00  0.00    +0.343 C 
ATOM      8  N   UNL     1      -3.297  -1.157   0.917  0.00  0.00    -0.138 NA
ATOM      9  N   UNL     1      -2.163  -0.710   1.129  0.00  0.00    -0.155 NA
ENDROOT
BRANCH   3  10
ATOM     10  C   UNL     1      -1.418  -2.104  -3.087  0.00  0.00    -0.033 A 
ATOM     11  C   UNL     1      -2.280  -3.181  -2.996  0.00  0.00    +0.006 A 
ATOM     12  C   UNL     1      -1.906  -4.411  -3.505  0.00  0.00    +0.022 A 
ATOM     13  C   UNL     1      -0.670  -4.563  -4.106  0.00  0.00    +0.059 A 
ATOM     14  C   UNL     1       0.192  -3.484  -4.198  0.00  0.00    +0.060 A 
ATOM     15  C   UNL     1      -0.185  -2.253  -3.693  0.00  0.00    +0.026 A 
ATOM     16 CL   UNL     1       1.744  -3.674  -4.953  0.00  0.00    -0.082 Cl
ATOM     17 CL   UNL     1      -0.200  -6.108  -4.745  0.00  0.00    -0.082 Cl
ENDBRANCH   3  10
BRANCH   5  18
ATOM     18  N   UNL     1      -5.413   0.125  -3.097  0.00  0.00    -0.329 N 
ATOM     19  H   UNL     1      -5.366   0.351  -4.039  0.00  0.00    +0.145 HD
ATOM     20  H   UNL     1      -6.260   0.176  -2.627  0.00  0.00    +0.145 HD
ENDBRANCH   5  18
BRANCH   1  22
ATOM     21  C   UNL     1      -0.019   1.526   0.010  0.00  0.00    +0.010 C 
ATOM     22  C   UNL     1       0.002  -0.004   0.002  0.00  0.00    +0.054 C 
ENDBRANCH   1  22
BRANCH   4  23
ATOM     23  C   UNL     1      -3.167   0.068  -4.527  0.00  0.00    +0.101 C 
ATOM     24  N   UNL     1      -3.190   0.371  -5.621  0.00  0.00    -0.191 NA
ENDBRANCH   4  23
TORSDOF 4
