REMARK  Name = ZINC49210792
REMARK  8 active torsions:
REMARK  status: ('A' for Active; 'I' for Inactive)
REMARK    1  A    between atoms: C_1  and  C_2
REMARK    2  A    between atoms: C_5  and  C_7
REMARK    3  A    between atoms: C_7  and  N_8
REMARK    4  A    between atoms: N_8  and  C_9
REMARK    5  A    between atoms: C_9  and  C_10
REMARK    6  A    between atoms: C_9  and  C_11
REMARK    7  A    between atoms: C_12  and  N_14
REMARK    8  A    between atoms: C_19  and  C_21
REMARK                            x       y       z     vdW  Elec       q    Type
REMARK                         _______ _______ _______ _____ _____    ______ ____
ROOT
ATOM      1  N   UNL     1       1.983  -3.620  -1.407  0.00  0.00    -0.274 N 
ATOM      2  C   UNL     1       1.209  -4.521  -2.043  0.00  0.00    +0.329 C 
ATOM      3  O   UNL     1       0.261  -5.025  -1.467  0.00  0.00    -0.250 OA
ENDROOT
BRANCH   2   4
ATOM      4  N   UNL     1       1.482  -4.863  -3.306  0.00  0.00    -0.139 NA
ATOM      5  C   UNL     1       0.717  -5.753  -3.934  0.00  0.00    +0.165 A 
ATOM      6  N   UNL     1       0.840  -6.226  -5.205  0.00  0.00    -0.342 N 
ATOM      7  H   UNL     1       1.556  -5.915  -5.781  0.00  0.00    +0.167 HD
ATOM      8  C   UNL     1      -0.061  -7.144  -5.652  0.00  0.00    +0.095 A 
ATOM      9  C   UNL     1      -1.020  -7.527  -4.803  0.00  0.00    +0.006 A 
ATOM     10  S   UNL     1      -0.629  -6.573  -3.348  0.00  0.00    -0.058 S 
ATOM     11  C   UNL     1      -2.139  -8.513  -5.018  0.00  0.00    +0.053 C 
ENDBRANCH   2   4
BRANCH   1  12
ATOM     12  C   UNL     1       3.123  -3.014  -2.100  0.00  0.00    +0.072 C 
ATOM     13  C   UNL     1       4.103  -4.110  -2.523  0.00  0.00    +0.028 C 
ATOM     14  C   UNL     1       2.628  -2.267  -3.340  0.00  0.00    +0.028 C 
ENDBRANCH   1  12
BRANCH   1  15
ATOM     15  C   UNL     1       1.684  -3.245  -0.023  0.00  0.00    +0.183 C 
BRANCH  15  20
ATOM     16  C   UNL     1      -0.018   1.503   0.010  0.00  0.00    +0.086 C 
ATOM     17  C   UNL     1       0.002  -0.004   0.002  0.00  0.00    +0.102 A 
ATOM     18  C   UNL     1      -1.078  -0.805   0.003  0.00  0.00    +0.045 A 
ATOM     19  C   UNL     1      -0.601  -2.136  -0.007  0.00  0.00    +0.046 A 
ATOM     20  C   UNL     1       0.742  -2.069  -0.013  0.00  0.00    +0.122 A 
ATOM     21  O   UNL     1       1.102  -0.775  -0.013  0.00  0.00    -0.463 OA
ENDBRANCH  15  20
ENDBRANCH   1  15
TORSDOF 4
