REMARK  Name = ZINC24874854
REMARK  9 active torsions:
REMARK  status: ('A' for Active; 'I' for Inactive)
REMARK    1  A    between atoms: C_1  and  C_2
REMARK    2  A    between atoms: C_14  and  C_16
REMARK    3  A    between atoms: C_16  and  O_17
REMARK    4  A    between atoms: O_17  and  C_18
REMARK    5  A    between atoms: C_18  and  C_20
REMARK    6  A    between atoms: C_20  and  N_21
REMARK    7  A    between atoms: C_26  and  C_33
REMARK    8  A    between atoms: C_29  and  C_31
REMARK    9  A    between atoms: C_29  and  C_32
REMARK                            x       y       z     vdW  Elec       q    Type
REMARK                         _______ _______ _______ _____ _____    ______ ____
ROOT
ATOM      1  C   UNL     1      -6.288   1.331   5.316  0.00  0.00    +0.326 C 
ATOM      2  O   UNL     1      -5.786   2.421   5.452  0.00  0.00    -0.249 OA
ENDROOT
BRANCH   1   3
ATOM      3  O   UNL     1      -7.453   1.047   5.920  0.00  0.00    -0.454 OA
BRANCH   3   4
ATOM      4  C   UNL     1      -8.053   2.099   6.721  0.00  0.00    +0.328 C 
BRANCH   4  17
ATOM      5  C   UNL     1     -10.733   1.505  12.482  0.00  0.00    +0.019 C 
ATOM      6  C   UNL     1     -10.669   2.239  11.141  0.00  0.00    +0.050 C 
ATOM      7  C   UNL     1     -11.122   1.301  10.033  0.00  0.00    +0.033 C 
ATOM      8  C   UNL     1     -11.348   1.948   8.687  0.00  0.00    +0.115 C 
ATOM      9  N   UNL     1     -10.081   2.413   8.102  0.00  0.00    -0.268 N 
ATOM     10  C   UNL     1      -9.660   3.722   8.377  0.00  0.00    +0.050 A 
ATOM     11  C   UNL     1      -9.735   4.692   7.384  0.00  0.00    +0.024 A 
ATOM     12  C   UNL     1      -9.364   5.994   7.669  0.00  0.00    +0.002 A 
ATOM     13  C   UNL     1      -8.924   6.343   8.932  0.00  0.00    +0.001 A 
ATOM     14  C   UNL     1      -8.829   5.378   9.923  0.00  0.00    +0.016 A 
ATOM     15  C   UNL     1      -9.178   4.074   9.629  0.00  0.00    +0.030 A 
ATOM     16  S   UNL     1      -8.964   2.788  10.836  0.00  0.00    -0.120 S 
ATOM     17  C   UNL     1      -9.345   1.602   7.316  0.00  0.00    +0.258 C 
ATOM     18  O   UNL     1      -9.723   0.473   7.088  0.00  0.00    -0.272 OA
ENDBRANCH   4  17
ENDBRANCH   3   4
ENDBRANCH   1   3
BRANCH   1  19
ATOM     19  C   UNL     1      -5.606   0.288   4.468  0.00  0.00    +0.238 C 
BRANCH  19  20
ATOM     20  N   UNL     1      -4.361   0.838   3.925  0.00  0.00    -0.213 N 
ATOM     21  C   UNL     1      -4.271   1.490   2.747  0.00  0.00    +0.247 C 
ATOM     22  O   UNL     1      -5.169   1.722   1.966  0.00  0.00    -0.273 OA
ATOM     23  C   UNL     1      -2.815   1.869   2.605  0.00  0.00    +0.113 C 
ATOM     24  C   UNL     1      -2.664   3.384   2.538  0.00  0.00    +0.038 C 
ATOM     25  C   UNL     1      -1.180   3.746   2.430  0.00  0.00    -0.011 C 
ATOM     26  C   UNL     1      -0.589   3.100   1.175  0.00  0.00    +0.009 C 
ATOM     27  C   UNL     1      -0.729   1.579   1.267  0.00  0.00    -0.032 C 
ATOM     28  C   UNL     1      -2.211   1.210   1.370  0.00  0.00    +0.041 C 
ATOM     29  C   UNL     1      -0.129   0.935   0.015  0.00  0.00    +0.011 C 
ATOM     30  C   UNL     1       0.011   1.073   2.506  0.00  0.00    +0.011 C 
ATOM     31  C   UNL     1      -1.030   5.266   2.341  0.00  0.00    +0.007 C 
ATOM     32  N   UNL     1      -2.190   1.343   3.826  0.00  0.00    -0.285 N 
ATOM     33  C   UNL     1      -3.173   0.758   4.536  0.00  0.00    +0.310 C 
ATOM     34  O   UNL     1      -3.001   0.217   5.610  0.00  0.00    -0.252 OA
ATOM     35  H   UNL     1      -1.111   1.478   3.993  0.00  0.00    +0.151 HD
ENDBRANCH  19  20
ENDBRANCH   1  19
TORSDOF 5
