REMARK  Name = ZINC05274714
REMARK  6 active torsions:
REMARK  status: ('A' for Active; 'I' for Inactive)
REMARK    1  A    between atoms: C_1  and  C_2
REMARK    2  A    between atoms: C_2  and  C_3
REMARK    3  A    between atoms: C_2  and  C_4
REMARK    4  A    between atoms: C_2  and  C_5
REMARK    5  A    between atoms: C_14  and  O_26
REMARK    6  A    between atoms: C_16  and  C_19
REMARK                            x       y       z     vdW  Elec       q    Type
REMARK                         _______ _______ _______ _____ _____    ______ ____
ROOT
ATOM      1  C   UNL     1       0.718  -0.497  -1.257  0.00  0.00    -0.000 C 
ATOM      2  C   UNL     1       0.746  -2.029  -1.264  0.00  0.00    +0.009 C 
ATOM      3  C   UNL     1       1.234  -2.534  -2.624  0.00  0.00    +0.037 C 
ATOM      4  C   UNL     1       2.549  -1.843  -2.959  0.00  0.00    -0.023 A 
ATOM      5  C   UNL     1       2.921  -0.706  -2.328  0.00  0.00    -0.004 A 
ATOM      6  S   UNL     1       4.490  -0.288  -3.040  0.00  0.00    -0.078 S 
ATOM      7  C   UNL     1       4.646  -1.541  -4.114  0.00  0.00    +0.080 A 
ATOM      8  C   UNL     1       3.495  -2.321  -3.950  0.00  0.00    +0.068 A 
ATOM      9  C   UNL     1       3.369  -3.541  -4.788  0.00  0.00    +0.220 C 
ATOM     10  N   UNL     1       4.197  -3.678  -5.787  0.00  0.00    -0.223 NA
ATOM     11  C   UNL     1       5.194  -2.688  -6.176  0.00  0.00    +0.227 C 
ATOM     12  N   UNL     1       5.622  -1.868  -5.028  0.00  0.00    -0.313 N 
ATOM     13  C   UNL     1       2.161   0.028  -1.267  0.00  0.00    +0.046 C 
ATOM     14  H   UNL     1       6.541  -1.575  -4.923  0.00  0.00    +0.149 HD
ENDROOT
BRANCH  11  15
ATOM     15  C   UNL     1       4.605  -1.785  -7.230  0.00  0.00    +0.030 A 
ATOM     16  C   UNL     1       4.952  -0.448  -7.267  0.00  0.00    +0.010 A 
ATOM     17  C   UNL     1       4.412   0.380  -8.234  0.00  0.00    +0.001 A 
ATOM     18  C   UNL     1       3.525  -0.129  -9.165  0.00  0.00    +0.003 A 
ATOM     19  C   UNL     1       3.178  -1.466  -9.130  0.00  0.00    +0.039 A 
ATOM     20  C   UNL     1       3.722  -2.297  -8.165  0.00  0.00    +0.130 A 
ATOM     21  F   UNL     1       3.386  -3.606  -8.133  0.00  0.00    -0.205 F 
ENDBRANCH  11  15
BRANCH   1  23
ATOM     22  C   UNL     1      -0.019   1.526   0.010  0.00  0.00    +0.011 C 
ATOM     23  C   UNL     1       0.002  -0.004   0.002  0.00  0.00    -0.035 C 
ATOM     24  C   UNL     1       0.742  -0.511   1.242  0.00  0.00    +0.011 C 
ATOM     25  C   UNL     1      -1.433  -0.534   0.013  0.00  0.00    +0.011 C 
ENDBRANCH   1  23
BRANCH   9  26
ATOM     26  O   UNL     1       2.429  -4.478  -4.524  0.00  0.00    -0.492 OA
ATOM     27  H   UNL     1       2.440  -5.229  -5.134  0.00  0.00    +0.294 HD
ENDBRANCH   9  26
TORSDOF 3
