REMARK  Name = ZINC59398519
REMARK  9 active torsions:
REMARK  status: ('A' for Active; 'I' for Inactive)
REMARK    1  A    between atoms: C_1  and  C_2
REMARK    2  A    between atoms: C_2  and  C_3
REMARK    3  A    between atoms: C_3  and  C_4
REMARK    4  A    between atoms: C_5  and  C_32
REMARK    5  A    between atoms: C_6  and  C_23
REMARK    6  A    between atoms: C_12  and  C_13
REMARK    7  A    between atoms: C_32  and  O_34
REMARK    8  A    between atoms: O_34  and  C_35
REMARK    9  A    between atoms: C_35  and  C_36
REMARK                            x       y       z     vdW  Elec       q    Type
REMARK                         _______ _______ _______ _____ _____    ______ ____
ROOT
ATOM      1  C   UNL     1       0.233  -2.025  -0.222  0.00  0.00    +0.056 C 
ATOM      2  C   UNL     1      -0.862  -2.739  -0.617  0.00  0.00    +0.085 C 
ATOM      3  C   UNL     1      -0.728  -4.240  -0.735  0.00  0.00    +0.162 C 
ATOM      4  N   UNL     1       0.601  -4.831  -0.410  0.00  0.00    -0.275 N 
ATOM      5  C   UNL     1       0.915  -6.133  -0.456  0.00  0.00    +0.268 A 
ATOM      6  O   UNL     1       0.090  -6.965  -0.784  0.00  0.00    -0.266 OA
ATOM      7  C   UNL     1       2.286  -6.524  -0.097  0.00  0.00    +0.081 A 
ATOM      8  C   UNL     1       2.850  -7.758  -0.063  0.00  0.00    +0.028 C 
ATOM      9  S   UNL     1       3.009  -4.935   0.281  0.00  0.00    -0.046 S 
ATOM     10  C   UNL     1       1.570  -3.931  -0.033  0.00  0.00    +0.178 A 
ATOM     11  N   UNL     1       1.380  -2.638   0.042  0.00  0.00    -0.227 NA
ENDROOT
BRANCH   3  12
ATOM     12  C   UNL     1      -1.072  -4.626  -2.151  0.00  0.00    -0.016 A 
ATOM     13  C   UNL     1      -0.131  -4.482  -3.153  0.00  0.00    +0.010 A 
ATOM     14  C   UNL     1      -0.442  -4.835  -4.453  0.00  0.00    +0.050 A 
ATOM     15  C   UNL     1      -1.699  -5.334  -4.754  0.00  0.00    +0.166 A 
ATOM     16  C   UNL     1      -2.647  -5.479  -3.745  0.00  0.00    +0.167 A 
ATOM     17  C   UNL     1      -2.326  -5.129  -2.443  0.00  0.00    +0.055 A 
ATOM     18  O   UNL     1      -3.791  -5.984  -4.290  0.00  0.00    -0.453 OA
ATOM     19  C   UNL     1      -3.671  -5.764  -5.708  0.00  0.00    +0.466 C 
ATOM     20  O   UNL     1      -2.249  -5.749  -5.933  0.00  0.00    -0.453 OA
ENDBRANCH   3  12
BRANCH   8  21
ATOM     21  C   UNL     1       2.114  -8.917  -0.585  0.00  0.00    -0.024 A 
ATOM     22  C   UNL     1       1.316  -8.787  -1.728  0.00  0.00    +0.009 A 
ATOM     23  C   UNL     1       0.628  -9.879  -2.212  0.00  0.00    +0.020 A 
ATOM     24  C   UNL     1       0.724 -11.103  -1.569  0.00  0.00    +0.041 A 
ATOM     25  C   UNL     1       1.511 -11.239  -0.437  0.00  0.00    +0.020 A 
ATOM     26  C   UNL     1       2.210 -10.158   0.055  0.00  0.00    +0.009 A 
ATOM     27 CL   UNL     1      -0.148 -12.472  -2.186  0.00  0.00    -0.084 Cl
ENDBRANCH   8  21
BRANCH   2  28
ATOM     28  C   UNL     1      -2.079  -2.098  -0.904  0.00  0.00    +0.339 C 
ATOM     29  O   UNL     1      -2.150  -0.883  -0.868  0.00  0.00    -0.245 OA
BRANCH  28  30
ATOM     30  O   UNL     1      -3.170  -2.829  -1.220  0.00  0.00    -0.462 OA
BRANCH  30  31
ATOM     31  C   UNL     1      -4.373  -2.111  -1.500  0.00  0.00    +0.229 C 
ATOM     32  C   UNL     1      -5.491  -3.101  -1.834  0.00  0.00    +0.048 C 
ENDBRANCH  30  31
ENDBRANCH  28  30
ENDBRANCH   2  28
BRANCH   1  33
ATOM     33  C   UNL     1       0.141  -0.526  -0.092  0.00  0.00    +0.056 C 
BRANCH  33  35
ATOM     34  C   UNL     1      -0.543   1.353   1.406  0.00  0.00    +0.004 C 
ATOM     35  C   UNL     1      -0.448  -0.168   1.274  0.00  0.00    +0.003 C 
ENDBRANCH  33  35
ENDBRANCH   1  33
TORSDOF 7
