REMARK  Name = ZINC42082804
REMARK  5 active torsions:
REMARK  status: ('A' for Active; 'I' for Inactive)
REMARK    1  A    between atoms: C_4  and  C_7
REMARK    2  A    between atoms: C_7  and  C_11
REMARK    3  A    between atoms: C_11  and  N_12
REMARK    4  A    between atoms: C_13  and  C_15
REMARK    5  A    between atoms: C_15  and  N_16
REMARK                            x       y       z     vdW  Elec       q    Type
REMARK                         _______ _______ _______ _____ _____    ______ ____
ROOT
ATOM      1  C   UNL     1       5.719   3.307  -2.018  0.00  0.00    +0.213 C 
ENDROOT
BRANCH   1   2
ATOM      2  N   UNL     1       6.492   3.746  -3.177  0.00  0.00    -0.215 N 
ATOM      3  C   UNL     1       7.840   3.790  -3.247  0.00  0.00    +0.247 C 
ATOM      4  O   UNL     1       8.646   3.203  -2.567  0.00  0.00    -0.273 OA
ATOM      5  C   UNL     1       8.123   4.789  -4.357  0.00  0.00    +0.113 C 
ATOM      6  C   UNL     1       8.049   6.197  -3.769  0.00  0.00    +0.035 C 
ATOM      7  C   UNL     1       8.700   7.228  -4.691  0.00  0.00    +0.003 C 
ATOM      8  C   UNL     1       7.755   7.703  -5.809  0.00  0.00    +0.000 C 
ATOM      9  C   UNL     1       7.683   6.605  -6.885  0.00  0.00    +0.000 C 
ATOM     10  C   UNL     1       9.082   6.040  -7.139  0.00  0.00    +0.000 C 
ATOM     11  C   UNL     1       9.211   4.614  -6.615  0.00  0.00    +0.003 C 
ATOM     12  C   UNL     1       9.413   4.538  -5.102  0.00  0.00    +0.035 C 
ATOM     13  N   UNL     1       6.950   4.497  -5.208  0.00  0.00    -0.285 N 
ATOM     14  C   UNL     1       5.970   4.130  -4.348  0.00  0.00    +0.310 C 
ATOM     15  O   UNL     1       4.789   4.147  -4.609  0.00  0.00    -0.252 OA
ATOM     16  H   UNL     1       6.880   4.444  -6.161  0.00  0.00    +0.151 HD
ENDBRANCH   1   2
BRANCH   1  18
ATOM     17  N   UNL     1       4.824   1.185  -1.116  0.00  0.00    -0.313 N 
ATOM     18  C   UNL     1       5.514   1.816  -2.087  0.00  0.00    +0.231 C 
ATOM     19  O   UNL     1       5.970   1.183  -3.015  0.00  0.00    -0.274 OA
ATOM     20  H   UNL     1       4.459   1.691  -0.373  0.00  0.00    +0.149 HD
BRANCH  17  21
ATOM     21  C   UNL     1       4.624  -0.265  -1.183  0.00  0.00    +0.115 C 
BRANCH  21  22
ATOM     22  C   UNL     1       3.712  -0.707  -0.037  0.00  0.00    +0.011 C 
ATOM     23  C   UNL     1       4.383  -0.648   1.345  0.00  0.00    +0.013 C 
ATOM     24  C   UNL     1       4.853  -2.090   1.092  0.00  0.00    +0.002 C 
ATOM     25  C   UNL     1       3.649  -2.233   0.146  0.00  0.00    +0.013 C 
BRANCH  22  29
ATOM     26  C   UNL     1      -0.128   1.161  -0.154  0.00  0.00    +0.000 A 
ATOM     27  C   UNL     1       0.161   0.118  -1.016  0.00  0.00    +0.000 A 
ATOM     28  C   UNL     1       1.403  -0.486  -0.978  0.00  0.00    +0.004 A 
ATOM     29  C   UNL     1       2.358  -0.048  -0.079  0.00  0.00    -0.040 A 
ATOM     30  C   UNL     1       2.070   0.995   0.781  0.00  0.00    +0.004 A 
ATOM     31  C   UNL     1       0.827   1.599   0.745  0.00  0.00    +0.000 A 
ENDBRANCH  22  29
ENDBRANCH  21  22
ENDBRANCH  17  21
ENDBRANCH   1  18
TORSDOF 5
