REMARK  Name = ZINC39449519
REMARK  5 active torsions:
REMARK  status: ('A' for Active; 'I' for Inactive)
REMARK    1  A    between atoms: C_4  and  O_7
REMARK    2  A    between atoms: O_7  and  S_8
REMARK    3  A    between atoms: S_8  and  N_11
REMARK    4  A    between atoms: C_24  and  C_29
REMARK    5  A    between atoms: C_34  and  O_35
REMARK                            x       y       z     vdW  Elec       q    Type
REMARK                         _______ _______ _______ _____ _____    ______ ____
ROOT
ATOM      1  N   UNL     1       3.321  -1.601   1.729  0.00  0.00    -0.141 N 
ATOM      2  C   UNL     1       2.058  -1.488   2.296  0.00  0.00    +0.137 A 
ATOM      3  C   UNL     1       1.351  -2.611   2.683  0.00  0.00    +0.083 A 
ATOM      4  C   UNL     1       1.943  -3.944   2.502  0.00  0.00    +0.099 A 
ATOM      5  C   UNL     1       3.228  -4.030   1.925  0.00  0.00    +0.070 A 
ATOM      6  C   UNL     1       3.913  -2.792   1.528  0.00  0.00    +0.283 A 
ATOM      7  O   UNL     1       5.019  -2.844   1.022  0.00  0.00    -0.265 OA
ATOM      8  C   UNL     1       3.810  -5.285   1.741  0.00  0.00    +0.037 A 
ATOM      9  C   UNL     1       3.091  -6.399   2.140  0.00  0.00    +0.060 A 
ATOM     10  C   UNL     1       1.831  -6.237   2.702  0.00  0.00    +0.131 A 
ATOM     11  N   UNL     1       1.299  -5.045   2.866  0.00  0.00    -0.251 NA
ATOM     12 CL   UNL     1       3.760  -7.989   1.939  0.00  0.00    -0.082 Cl
ATOM     13  N   UNL     1       0.090  -2.476   3.232  0.00  0.00    -0.333 N 
ATOM     14  C   UNL     1      -0.702  -1.290   2.875  0.00  0.00    +0.112 C 
ATOM     15  C   UNL     1       0.150  -0.044   3.142  0.00  0.00    +0.108 C 
ATOM     16  C   UNL     1       1.492  -0.205   2.476  0.00  0.00    +0.185 C 
ATOM     17  O   UNL     1       2.092   0.777   2.089  0.00  0.00    -0.290 OA
ATOM     18  H   UNL     1      -0.263  -3.146   3.838  0.00  0.00    +0.147 HD
ENDROOT
BRANCH  14  19
ATOM     19  C   UNL     1      -1.074  -1.348   1.415  0.00  0.00    +0.014 A 
ATOM     20  C   UNL     1      -0.389  -2.189   0.560  0.00  0.00    +0.009 A 
ATOM     21  C   UNL     1      -0.730  -2.243  -0.778  0.00  0.00    +0.001 A 
ATOM     22  C   UNL     1      -1.757  -1.455  -1.265  0.00  0.00    +0.004 A 
ATOM     23  C   UNL     1      -2.445  -0.613  -0.414  0.00  0.00    +0.046 A 
ATOM     24  C   UNL     1      -2.109  -0.561   0.931  0.00  0.00    +0.122 A 
BRANCH  24  25
ATOM     25  O   UNL     1      -2.788   0.263   1.771  0.00  0.00    -0.506 OA
ATOM     26  H   UNL     1      -2.411   1.150   1.842  0.00  0.00    +0.292 HD
ENDBRANCH  24  25
ENDBRANCH  14  19
BRANCH   1  27
ATOM     27  S   UNL     1       4.121  -0.223   1.277  0.00  0.00    +0.224 S 
ATOM     28  O   UNL     1       3.258   0.476   0.391  0.00  0.00    -0.113 OA
ATOM     29  O   UNL     1       5.435  -0.619   0.908  0.00  0.00    -0.113 OA
BRANCH  27  30
ATOM     30  O   UNL     1       4.261   0.644   2.521  0.00  0.00    -0.329 OA
BRANCH  30  34
ATOM     31  C   UNL     1       7.041  -0.748   5.232  0.00  0.00    +0.000 A 
ATOM     32  C   UNL     1       7.423   0.147   4.250  0.00  0.00    +0.004 A 
ATOM     33  C   UNL     1       6.495   0.615   3.341  0.00  0.00    +0.048 A 
ATOM     34  C   UNL     1       5.177   0.185   3.414  0.00  0.00    +0.158 A 
ATOM     35  C   UNL     1       4.797  -0.713   4.400  0.00  0.00    +0.048 A 
ATOM     36  C   UNL     1       5.729  -1.177   5.307  0.00  0.00    +0.004 A 
ENDBRANCH  30  34
ENDBRANCH  27  30
ENDBRANCH   1  27
TORSDOF 5
