REMARK  Name = ZINC18181811
REMARK  4 active torsions:
REMARK  status: ('A' for Active; 'I' for Inactive)
REMARK    1  A    between atoms: C_1  and  C_2
REMARK    2  A    between atoms: C_5  and  S_8
REMARK    3  A    between atoms: S_8  and  C_9
REMARK    4  A    between atoms: C_9  and  C_10
REMARK                            x       y       z     vdW  Elec       q    Type
REMARK                         _______ _______ _______ _____ _____    ______ ____
ROOT
ATOM      1  C   UNL     1      -3.207   4.016  -0.954  0.00  0.00    +0.234 C 
ATOM      2  O   UNL     1      -4.213   4.688  -0.872  0.00  0.00    -0.274 OA
ATOM      3  N   UNL     1      -2.383   3.903   0.107  0.00  0.00    -0.239 N 
ATOM      4  C   UNL     1      -1.214   3.131   0.036  0.00  0.00    +0.044 A 
ATOM      5  C   UNL     1      -1.224   1.748   0.017  0.00  0.00    +0.024 A 
ATOM      6  C   UNL     1      -0.013   1.076   0.008  0.00  0.00    +0.002 A 
ATOM      7  C   UNL     1       1.178   1.779   0.000  0.00  0.00    +0.000 A 
ATOM      8  C   UNL     1       1.175   3.167  -0.006  0.00  0.00    +0.005 A 
ATOM      9  C   UNL     1      -0.033   3.826   0.008  0.00  0.00    -0.025 A 
ATOM     10  C   UNL     1      -0.145   5.328  -0.041  0.00  0.00    +0.042 C 
ATOM     11  C   UNL     1      -0.448   5.904   1.331  0.00  0.00    +0.042 C 
ATOM     12  C   UNL     1      -1.767   5.431   1.897  0.00  0.00    -0.025 A 
ATOM     13  C   UNL     1      -2.669   4.552   1.317  0.00  0.00    +0.044 A 
ATOM     14  C   UNL     1      -3.873   4.249   1.944  0.00  0.00    +0.024 A 
ATOM     15  C   UNL     1      -4.179   4.794   3.174  0.00  0.00    +0.002 A 
ATOM     16  C   UNL     1      -3.274   5.649   3.776  0.00  0.00    +0.000 A 
ATOM     17  C   UNL     1      -2.091   5.963   3.147  0.00  0.00    +0.005 A 
ENDROOT
BRANCH   1  18
ATOM     18  C   UNL     1      -2.877   3.309  -2.243  0.00  0.00    +0.174 C 
BRANCH  18  19
ATOM     19  S   UNL     1      -4.164   3.654  -3.468  0.00  0.00    -0.077 S 
BRANCH  19  24
ATOM     20  C   UNL     1      -3.480   1.383  -8.224  0.00  0.00    +0.088 C 
ATOM     21  C   UNL     1      -3.285   1.812  -6.792  0.00  0.00    +0.128 A 
ATOM     22  N   UNL     1      -4.117   2.619  -6.068  0.00  0.00    -0.320 N 
ATOM     23  H   UNL     1      -4.943   3.029  -6.368  0.00  0.00    +0.169 HD
ATOM     24  C   UNL     1      -3.542   2.731  -4.834  0.00  0.00    +0.189 A 
ATOM     25  N   UNL     1      -2.436   2.025  -4.860  0.00  0.00    -0.123 NA
ATOM     26  N   UNL     1      -2.292   1.481  -6.016  0.00  0.00    -0.134 NA
ENDBRANCH  19  24
ENDBRANCH  18  19
ENDBRANCH   1  18
TORSDOF 3
