REMARK  Name = ZINC39780139
REMARK  11 active torsions:
REMARK  status: ('A' for Active; 'I' for Inactive)
REMARK    1  A    between atoms: C_1  and  C_2
REMARK    2  A    between atoms: C_2  and  O_3
REMARK    3  A    between atoms: O_3  and  C_4
REMARK    4  A    between atoms: C_4  and  C_6
REMARK    5  A    between atoms: C_7  and  C_37
REMARK    6  A    between atoms: C_14  and  C_15
REMARK    7  A    between atoms: C_25  and  C_27
REMARK    8  A    between atoms: C_30  and  O_35
REMARK    9  A    between atoms: C_32  and  O_33
REMARK   10  A    between atoms: O_33  and  C_34
REMARK   11  A    between atoms: O_35  and  C_36
REMARK                            x       y       z     vdW  Elec       q    Type
REMARK                         _______ _______ _______ _____ _____    ______ ____
ROOT
ATOM      1  C   UNL     1      -2.713  -2.358   0.546  0.00  0.00    +0.085 C 
ATOM      2  C   UNL     1      -2.798  -3.712   0.389  0.00  0.00    +0.053 C 
ATOM      3  N   UNL     1      -3.974  -4.297   0.192  0.00  0.00    -0.228 NA
ATOM      4  C   UNL     1      -5.119  -3.669   0.130  0.00  0.00    +0.178 A 
ATOM      5  N   UNL     1      -5.258  -2.306   0.264  0.00  0.00    -0.275 N 
ATOM      6  C   UNL     1      -6.484  -1.773   0.182  0.00  0.00    +0.268 A 
ATOM      7  O   UNL     1      -6.657  -0.575   0.293  0.00  0.00    -0.266 OA
ATOM      8  C   UNL     1      -7.620  -2.690  -0.049  0.00  0.00    +0.080 A 
ATOM      9  C   UNL     1      -8.966  -2.407  -0.171  0.00  0.00    +0.026 C 
ATOM     10  S   UNL     1      -6.779  -4.264  -0.124  0.00  0.00    -0.046 S 
ATOM     11  C   UNL     1      -3.992  -1.555   0.495  0.00  0.00    +0.165 C 
ATOM     12  C   UNL     1      -1.546  -4.550   0.439  0.00  0.00    +0.066 C 
ENDROOT
BRANCH   9  13
ATOM     13  C   UNL     1      -9.880  -3.440  -0.389  0.00  0.00    -0.018 C 
ATOM     14  C   UNL     1     -11.261  -3.326  -0.540  0.00  0.00    +0.003 A 
ATOM     15  C   UNL     1     -12.136  -2.218  -0.525  0.00  0.00    +0.010 A 
ATOM     16  C   UNL     1     -13.467  -2.409  -0.702  0.00  0.00    +0.001 A 
ATOM     17  C   UNL     1     -14.006  -3.684  -0.900  0.00  0.00    +0.002 A 
ATOM     18  C   UNL     1     -13.229  -4.793  -0.927  0.00  0.00    +0.026 A 
ATOM     19  C   UNL     1     -11.823  -4.674  -0.749  0.00  0.00    +0.043 A 
ATOM     20  N   UNL     1     -10.869  -5.577  -0.733  0.00  0.00    -0.380 N 
ATOM     21  C   UNL     1      -9.578  -4.917  -0.517  0.00  0.00    +0.149 C 
ATOM     22  H   UNL     1     -10.998  -6.532  -0.849  0.00  0.00    +0.160 HD
ENDBRANCH   9  13
BRANCH  11  23
ATOM     23  C   UNL     1      -4.123  -0.808   1.798  0.00  0.00    +0.022 A 
ATOM     24  C   UNL     1      -3.875   0.550   1.843  0.00  0.00    +0.013 A 
ATOM     25  C   UNL     1      -3.994   1.237   3.036  0.00  0.00    +0.046 A 
ATOM     26  C   UNL     1      -4.363   0.564   4.192  0.00  0.00    +0.124 A 
ATOM     27  C   UNL     1      -4.612  -0.799   4.149  0.00  0.00    +0.091 A 
ATOM     28  C   UNL     1      -4.498  -1.485   2.950  0.00  0.00    +0.129 A 
BRANCH  28  29
ATOM     29  O   UNL     1      -4.747  -2.820   2.904  0.00  0.00    -0.495 OA
ATOM     30  C   UNL     1      -5.230  -3.431   4.102  0.00  0.00    +0.277 C 
ENDBRANCH  28  29
BRANCH  26  31
ATOM     31  O   UNL     1      -4.479   1.241   5.365  0.00  0.00    -0.495 OA
ATOM     32  C   UNL     1      -4.207   2.643   5.335  0.00  0.00    +0.277 C 
ENDBRANCH  26  31
ENDBRANCH  11  23
BRANCH   1  33
ATOM     33  C   UNL     1      -1.472  -1.730   0.756  0.00  0.00    +0.339 C 
ATOM     34  O   UNL     1      -0.470  -2.402   0.923  0.00  0.00    -0.245 OA
BRANCH  33  35
ATOM     35  O   UNL     1      -1.391  -0.382   0.771  0.00  0.00    -0.462 OA
BRANCH  35  37
ATOM     36  C   UNL     1      -0.202   1.709   1.001  0.00  0.00    +0.048 C 
ATOM     37  C   UNL     1      -0.085   0.189   0.876  0.00  0.00    +0.229 C 
ENDBRANCH  35  37
ENDBRANCH  33  35
ENDBRANCH   1  33
TORSDOF 7
