REMARK  Name = ZINC58950793
REMARK  9 active torsions:
REMARK  status: ('A' for Active; 'I' for Inactive)
REMARK    1  A    between atoms: C_1  and  C_2
REMARK    2  A    between atoms: C_2  and  O_3
REMARK    3  A    between atoms: O_3  and  C_4
REMARK    4  A    between atoms: C_4  and  C_6
REMARK    5  A    between atoms: C_7  and  N_30
REMARK    6  A    between atoms: C_11  and  C_15
REMARK    7  A    between atoms: C_16  and  C_18
REMARK    8  A    between atoms: C_27  and  O_28
REMARK    9  A    between atoms: O_28  and  C_29
REMARK                            x       y       z     vdW  Elec       q    Type
REMARK                         _______ _______ _______ _____ _____    ______ ____
ROOT
ATOM      1  C   UNL     1      -2.825  -2.467   0.029  0.00  0.00    +0.106 C 
ATOM      2  C   UNL     1      -3.046  -3.803  -0.022  0.00  0.00    +0.197 C 
ATOM      3  O   UNL     1      -4.272  -4.361   0.011  0.00  0.00    -0.424 OA
ATOM      4  C   UNL     1      -5.312  -3.572   0.378  0.00  0.00    +0.222 A 
ATOM      5  C   UNL     1      -5.217  -2.210   0.449  0.00  0.00    +0.049 A 
ATOM      6  C   UNL     1      -6.448  -1.713   0.854  0.00  0.00    +0.068 A 
ATOM      7  N   UNL     1      -7.262  -2.729   1.022  0.00  0.00    -0.176 NA
ATOM      8  N   UNL     1      -6.564  -3.910   0.726  0.00  0.00    -0.246 N 
ATOM      9  H   UNL     1      -6.922  -4.810   0.765  0.00  0.00    +0.192 HD
ATOM     10  C   UNL     1      -6.791  -0.261   1.064  0.00  0.00    +0.068 C 
ATOM     11  C   UNL     1      -3.948  -1.465   0.130  0.00  0.00    +0.102 C 
ENDROOT
BRANCH  11  12
ATOM     12  C   UNL     1      -4.104  -0.743  -1.184  0.00  0.00    +0.014 A 
ATOM     13  C   UNL     1      -3.912   0.646  -1.253  0.00  0.00    -0.010 A 
ATOM     14  C   UNL     1      -3.573   1.393  -0.112  0.00  0.00    +0.009 A 
ATOM     15  C   UNL     1      -3.394   2.738  -0.215  0.00  0.00    +0.001 A 
ATOM     16  C   UNL     1      -3.543   3.389  -1.438  0.00  0.00    +0.001 A 
ATOM     17  C   UNL     1      -3.871   2.699  -2.565  0.00  0.00    +0.008 A 
ATOM     18  C   UNL     1      -4.063   1.309  -2.497  0.00  0.00    -0.017 A 
ATOM     19  C   UNL     1      -4.402   0.564  -3.640  0.00  0.00    +0.012 A 
ATOM     20  C   UNL     1      -4.581  -0.781  -3.540  0.00  0.00    +0.046 A 
ATOM     21  C   UNL     1      -4.427  -1.437  -2.315  0.00  0.00    +0.125 A 
BRANCH  21  22
ATOM     22  O   UNL     1      -4.607  -2.783  -2.248  0.00  0.00    -0.495 OA
ATOM     23  C   UNL     1      -4.944  -3.454  -3.464  0.00  0.00    +0.277 C 
ENDBRANCH  21  22
ENDBRANCH  11  12
BRANCH   2  24
ATOM     24  N   UNL     1      -1.961  -4.634  -0.112  0.00  0.00    -0.329 N 
ATOM     25  H   UNL     1      -1.064  -4.269  -0.053  0.00  0.00    +0.145 HD
ATOM     26  H   UNL     1      -2.089  -5.587  -0.235  0.00  0.00    +0.145 HD
ENDBRANCH   2  24
BRANCH   1  27
ATOM     27  C   UNL     1      -1.503  -2.000  -0.007  0.00  0.00    +0.341 C 
ATOM     28  O   UNL     1      -0.964  -1.615   1.015  0.00  0.00    -0.245 OA
BRANCH  27  29
ATOM     29  O   UNL     1      -0.827  -1.975  -1.177  0.00  0.00    -0.462 OA
BRANCH  29  31
ATOM     30  C   UNL     1       1.114  -1.534  -2.548  0.00  0.00    +0.048 C 
ATOM     31  C   UNL     1       0.515  -1.486  -1.140  0.00  0.00    +0.229 C 
ENDBRANCH  29  31
ENDBRANCH  27  29
ENDBRANCH   1  27
TORSDOF 6
