REMARK  Name = ZINC39939944
REMARK  12 active torsions:
REMARK  status: ('A' for Active; 'I' for Inactive)
REMARK    1  A    between atoms: C_1  and  C_2
REMARK    2  A    between atoms: C_2  and  N_3
REMARK    3  A    between atoms: N_3  and  C_4
REMARK    4  A    between atoms: N_3  and  S_6
REMARK    5  A    between atoms: C_4  and  C_5
REMARK    6  A    between atoms: S_6  and  C_9
REMARK    7  A    between atoms: C_12  and  C_15
REMARK    8  A    between atoms: C_15  and  C_17
REMARK    9  A    between atoms: C_15  and  N_18
REMARK   10  A    between atoms: C_19  and  C_21
REMARK   11  A    between atoms: C_21  and  C_22
REMARK   12  A    between atoms: C_22  and  C_23
REMARK                            x       y       z     vdW  Elec       q    Type
REMARK                         _______ _______ _______ _____ _____    ______ ____
ROOT
ATOM      1  N   UNL     1       4.874   4.737   3.667  0.00  0.00    -0.309 N 
ATOM      2  C   UNL     1       5.015   6.055   3.910  0.00  0.00    +0.214 C 
ATOM      3  O   UNL     1       5.567   6.766   3.098  0.00  0.00    -0.276 OA
ATOM      4  H   UNL     1       4.432   4.168   4.316  0.00  0.00    +0.149 HD
ENDROOT
BRANCH   1   5
ATOM      5  C   UNL     1       5.390   4.163   2.421  0.00  0.00    +0.100 C 
ATOM      6  C   UNL     1       6.872   3.825   2.591  0.00  0.00    +0.033 C 
BRANCH   5  10
ATOM      7  C   UNL     1       3.218   0.606   1.484  0.00  0.00    +0.105 A 
ATOM      8  C   UNL     1       3.568   1.488   0.478  0.00  0.00    +0.029 A 
ATOM      9  C   UNL     1       4.271   2.639   0.781  0.00  0.00    +0.007 A 
ATOM     10  C   UNL     1       4.623   2.909   2.091  0.00  0.00    -0.027 A 
ATOM     11  C   UNL     1       4.272   2.028   3.096  0.00  0.00    +0.007 A 
ATOM     12  C   UNL     1       3.565   0.879   2.794  0.00  0.00    +0.029 A 
BRANCH   7  13
ATOM     13  S   UNL     1       2.322  -0.861   1.097  0.00  0.00    +0.061 S 
ATOM     14  O   UNL     1       2.586  -1.786   2.143  0.00  0.00    -0.153 OA
ATOM     15  O   UNL     1       2.594  -1.155  -0.266  0.00  0.00    -0.153 OA
BRANCH  13  16
ATOM     16  N   UNL     1       0.711  -0.489   1.189  0.00  0.00    -0.177 NA
BRANCH  16  18
ATOM     17  C   UNL     1      -0.019   1.526   0.010  0.00  0.00    +0.022 C 
ATOM     18  C   UNL     1       0.002  -0.004   0.002  0.00  0.00    +0.106 C 
ENDBRANCH  16  18
BRANCH  16  19
ATOM     19  C   UNL     1      -0.006  -0.646   2.457  0.00  0.00    +0.106 C 
ATOM     20  C   UNL     1      -0.694  -2.013   2.489  0.00  0.00    +0.022 C 
ENDBRANCH  16  19
ENDBRANCH  13  16
ENDBRANCH   7  13
ENDBRANCH   5  10
ENDBRANCH   1   5
BRANCH   2  21
ATOM     21  C   UNL     1       4.484   6.645   5.192  0.00  0.00    +0.098 C 
BRANCH  21  22
ATOM     22  C   UNL     1       4.771   8.148   5.218  0.00  0.00    +0.043 C 
BRANCH  22  23
ATOM     23  C   UNL     1       4.233   8.747   6.519  0.00  0.00    +0.166 C 
ATOM     24  C   UNL     1       4.730  10.171   6.611  0.00  0.00    +0.240 C 
ATOM     25  O   UNL     1       5.921  10.410   6.590  0.00  0.00    -0.273 OA
ATOM     26  N   UNL     1       3.843  11.163   6.715  0.00  0.00    -0.282 N 
ATOM     27  C   UNL     1       2.542  10.930   6.739  0.00  0.00    +0.057 A 
ATOM     28  C   UNL     1       1.630  12.004   6.850  0.00  0.00    +0.025 A 
ATOM     29  C   UNL     1       0.297  11.771   6.875  0.00  0.00    +0.002 A 
ATOM     30  C   UNL     1      -0.251  10.480   6.796  0.00  0.00    +0.002 A 
ATOM     31  C   UNL     1       0.531   9.383   6.688  0.00  0.00    +0.027 A 
ATOM     32  C   UNL     1       1.993   9.553   6.653  0.00  0.00    +0.057 A 
ATOM     33  N   UNL     1       2.779   8.522   6.548  0.00  0.00    -0.372 N 
ATOM     34  H   UNL     1       2.415   7.625   6.492  0.00  0.00    +0.160 HD
ATOM     35  H   UNL     1       4.161  12.078   6.774  0.00  0.00    +0.155 HD
ENDBRANCH  22  23
ENDBRANCH  21  22
ENDBRANCH   2  21
TORSDOF 9
