REMARK  Name = ZINC47133746
REMARK  10 active torsions:
REMARK  status: ('A' for Active; 'I' for Inactive)
REMARK    1  A    between atoms: C_1  and  C_2
REMARK    2  A    between atoms: C_2  and  C_3
REMARK    3  A    between atoms: C_6  and  C_35
REMARK    4  A    between atoms: C_7  and  C_9
REMARK    5  A    between atoms: C_15  and  C_17
REMARK    6  A    between atoms: C_17  and  C_18
REMARK    7  A    between atoms: C_18  and  C_19
REMARK    8  A    between atoms: C_19  and  N_20
REMARK    9  A    between atoms: C_24  and  C_25
REMARK   10  A    between atoms: C_35  and  C_36
REMARK                            x       y       z     vdW  Elec       q    Type
REMARK                         _______ _______ _______ _____ _____    ______ ____
ROOT
ATOM      1  C   UNL     1      -2.778  -0.480  -1.673  0.00  0.00    +0.156 A 
ATOM      2  C   UNL     1      -2.434  -0.184  -3.069  0.00  0.00    +0.197 A 
ATOM      3  N   UNL     1      -3.521  -0.262  -3.784  0.00  0.00    -0.033 NA
ATOM      4  O   UNL     1      -4.590  -0.600  -2.918  0.00  0.00    -0.240 OA
ATOM      5  N   UNL     1      -4.059  -0.728  -1.611  0.00  0.00    -0.047 NA
ATOM      6  N   UNL     1      -1.163   0.126  -3.548  0.00  0.00    -0.266 N 
ATOM      7  C   UNL     1      -0.982   0.390  -4.857  0.00  0.00    +0.218 C 
ATOM      8  O   UNL     1      -1.925   0.357  -5.618  0.00  0.00    -0.275 OA
ATOM      9  H   UNL     1      -0.408   0.152  -2.939  0.00  0.00    +0.156 HD
ENDROOT
BRANCH   1  14
ATOM     10  C   UNL     1      -0.016   0.498   0.683  0.00  0.00    -0.047 A 
ATOM     11  C   UNL     1      -0.066  -0.535   1.601  0.00  0.00    +0.004 A 
ATOM     12  C   UNL     1      -0.995  -1.550   1.458  0.00  0.00    +0.004 A 
ATOM     13  C   UNL     1      -1.877  -1.537   0.398  0.00  0.00    -0.038 A 
ATOM     14  C   UNL     1      -1.832  -0.499  -0.531  0.00  0.00    +0.011 A 
ATOM     15  C   UNL     1      -0.898   0.524  -0.378  0.00  0.00    +0.014 A 
BRANCH  10  17
ATOM     16  C   UNL     1       0.401   2.721   1.700  0.00  0.00    +0.009 C 
ATOM     17  C   UNL     1       0.998   1.601   0.846  0.00  0.00    +0.032 C 
ENDBRANCH  10  17
BRANCH  13  18
ATOM     18  C   UNL     1      -2.888  -2.644   0.243  0.00  0.00    +0.032 C 
ATOM     19  C   UNL     1      -2.335  -3.711  -0.704  0.00  0.00    +0.009 C 
ENDBRANCH  13  18
ENDBRANCH   1  14
BRANCH   7  20
ATOM     20  C   UNL     1       0.393   0.726  -5.375  0.00  0.00    +0.098 C 
BRANCH  20  21
ATOM     21  C   UNL     1       0.322   0.980  -6.882  0.00  0.00    +0.029 C 
BRANCH  21  22
ATOM     22  C   UNL     1       1.718   1.321  -7.408  0.00  0.00    +0.115 C 
BRANCH  22  23
ATOM     23  N   UNL     1       1.650   1.565  -8.851  0.00  0.00    -0.255 N 
ATOM     24  C   UNL     1       1.814   0.552  -9.686  0.00  0.00    +0.258 C 
ATOM     25  O   UNL     1       2.020  -0.579  -9.286  0.00  0.00    -0.269 OA
ATOM     26  C   UNL     1       1.733   0.863 -11.128  0.00  0.00    +0.077 C 
ATOM     27  C   UNL     1       1.860   0.040 -12.199  0.00  0.00    +0.028 C 
ATOM     28  S   UNL     1       1.424   2.623 -11.073  0.00  0.00    -0.061 S 
ATOM     29  C   UNL     1       1.416   2.815  -9.298  0.00  0.00    +0.121 C 
ATOM     30  S   UNL     1       1.173   4.242  -8.385  0.00  0.00    -0.027 S 
BRANCH  27  31
ATOM     31  C   UNL     1       1.933   0.603 -13.554  0.00  0.00    -0.024 A 
ATOM     32  C   UNL     1       2.065   1.985 -13.735  0.00  0.00    +0.011 A 
ATOM     33  C   UNL     1       2.134   2.506 -15.008  0.00  0.00    +0.039 A 
ATOM     34  C   UNL     1       2.071   1.666 -16.109  0.00  0.00    +0.123 A 
ATOM     35  C   UNL     1       1.940   0.296 -15.938  0.00  0.00    +0.039 A 
ATOM     36  C   UNL     1       1.876  -0.240 -14.670  0.00  0.00    +0.011 A 
ATOM     37  F   UNL     1       2.138   2.184 -17.355  0.00  0.00    -0.205 F 
ENDBRANCH  27  31
ENDBRANCH  22  23
ENDBRANCH  21  22
ENDBRANCH  20  21
ENDBRANCH   7  20
TORSDOF 8
