REMARK  Name = ZINC39668748
REMARK  8 active torsions:
REMARK  status: ('A' for Active; 'I' for Inactive)
REMARK    1  A    between atoms: C_1  and  C_2
REMARK    2  A    between atoms: C_2  and  C_4
REMARK    3  A    between atoms: C_2  and  O_33
REMARK    4  A    between atoms: C_4  and  N_5
REMARK    5  A    between atoms: C_6  and  C_8
REMARK    6  A    between atoms: C_19  and  C_21
REMARK    7  A    between atoms: C_24  and  C_26
REMARK    8  A    between atoms: O_33  and  C_34
REMARK                            x       y       z     vdW  Elec       q    Type
REMARK                         _______ _______ _______ _____ _____    ______ ____
ROOT
ATOM      1  C   UNL     1       1.527  -4.110   2.158  0.00  0.00    +0.100 C 
ATOM      2  C   UNL     1       0.125  -4.751   2.045  0.00  0.00    +0.121 C 
ATOM      3  N   UNL     1       0.203  -5.971   2.882  0.00  0.00    -0.294 N 
ATOM      4  C   UNL     1       1.003  -5.559   4.061  0.00  0.00    +0.115 C 
ATOM      5  C   UNL     1       2.099  -4.643   3.482  0.00  0.00    -0.004 C 
ATOM      6  C   UNL     1       2.379  -3.487   4.439  0.00  0.00    -0.010 C 
ATOM      7  C   UNL     1       3.002  -4.036   5.726  0.00  0.00    -0.082 C 
ATOM      8  N   UNL     1       4.246  -4.746   5.406  0.00  0.00    +0.379 N 
ATOM      9  C   UNL     1       3.955  -5.910   4.561  0.00  0.00    -0.082 C 
ATOM     10  C   UNL     1       3.373  -5.441   3.224  0.00  0.00    -0.010 C 
ATOM     11  C   UNL     1      -0.332  -7.182   2.630  0.00  0.00    +0.282 C 
ATOM     12  O   UNL     1      -0.180  -8.092   3.423  0.00  0.00    -0.267 OA
ATOM     13  H   UNL     1       4.870  -4.123   4.915  0.00  0.00    -0.086 HD
ATOM     14  H   UNL     1       4.686  -5.053   6.260  0.00  0.00    -0.086 HD
ENDROOT
BRANCH  11  15
ATOM     15  C   UNL     1      -1.098  -7.402   1.401  0.00  0.00    +0.190 A 
ATOM     16  C   UNL     1      -1.700  -8.582   1.023  0.00  0.00    +0.055 A 
ATOM     17  C   UNL     1      -2.317  -8.345  -0.209  0.00  0.00    +0.051 A 
ATOM     18  C   UNL     1      -2.071  -7.042  -0.537  0.00  0.00    +0.139 A 
ATOM     19  O   UNL     1      -1.341  -6.483   0.443  0.00  0.00    -0.450 OA
BRANCH  18  20
ATOM     20  C   UNL     1      -2.536  -6.360  -1.761  0.00  0.00    +0.052 A 
ATOM     21  C   UNL     1      -2.335  -6.948  -3.011  0.00  0.00    +0.014 A 
ATOM     22  C   UNL     1      -2.772  -6.305  -4.151  0.00  0.00    +0.001 A 
ATOM     23  C   UNL     1      -3.408  -5.080  -4.058  0.00  0.00    +0.003 A 
ATOM     24  C   UNL     1      -3.612  -4.489  -2.825  0.00  0.00    +0.039 A 
ATOM     25  C   UNL     1      -3.185  -5.124  -1.673  0.00  0.00    +0.134 A 
ATOM     26  F   UNL     1      -3.389  -4.550  -0.467  0.00  0.00    -0.205 F 
ENDBRANCH  18  20
ENDBRANCH  11  15
BRANCH   1  28
ATOM     27  N   UNL     1       2.409  -1.844   1.704  0.00  0.00    -0.312 N 
ATOM     28  C   UNL     1       1.415  -2.608   2.200  0.00  0.00    +0.218 C 
ATOM     29  O   UNL     1       0.432  -2.086   2.681  0.00  0.00    -0.275 OA
ATOM     30  H   UNL     1       3.195  -2.262   1.319  0.00  0.00    +0.149 HD
BRANCH  27  31
ATOM     31  C   UNL     1       2.300  -0.384   1.745  0.00  0.00    +0.148 C 
BRANCH  31  33
ATOM     32  C   UNL     1       3.496   1.759   1.277  0.00  0.00    +0.053 C 
ATOM     33  C   UNL     1       3.552   0.238   1.122  0.00  0.00    +0.187 C 
BRANCH  33  34
ATOM     34  O   UNL     1       3.610  -0.097  -0.266  0.00  0.00    -0.486 OA
BRANCH  34  35
ATOM     35  C   UNL     1       4.834  -0.068  -0.856  0.00  0.00    +0.139 A 
ATOM     36  C   UNL     1       5.975   0.188  -0.103  0.00  0.00    +0.049 A 
ATOM     37  C   UNL     1       7.200   0.209  -0.750  0.00  0.00    +0.023 A 
ATOM     38  C   UNL     1       7.248  -0.024  -2.112  0.00  0.00    +0.111 A 
ATOM     39  N   UNL     1       6.147  -0.263  -2.797  0.00  0.00    -0.260 NA
ATOM     40  C   UNL     1       4.963  -0.297  -2.218  0.00  0.00    +0.156 A 
ENDBRANCH  34  35
ENDBRANCH  33  34
ENDBRANCH  31  33
ENDBRANCH  27  31
ENDBRANCH   1  28
TORSDOF 7
