REMARK  Name = ZINC20877013
REMARK  11 active torsions:
REMARK  status: ('A' for Active; 'I' for Inactive)
REMARK    1  A    between atoms: C_1  and  O_2
REMARK    2  A    between atoms: O_2  and  C_3
REMARK    3  A    between atoms: C_5  and  C_24
REMARK    4  A    between atoms: C_8  and  O_9
REMARK    5  A    between atoms: O_9  and  C_10
REMARK    6  A    between atoms: C_10  and  C_11
REMARK    7  A    between atoms: C_11  and  C_13
REMARK    8  A    between atoms: C_11  and  O_22
REMARK    9  A    between atoms: C_24  and  N_25
REMARK   10  A    between atoms: N_25  and  C_26
REMARK   11  A    between atoms: C_26  and  C_27
REMARK                            x       y       z     vdW  Elec       q    Type
REMARK                         _______ _______ _______ _____ _____    ______ ____
ROOT
ATOM      1  C   UNL     1      -8.809   0.845   0.569  0.00  0.00    +0.163 A 
ATOM      2  C   UNL     1      -7.571   0.468   0.072  0.00  0.00    +0.051 A 
ATOM      3  C   UNL     1      -7.020   1.146  -0.999  0.00  0.00    -0.060 A 
ATOM      4  C   UNL     1      -7.706   2.195  -1.584  0.00  0.00    +0.021 A 
ATOM      5  C   UNL     1      -8.944   2.572  -1.097  0.00  0.00    +0.063 A 
ATOM      6  C   UNL     1      -9.500   1.900  -0.020  0.00  0.00    +0.176 A 
ATOM      7 BR   UNL     1      -9.879   4.006  -1.901  0.00  0.00    -0.046 Br
ENDROOT
BRANCH   1   9
ATOM      8  C   UNL     1      -8.585  -0.890   2.179  0.00  0.00    +0.277 C 
ATOM      9  O   UNL     1      -9.350   0.182   1.626  0.00  0.00    -0.491 OA
ENDBRANCH   1   9
BRANCH   6  10
ATOM     10  O   UNL     1     -10.717   2.269   0.460  0.00  0.00    -0.484 OA
BRANCH  10  11
ATOM     11  C   UNL     1     -11.861   1.630  -0.111  0.00  0.00    +0.265 C 
BRANCH  11  12
ATOM     12  C   UNL     1     -13.130   2.171   0.550  0.00  0.00    +0.182 C 
BRANCH  12  13
ATOM     13  C   UNL     1     -14.326   1.412   0.038  0.00  0.00    -0.012 A 
ATOM     14  C   UNL     1     -14.871   1.732  -1.192  0.00  0.00    +0.010 A 
ATOM     15  C   UNL     1     -15.968   1.037  -1.667  0.00  0.00    +0.050 A 
ATOM     16  C   UNL     1     -16.525   0.019  -0.911  0.00  0.00    +0.166 A 
ATOM     17  C   UNL     1     -15.976  -0.304   0.328  0.00  0.00    +0.167 A 
ATOM     18  C   UNL     1     -14.873   0.393   0.795  0.00  0.00    +0.055 A 
ATOM     19  O   UNL     1     -16.695  -1.329   0.870  0.00  0.00    -0.453 OA
ATOM     20  C   UNL     1     -17.433  -1.903  -0.225  0.00  0.00    +0.466 C 
ATOM     21  O   UNL     1     -17.588  -0.805  -1.145  0.00  0.00    -0.453 OA
ENDBRANCH  12  13
BRANCH  12  22
ATOM     22  O   UNL     1     -13.277   3.558   0.238  0.00  0.00    -0.384 OA
ATOM     23  H   UNL     1     -14.137   4.122   0.627  0.00  0.00    +0.210 HD
ENDBRANCH  12  22
ENDBRANCH  11  12
ENDBRANCH  10  11
ENDBRANCH   6  10
BRANCH   3  24
ATOM     24  C   UNL     1      -5.671   0.738  -1.533  0.00  0.00    -0.047 C 
BRANCH  24  25
ATOM     25  N   UNL     1      -4.620   1.492  -0.838  0.00  0.00    +0.383 N 
ATOM     26  H   UNL     1      -4.770   2.569  -1.004  0.00  0.00    -0.085 HD
ATOM     27  H   UNL     1      -4.667   1.278   0.240  0.00  0.00    -0.085 HD
BRANCH  25  28
ATOM     28  C   UNL     1      -3.289   1.120  -1.334  0.00  0.00    -0.050 C 
BRANCH  28  29
ATOM     29  C   UNL     1      -2.223   1.924  -0.587  0.00  0.00    +0.101 C 
ATOM     30  C   UNL     1      -0.833   1.634  -1.185  0.00  0.00    +0.032 C 
ATOM     31  C   UNL     1      -0.013   1.086   0.008  0.00  0.00    +0.030 C 
ATOM     32  C   UNL     1      -0.810   1.621   1.224  0.00  0.00    +0.160 C 
ATOM     33  O   UNL     1      -2.186   1.524   0.793  0.00  0.00    -0.378 OA
ENDBRANCH  28  29
ENDBRANCH  25  28
ENDBRANCH  24  25
ENDBRANCH   3  24
TORSDOF 10
