REMARK  Name = ZINC28053762
REMARK  5 active torsions:
REMARK  status: ('A' for Active; 'I' for Inactive)
REMARK    1  A    between atoms: C_1  and  C_2
REMARK    2  A    between atoms: C_10  and  C_18
REMARK    3  A    between atoms: C_24  and  C_27
REMARK    4  A    between atoms: C_30  and  S_33
REMARK    5  A    between atoms: S_33  and  C_34
REMARK                            x       y       z     vdW  Elec       q    Type
REMARK                         _______ _______ _______ _____ _____    ______ ____
ROOT
ATOM      1  C   UNL     1      -1.744   0.234   0.123  0.00  0.00    +0.044 C 
ATOM      2  C   UNL     1      -0.601   1.215   0.090  0.00  0.00    -0.050 A 
ATOM      3  C   UNL     1       0.703   0.751   0.039  0.00  0.00    +0.007 A 
ATOM      4  C   UNL     1       1.763   1.639   0.003  0.00  0.00    +0.046 A 
ATOM      5  C   UNL     1       1.520   3.000   0.023  0.00  0.00    +0.131 A 
ATOM      6  C   UNL     1       0.201   3.470   0.081  0.00  0.00    +0.038 A 
ATOM      7  C   UNL     1      -0.858   2.572   0.117  0.00  0.00    +0.016 A 
ATOM      8  C   UNL     1      -0.025   4.936   0.103  0.00  0.00    +0.050 C 
ATOM      9  C   UNL     1       0.979   5.738  -0.259  0.00  0.00    +0.025 C 
ATOM     10  C   UNL     1       0.858   7.242  -0.235  0.00  0.00    +0.174 C 
ATOM     11  N   UNL     1      -0.537   7.630  -0.084  0.00  0.00    -0.201 N 
ATOM     12  C   UNL     1      -1.528   6.771   0.273  0.00  0.00    +0.240 A 
ATOM     13  N   UNL     1      -2.635   7.454   0.320  0.00  0.00    -0.092 NA
ATOM     14  N   UNL     1      -2.414   8.685   0.010  0.00  0.00    -0.021 NA
ATOM     15  N   UNL     1      -1.159   8.867  -0.250  0.00  0.00    -0.042 NA
ATOM     16  N   UNL     1      -1.269   5.431   0.509  0.00  0.00    -0.282 N 
ATOM     17  C   UNL     1       2.287   5.127  -0.706  0.00  0.00    +0.234 C 
ATOM     18  O   UNL     1       2.532   3.903  -0.012  0.00  0.00    -0.479 OA
ATOM     19  H   UNL     1      -1.996   4.762   0.994  0.00  0.00    +0.155 HD
ENDROOT
BRANCH  10  20
ATOM     20  C   UNL     1       1.657   7.789   0.920  0.00  0.00    -0.019 A 
ATOM     21  C   UNL     1       1.348   7.412   2.213  0.00  0.00    +0.006 A 
ATOM     22  C   UNL     1       2.084   7.910   3.272  0.00  0.00    +0.000 A 
ATOM     23  C   UNL     1       3.121   8.794   3.039  0.00  0.00    +0.000 A 
ATOM     24  C   UNL     1       3.426   9.175   1.745  0.00  0.00    +0.000 A 
ATOM     25  C   UNL     1       2.694   8.673   0.686  0.00  0.00    +0.006 A 
ENDBRANCH  10  20
BRANCH  17  26
ATOM     26  C   UNL     1       2.229   4.856  -2.187  0.00  0.00    -0.003 A 
ATOM     27  C   UNL     1       1.522   3.765  -2.661  0.00  0.00    +0.008 A 
ATOM     28  C   UNL     1       1.463   3.517  -4.018  0.00  0.00    +0.015 A 
ATOM     29  C   UNL     1       2.123   4.357  -4.907  0.00  0.00    +0.008 A 
ATOM     30  C   UNL     1       2.837   5.448  -4.426  0.00  0.00    +0.015 A 
ATOM     31  C   UNL     1       2.887   5.694  -3.068  0.00  0.00    +0.008 A 
BRANCH  29  32
ATOM     32  S   UNL     1       2.056   4.039  -6.638  0.00  0.00    -0.129 S 
ATOM     33  C   UNL     1       1.033   2.547  -6.771  0.00  0.00    +0.090 C 
ENDBRANCH  29  32
ENDBRANCH  17  26
TORSDOF 3
