REMARK  Name = ZINC02778934
REMARK  4 active torsions:
REMARK  status: ('A' for Active; 'I' for Inactive)
REMARK    1  A    between atoms: C_1  and  N_2
REMARK    2  A    between atoms: C_3  and  C_8
REMARK    3  A    between atoms: N_10  and  C_11
REMARK    4  A    between atoms: C_12  and  C_20
REMARK                            x       y       z     vdW  Elec       q    Type
REMARK                         _______ _______ _______ _____ _____    ______ ____
ROOT
ATOM      1  C   UNL     1       2.337   1.406   0.139  0.00  0.00    +0.085 A 
ATOM      2  C   UNL     1       3.580   2.024   0.159  0.00  0.00    +0.068 A 
ATOM      3  C   UNL     1       4.751   1.173   0.278  0.00  0.00    -0.023 A 
ATOM      4  C   UNL     1       4.495  -0.152   0.345  0.00  0.00    -0.004 A 
ATOM      5  S   UNL     1       2.731  -0.277   0.263  0.00  0.00    -0.077 S 
ATOM      6  C   UNL     1       5.496  -1.260   0.464  0.00  0.00    +0.043 C 
ATOM      7  C   UNL     1       6.883  -0.699   0.120  0.00  0.00    +0.005 C 
ATOM      8  C   UNL     1       7.090   0.609   0.890  0.00  0.00    +0.005 C 
ATOM      9  C   UNL     1       6.181   1.699   0.319  0.00  0.00    +0.037 C 
ENDROOT
BRANCH   2  10
ATOM     10  C   UNL     1       3.705   3.482   0.068  0.00  0.00    +0.244 C 
ATOM     11  O   UNL     1       3.707   4.157   1.081  0.00  0.00    -0.270 OA
ATOM     12  N   UNL     1       3.820   4.074  -1.137  0.00  0.00    -0.325 N 
ATOM     13  H   UNL     1       3.818   3.537  -1.944  0.00  0.00    +0.145 HD
ATOM     14  H   UNL     1       3.903   5.039  -1.197  0.00  0.00    +0.145 HD
ENDBRANCH   2  10
BRANCH   1  17
ATOM     15  C   UNL     1      -0.020   1.221   0.031  0.00  0.00    +0.268 C 
ATOM     16  O   UNL     1       0.083   0.009   0.017  0.00  0.00    -0.268 OA
ATOM     17  N   UNL     1       1.086   1.992   0.040  0.00  0.00    -0.274 N 
ATOM     18  H   UNL     1       1.006   2.956  -0.024  0.00  0.00    +0.156 HD
BRANCH  15  21
ATOM     19  C   UNL     1      -1.516   2.362   2.488  0.00  0.00    +0.173 C 
ATOM     20  N   UNL     1      -2.019   2.352   1.112  0.00  0.00    -0.261 N 
ATOM     21  C   UNL     1      -1.351   1.846   0.032  0.00  0.00    +0.137 A 
ATOM     22  C   UNL     1      -2.177   2.045  -1.062  0.00  0.00    +0.068 A 
ATOM     23  C   UNL     1      -3.321   2.666  -0.553  0.00  0.00    +0.150 A 
ATOM     24  N   UNL     1      -3.155   2.818   0.736  0.00  0.00    -0.178 NA
ATOM     25 BR   UNL     1      -1.833   1.574  -2.861  0.00  0.00    -0.046 Br
ENDBRANCH  15  21
ENDBRANCH   1  17
TORSDOF 3
