REMARK  Name = ZINC20832820
REMARK  13 active torsions:
REMARK  status: ('A' for Active; 'I' for Inactive)
REMARK    1  A    between atoms: C_1  and  C_2
REMARK    2  A    between atoms: C_2  and  N_3
REMARK    3  A    between atoms: N_3  and  C_4
REMARK    4  A    between atoms: N_3  and  C_6
REMARK    5  A    between atoms: C_4  and  C_5
REMARK    6  A    between atoms: C_9  and  C_12
REMARK    7  A    between atoms: N_13  and  N_14
REMARK    8  A    between atoms: C_17  and  S_20
REMARK    9  A    between atoms: S_20  and  C_21
REMARK   10  A    between atoms: C_21  and  C_22
REMARK   11  A    between atoms: N_24  and  C_25
REMARK   12  A    between atoms: C_28  and  S_31
REMARK   13  A    between atoms: S_31  and  N_34
REMARK                            x       y       z     vdW  Elec       q    Type
REMARK                         _______ _______ _______ _____ _____    ______ ____
ROOT
ATOM      1  N   UNL     1       1.755  -1.722   0.002  0.00  0.00    -0.205 N 
ATOM      2  C   UNL     1       1.309  -0.409   0.010  0.00  0.00    +0.232 A 
ATOM      3  N   UNL     1       0.003  -0.004   0.015  0.00  0.00    -0.186 NA
ATOM      4  C   UNL     1      -0.016   1.362   0.022  0.00  0.00    +0.211 A 
ATOM      5  N   UNL     1       1.226   1.784   0.022  0.00  0.00    -0.144 NA
ATOM      6  N   UNL     1       2.065   0.662   0.014  0.00  0.00    -0.245 N 
ATOM      7  H   UNL     1       1.031  -2.550  -0.001  0.00  0.00    +0.177 HD
ATOM      8  H   UNL     1       3.160   0.562   0.011  0.00  0.00    +0.192 HD
ENDROOT
BRANCH   1  10
ATOM      9  C   UNL     1       3.548  -3.224  -0.009  0.00  0.00    +0.138 C 
ATOM     10  N   UNL     1       3.130  -1.995  -0.002  0.00  0.00    -0.188 NA
BRANCH   9  14
ATOM     11  C   UNL     1       7.712  -4.050  -0.023  0.00  0.00    +0.030 A 
ATOM     12  C   UNL     1       6.798  -5.098  -0.026  0.00  0.00    +0.024 A 
ATOM     13  C   UNL     1       5.446  -4.834  -0.022  0.00  0.00    +0.011 A 
ATOM     14  C   UNL     1       4.994  -3.511  -0.014  0.00  0.00    -0.005 A 
ATOM     15  C   UNL     1       5.916  -2.461  -0.016  0.00  0.00    +0.011 A 
ATOM     16  C   UNL     1       7.267  -2.733  -0.015  0.00  0.00    +0.024 A 
BRANCH  11  17
ATOM     17  N   UNL     1       9.081  -4.322  -0.028  0.00  0.00    -0.330 N 
BRANCH  17  19
ATOM     18  C   UNL     1      10.386  -2.844   1.419  0.00  0.00    +0.024 C 
ATOM     19  C   UNL     1      10.047  -3.220  -0.024  0.00  0.00    +0.102 C 
ENDBRANCH  17  19
BRANCH  17  20
ATOM     20  C   UNL     1       9.553  -5.709  -0.036  0.00  0.00    +0.102 C 
ATOM     21  C   UNL     1       9.714  -6.184  -1.481  0.00  0.00    +0.024 C 
ENDBRANCH  17  20
ENDBRANCH  11  17
ENDBRANCH   9  14
ENDBRANCH   1  10
BRANCH   4  22
ATOM     22  S   UNL     1      -1.455   2.378   0.024  0.00  0.00    -0.075 S 
BRANCH  22  23
ATOM     23  C   UNL     1      -0.799   4.069   0.035  0.00  0.00    +0.173 C 
BRANCH  23  24
ATOM     24  C   UNL     1      -1.942   5.051   0.037  0.00  0.00    +0.227 C 
ATOM     25  O   UNL     1      -3.086   4.650   0.032  0.00  0.00    -0.275 OA
ATOM     26  N   UNL     1      -1.692   6.376   0.045  0.00  0.00    -0.285 N 
ATOM     27  H   UNL     1      -0.657   6.740   0.127  0.00  0.00    +0.155 HD
BRANCH  26  28
ATOM     28  C   UNL     1      -2.749   7.288  -0.050  0.00  0.00    +0.034 A 
ATOM     29  C   UNL     1      -2.577   8.483  -0.736  0.00  0.00    +0.025 A 
ATOM     30  C   UNL     1      -3.624   9.378  -0.834  0.00  0.00    +0.030 A 
ATOM     31  C   UNL     1      -4.839   9.091  -0.240  0.00  0.00    +0.105 A 
ATOM     32  C   UNL     1      -5.012   7.904   0.449  0.00  0.00    +0.030 A 
ATOM     33  C   UNL     1      -3.970   7.002   0.545  0.00  0.00    +0.025 A 
BRANCH  31  34
ATOM     34  S   UNL     1      -6.170  10.239  -0.360  0.00  0.00    +0.056 S 
ATOM     35  O   UNL     1      -5.925  11.025  -1.519  0.00  0.00    -0.153 OA
ATOM     36  O   UNL     1      -7.367   9.493  -0.185  0.00  0.00    -0.153 OA
BRANCH  34  37
ATOM     37  N   UNL     1      -6.055  11.261   0.938  0.00  0.00    -0.204 NA
ATOM     38  H   UNL     1      -6.872  11.996   0.899  0.00  0.00    +0.144 HD
ATOM     39  H   UNL     1      -5.088  11.784   0.907  0.00  0.00    +0.144 HD
ENDBRANCH  34  37
ENDBRANCH  31  34
ENDBRANCH  26  28
ENDBRANCH  23  24
ENDBRANCH  22  23
ENDBRANCH   4  22
TORSDOF 11
