REMARK  Name = ZINC63448331
REMARK  7 active torsions:
REMARK  status: ('A' for Active; 'I' for Inactive)
REMARK    1  A    between atoms: C_1  and  C_2
REMARK    2  A    between atoms: C_5  and  C_8
REMARK    3  A    between atoms: C_12  and  S_21
REMARK    4  A    between atoms: N_14  and  C_15
REMARK    5  A    between atoms: C_15  and  C_16
REMARK    6  A    between atoms: S_21  and  C_22
REMARK    7  A    between atoms: C_22  and  C_23
REMARK                            x       y       z     vdW  Elec       q    Type
REMARK                         _______ _______ _______ _____ _____    ______ ____
ROOT
ATOM      1  C   UNL     1       0.059  -4.275  -0.021  0.00  0.00    +0.172 C 
ATOM      2  N   UNL     1       0.693  -4.768  -1.266  0.00  0.00    -0.233 NA
ATOM      3  N   UNL     1       2.096  -5.010  -0.893  0.00  0.00    -0.229 NA
ATOM      4  C   UNL     1       1.987  -5.554   0.486  0.00  0.00    +0.200 C 
ATOM      5  N   UNL     1       0.883  -4.777   1.098  0.00  0.00    -0.250 NA
ATOM      6  H   UNL     1       0.628  -4.080  -2.001  0.00  0.00    +0.143 HD
ATOM      7  H   UNL     1       2.626  -4.152  -0.903  0.00  0.00    +0.143 HD
ENDROOT
BRANCH   1  12
ATOM      8  C   UNL     1      -0.016   1.503   0.007  0.00  0.00    +0.044 C 
ATOM      9  C   UNL     1       0.004  -0.004  -0.000  0.00  0.00    -0.050 A 
ATOM     10  C   UNL     1       1.187  -0.679  -0.235  0.00  0.00    +0.004 A 
ATOM     11  C   UNL     1       1.205  -2.061  -0.242  0.00  0.00    +0.007 A 
ATOM     12  C   UNL     1       0.040  -2.768  -0.013  0.00  0.00    -0.015 A 
ATOM     13  C   UNL     1      -1.143  -2.094   0.223  0.00  0.00    +0.007 A 
ATOM     14  C   UNL     1      -1.160  -0.712   0.234  0.00  0.00    +0.004 A 
ENDBRANCH   1  12
BRANCH   5  15
ATOM     15  C   UNL     1       0.086  -5.617   2.002  0.00  0.00    +0.163 C 
BRANCH  15  16
ATOM     16  C   UNL     1       0.880  -5.907   3.250  0.00  0.00    +0.119 A 
ATOM     17  C   UNL     1       0.881  -5.166   4.372  0.00  0.00    +0.046 A 
ATOM     18  C   UNL     1       1.760  -5.799   5.280  0.00  0.00    +0.041 A 
ATOM     19  C   UNL     1       2.244  -6.889   4.659  0.00  0.00    +0.195 A 
ATOM     20  O   UNL     1       1.704  -6.952   3.431  0.00  0.00    -0.467 OA
ENDBRANCH  15  16
ENDBRANCH   5  15
BRANCH   4  21
ATOM     21  S   UNL     1       3.534  -5.289   1.396  0.00  0.00    -0.121 S 
BRANCH  21  22
ATOM     22  C   UNL     1       3.761  -3.490   1.362  0.00  0.00    +0.118 C 
BRANCH  22  23
ATOM     23  C   UNL     1       5.048  -3.124   2.105  0.00  0.00    +0.184 C 
ATOM     24  N   UNL     1       4.999  -3.637   3.480  0.00  0.00    -0.363 N 
ATOM     25  C   UNL     1       5.990  -4.468   3.622  0.00  0.00    +0.060 A 
ATOM     26  C   UNL     1       6.455  -5.285   4.752  0.00  0.00    +0.027 A 
ATOM     27  C   UNL     1       7.539  -6.072   4.602  0.00  0.00    +0.002 A 
ATOM     28  C   UNL     1       8.258  -6.150   3.396  0.00  0.00    +0.002 A 
ATOM     29  C   UNL     1       7.917  -5.444   2.299  0.00  0.00    +0.027 A 
ATOM     30  C   UNL     1       6.751  -4.551   2.345  0.00  0.00    +0.060 A 
ATOM     31  N   UNL     1       6.201  -3.768   1.463  0.00  0.00    -0.363 N 
ATOM     32  H   UNL     1       4.347  -3.399   4.158  0.00  0.00    +0.162 HD
ATOM     33  H   UNL     1       6.498  -3.634   0.549  0.00  0.00    +0.162 HD
ENDBRANCH  22  23
ENDBRANCH  21  22
ENDBRANCH   4  21
TORSDOF 6
