REMARK  Name = ZINC14044172
REMARK  11 active torsions:
REMARK  status: ('A' for Active; 'I' for Inactive)
REMARK    1  A    between atoms: C_1  and  C_2
REMARK    2  A    between atoms: C_2  and  C_4
REMARK    3  A    between atoms: C_2  and  N_32
REMARK    4  A    between atoms: C_7  and  C_10
REMARK    5  A    between atoms: C_10  and  C_12
REMARK    6  A    between atoms: C_12  and  S_13
REMARK    7  A    between atoms: S_13  and  C_14
REMARK    8  A    between atoms: C_17  and  C_26
REMARK    9  A    between atoms: N_18  and  C_19
REMARK   10  A    between atoms: C_26  and  N_65
REMARK   11  A    between atoms: C_33  and  C_35
REMARK                            x       y       z     vdW  Elec       q    Type
REMARK                         _______ _______ _______ _____ _____    ______ ____
ROOT
ATOM      1  C   UNL     1       1.062   2.240   0.004  0.00  0.00    +0.196 A 
ATOM      2  N   UNL     1       0.592   3.466   0.015  0.00  0.00    -0.122 NA
ATOM      3  N   UNL     1      -0.693   3.443   0.026  0.00  0.00    -0.135 NA
ATOM      4  C   UNL     1      -1.119   2.212   0.019  0.00  0.00    +0.122 A 
ATOM      5  N   UNL     1      -0.017   1.399   0.010  0.00  0.00    -0.276 N 
ENDROOT
BRANCH   5   6
ATOM      6  C   UNL     1       0.002  -0.004   0.002  0.00  0.00    +0.050 A 
ATOM      7  C   UNL     1      -0.511  -0.700  -1.084  0.00  0.00    +0.029 A 
ATOM      8  C   UNL     1      -0.488  -2.081  -1.091  0.00  0.00    +0.040 A 
ATOM      9  C   UNL     1       0.039  -2.771  -0.013  0.00  0.00    +0.124 A 
ATOM     10  C   UNL     1       0.547  -2.079   1.073  0.00  0.00    +0.040 A 
ATOM     11  C   UNL     1       0.529  -0.698   1.083  0.00  0.00    +0.029 A 
ATOM     12  F   UNL     1       0.057  -4.122  -0.020  0.00  0.00    -0.205 F 
ENDBRANCH   5   6
BRANCH   1  13
ATOM     13  S   UNL     1       2.759   1.768  -0.015  0.00  0.00    -0.078 S 
BRANCH  13  14
ATOM     14  C   UNL     1       3.539   3.401  -0.013  0.00  0.00    +0.157 C 
BRANCH  14  15
ATOM     15  C   UNL     1       5.038   3.242  -0.029  0.00  0.00    +0.173 C 
ATOM     16  O   UNL     1       5.530   2.133  -0.039  0.00  0.00    -0.291 OA
BRANCH  15  20
ATOM     17  C   UNL     1       7.536   6.670  -0.034  0.00  0.00    -0.027 A 
ATOM     18  C   UNL     1       8.101   5.407  -0.046  0.00  0.00    +0.006 A 
ATOM     19  C   UNL     1       7.296   4.287  -0.044  0.00  0.00    +0.012 A 
ATOM     20  C   UNL     1       5.905   4.431  -0.030  0.00  0.00    +0.018 A 
ATOM     21  C   UNL     1       5.341   5.711  -0.024  0.00  0.00    +0.012 A 
ATOM     22  C   UNL     1       6.160   6.821  -0.020  0.00  0.00    +0.006 A 
BRANCH  17  24
ATOM     23  C   UNL     1       8.535   8.440   1.387  0.00  0.00    +0.033 C 
ATOM     24  C   UNL     1       8.423   7.888  -0.035  0.00  0.00    +0.100 C 
BRANCH  24  25
ATOM     25  N   UNL     1       7.847   8.911  -0.912  0.00  0.00    -0.309 N 
ATOM     26  C   UNL     1       8.642   9.842  -1.474  0.00  0.00    +0.210 C 
ATOM     27  O   UNL     1       9.835   9.834  -1.254  0.00  0.00    -0.276 OA
ATOM     28  C   UNL     1       8.049  10.895  -2.376  0.00  0.00    +0.109 C 
ATOM     29  H   UNL     1       6.893   8.918  -1.087  0.00  0.00    +0.149 HD
ENDBRANCH  24  25
ENDBRANCH  17  24
ENDBRANCH  15  20
ENDBRANCH  14  15
ENDBRANCH  13  14
ENDBRANCH   1  13
BRANCH   4  30
ATOM     30  C   UNL     1      -2.558   1.765   0.022  0.00  0.00    -0.001 C 
BRANCH  30  36
ATOM     31  C   UNL     1      -2.308   0.520   2.084  0.00  0.00    -0.078 C 
ATOM     32  C   UNL     1      -2.707   0.485   3.561  0.00  0.00    -0.019 C 
ATOM     33  C   UNL     1      -4.220   0.277   3.670  0.00  0.00    -0.004 C 
ATOM     34  C   UNL     1      -4.938   1.401   2.918  0.00  0.00    -0.019 C 
ATOM     35  C   UNL     1      -4.474   1.410   1.460  0.00  0.00    -0.078 C 
ATOM     36  N   UNL     1      -3.014   1.638   1.422  0.00  0.00    +0.384 N 
ATOM     37  H   UNL     1      -2.800   2.509   1.922  0.00  0.00    -0.081 HD
ENDBRANCH  30  36
ENDBRANCH   4  30
TORSDOF 9
