REMARK  Name = ZINC01100481
REMARK  1 active torsions:
REMARK  status: ('A' for Active; 'I' for Inactive)
REMARK    1  A    between atoms: C_10  and  N_14
REMARK                            x       y       z     vdW  Elec       q    Type
REMARK                         _______ _______ _______ _____ _____    ______ ____
ROOT
ATOM      1  N   UNL     1       3.620  -0.643  -0.035  0.00  0.00    -0.243 N 
ATOM      2  C   UNL     1       4.770   0.022  -0.147  0.00  0.00    +0.231 C 
ATOM      3  O   UNL     1       4.792   1.232  -0.229  0.00  0.00    -0.274 OA
ATOM      4  C   UNL     1       6.054  -0.795  -0.165  0.00  0.00    +0.168 C 
ATOM      5  S   UNL     1       5.424  -2.427   0.430  0.00  0.00    -0.111 S 
ATOM      6  C   UNL     1       3.656  -2.098   0.066  0.00  0.00    +0.192 C 
ATOM      7  C   UNL     1       2.776  -2.643   1.148  0.00  0.00    +0.017 A 
ATOM      8  C   UNL     1       2.669  -2.410   2.501  0.00  0.00    +0.009 A 
ATOM      9  C   UNL     1       1.730  -3.095   3.251  0.00  0.00    +0.000 A 
ATOM     10  C   UNL     1       0.897  -4.014   2.638  0.00  0.00    +0.002 A 
ATOM     11  C   UNL     1       0.999  -4.250   1.283  0.00  0.00    +0.024 A 
ATOM     12  C   UNL     1       1.942  -3.566   0.520  0.00  0.00    +0.040 A 
ATOM     13  N   UNL     1       2.232  -3.630  -0.845  0.00  0.00    -0.282 N 
ATOM     14  C   UNL     1       3.231  -2.793  -1.192  0.00  0.00    +0.256 C 
ATOM     15  O   UNL     1       3.694  -2.634  -2.302  0.00  0.00    -0.272 OA
ATOM     16  H   UNL     1       1.770  -4.210  -1.470  0.00  0.00    +0.155 HD
ENDROOT
BRANCH   1  26
ATOM     17  C   UNL     1      -3.371   3.234  -0.193  0.00  0.00    +0.001 A 
ATOM     18  C   UNL     1      -3.557   3.035  -1.552  0.00  0.00    +0.004 A 
ATOM     19  C   UNL     1      -2.622   2.345  -2.295  0.00  0.00    +0.047 A 
ATOM     20  C   UNL     1      -1.480   1.842  -1.684  0.00  0.00    +0.136 A 
ATOM     21  C   UNL     1      -1.292   2.050  -0.311  0.00  0.00    +0.028 A 
ATOM     22  C   UNL     1      -2.244   2.741   0.431  0.00  0.00    +0.012 A 
ATOM     23  C   UNL     1      -0.010   1.400   0.020  0.00  0.00    +0.028 A 
ATOM     24  C   UNL     1       0.722   1.252   1.195  0.00  0.00    +0.014 A 
ATOM     25  C   UNL     1       1.922   0.576   1.173  0.00  0.00    +0.024 A 
ATOM     26  C   UNL     1       2.401   0.042  -0.020  0.00  0.00    +0.042 A 
ATOM     27  C   UNL     1       1.678   0.185  -1.193  0.00  0.00    +0.070 A 
ATOM     28  C   UNL     1       0.467   0.864  -1.185  0.00  0.00    +0.138 A 
ATOM     29  O   UNL     1      -0.425   1.145  -2.161  0.00  0.00    -0.455 OA
ENDBRANCH   1  26
TORSDOF 1
