REMARK  Name = ZINC00971486
REMARK  8 active torsions:
REMARK  status: ('A' for Active; 'I' for Inactive)
REMARK    1  A    between atoms: C_1  and  C_2
REMARK    2  A    between atoms: C_2  and  O_3
REMARK    3  A    between atoms: O_3  and  C_4
REMARK    4  A    between atoms: C_9  and  N_12
REMARK    5  A    between atoms: C_13  and  C_15
REMARK    6  A    between atoms: C_16  and  N_34
REMARK    7  A    between atoms: C_18  and  C_30
REMARK    8  A    between atoms: C_26  and  C_29
REMARK                            x       y       z     vdW  Elec       q    Type
REMARK                         _______ _______ _______ _____ _____    ______ ____
ROOT
ATOM      1  C   UNL     1      -0.363  -0.084   0.234  0.00  0.00    +0.097 A 
ATOM      2  C   UNL     1       0.914  -0.430   0.616  0.00  0.00    +0.054 A 
ATOM      3  C   UNL     1       1.841   0.634   0.971  0.00  0.00    +0.041 A 
ATOM      4  C   UNL     1       3.187   0.534   1.392  0.00  0.00    +0.071 A 
ATOM      5  C   UNL     1       3.899   1.683   1.682  0.00  0.00    -0.013 A 
ATOM      6  C   UNL     1       3.294   2.920   1.559  0.00  0.00    +0.046 A 
ATOM      7  N   UNL     1       2.031   3.005   1.167  0.00  0.00    -0.244 NA
ATOM      8  C   UNL     1       1.315   1.943   0.880  0.00  0.00    +0.112 A 
ATOM      9  S   UNL     1      -0.358   1.695   0.339  0.00  0.00    -0.062 S 
ATOM     10  C   UNL     1       4.019   4.209   1.851  0.00  0.00    +0.056 C 
ATOM     11  C   UNL     1       5.271   3.943   2.685  0.00  0.00    +0.010 C 
ATOM     12  C   UNL     1       6.085   2.842   1.996  0.00  0.00    -0.009 C 
ATOM     13  C   UNL     1       5.328   1.523   2.134  0.00  0.00    +0.040 C 
ATOM     14  C   UNL     1       7.456   2.721   2.665  0.00  0.00    +0.008 C 
ENDROOT
BRANCH   1  16
ATOM     15  N   UNL     1      -2.620  -0.415  -0.496  0.00  0.00    -0.308 N 
ATOM     16  C   UNL     1      -1.427  -0.938  -0.151  0.00  0.00    +0.253 C 
ATOM     17  O   UNL     1      -1.262  -2.145  -0.170  0.00  0.00    -0.270 OA
ATOM     18  H   UNL     1      -2.751   0.546  -0.481  0.00  0.00    +0.149 HD
BRANCH  15  24
ATOM     19  C   UNL     1      -6.995  -1.821  -3.316  0.00  0.00    +0.403 C 
ATOM     20  O   UNL     1      -8.053  -1.320  -2.989  0.00  0.00    -0.226 OA
ATOM     21  N   UNL     1      -6.011  -1.973  -2.407  0.00  0.00    -0.267 N 
ATOM     22  C   UNL     1      -6.203  -1.537  -1.017  0.00  0.00    +0.113 C 
ATOM     23  C   UNL     1      -5.055  -0.598  -0.632  0.00  0.00    +0.041 C 
ATOM     24  C   UNL     1      -3.719  -1.298  -0.894  0.00  0.00    +0.076 C 
ATOM     25  C   UNL     1      -3.596  -1.626  -2.384  0.00  0.00    +0.041 C 
ATOM     26  C   UNL     1      -4.727  -2.577  -2.788  0.00  0.00    +0.113 C 
BRANCH  19  27
ATOM     27  O   UNL     1      -6.806  -2.225  -4.586  0.00  0.00    -0.451 OA
BRANCH  27  29
ATOM     28  C   UNL     1      -7.511  -2.546  -6.895  0.00  0.00    +0.048 C 
ATOM     29  C   UNL     1      -7.909  -2.030  -5.511  0.00  0.00    +0.230 C 
ENDBRANCH  27  29
ENDBRANCH  19  27
ENDBRANCH  15  24
ENDBRANCH   1  16
BRANCH   4  30
ATOM     30  C   UNL     1       3.843  -0.816   1.523  0.00  0.00    +0.418 C 
ATOM     31  F   UNL     1       4.225  -1.274   0.258  0.00  0.00    -0.166 F 
ATOM     32  F   UNL     1       4.972  -0.709   2.341  0.00  0.00    -0.166 F 
ATOM     33  F   UNL     1       2.939  -1.720   2.093  0.00  0.00    -0.166 F 
ENDBRANCH   4  30
BRANCH   2  34
ATOM     34  N   UNL     1       1.307  -1.761   0.662  0.00  0.00    -0.356 N 
ATOM     35  H   UNL     1       0.682  -2.441   0.955  0.00  0.00    +0.142 HD
ATOM     36  H   UNL     1       2.207  -2.010   0.400  0.00  0.00    +0.142 HD
ENDBRANCH   2  34
TORSDOF 6
