REMARK  Name = ZINC35310544
REMARK  3 active torsions:
REMARK  status: ('A' for Active; 'I' for Inactive)
REMARK    1  A    between atoms: C_5  and  C_7
REMARK    2  A    between atoms: C_7  and  N_8
REMARK    3  A    between atoms: C_9  and  C_11
REMARK                            x       y       z     vdW  Elec       q    Type
REMARK                         _______ _______ _______ _____ _____    ______ ____
ROOT
ATOM      1  C   UNL     1       1.819  -4.511   2.961  0.00  0.00    +0.076 C 
ATOM      2  C   UNL     1       3.274  -4.184   3.395  0.00  0.00    -0.003 C 
ATOM      3  C   UNL     1       3.555  -5.303   4.427  0.00  0.00    -0.066 C 
ATOM      4  C   UNL     1       5.064  -5.597   4.454  0.00  0.00    -0.017 C 
ATOM      5  C   UNL     1       5.207  -7.036   3.908  0.00  0.00    -0.020 C 
ATOM      6  C   UNL     1       3.912  -7.222   3.080  0.00  0.00    -0.077 C 
ATOM      7  N   UNL     1       2.866  -6.504   3.884  0.00  0.00    +0.394 N 
ATOM      8  C   UNL     1       1.784  -6.047   2.998  0.00  0.00    +0.052 C 
ATOM      9  C   UNL     1       0.442  -6.541   3.466  0.00  0.00    -0.027 A 
ATOM     10  C   UNL     1      -0.273  -6.372   4.631  0.00  0.00    +0.004 A 
ATOM     11  C   UNL     1      -1.514  -6.967   4.774  0.00  0.00    +0.000 A 
ATOM     12  C   UNL     1      -2.033  -7.731   3.744  0.00  0.00    +0.002 A 
ATOM     13  C   UNL     1      -1.320  -7.902   2.576  0.00  0.00    +0.023 A 
ATOM     14  C   UNL     1      -0.070  -7.306   2.424  0.00  0.00    +0.036 A 
ATOM     15  N   UNL     1       0.828  -7.330   1.355  0.00  0.00    -0.286 N 
ATOM     16  C   UNL     1       1.940  -6.616   1.611  0.00  0.00    +0.212 C 
ATOM     17  O   UNL     1       2.886  -6.461   0.868  0.00  0.00    -0.277 OA
ATOM     18  H   UNL     1       0.669  -7.806   0.525  0.00  0.00    +0.155 HD
ATOM     19  H   UNL     1       2.513  -7.085   4.630  0.00  0.00    -0.079 HD
ENDROOT
BRANCH   1  21
ATOM     20  N   UNL     1       0.284  -3.869   1.132  0.00  0.00    -0.311 N 
ATOM     21  C   UNL     1       1.552  -4.005   1.567  0.00  0.00    +0.216 C 
ATOM     22  O   UNL     1       2.478  -3.719   0.838  0.00  0.00    -0.276 OA
ATOM     23  H   UNL     1      -0.457  -4.097   1.715  0.00  0.00    +0.149 HD
BRANCH  20  24
ATOM     24  C   UNL     1       0.024  -3.376  -0.223  0.00  0.00    +0.141 C 
BRANCH  24  29
ATOM     25  C   UNL     1      -3.455  -4.272  -1.385  0.00  0.00    +0.000 A 
ATOM     26  C   UNL     1      -4.193  -3.210  -0.894  0.00  0.00    +0.001 A 
ATOM     27  C   UNL     1      -3.567  -2.202  -0.187  0.00  0.00    +0.020 A 
ATOM     28  C   UNL     1      -2.201  -2.255   0.031  0.00  0.00    +0.046 A 
ATOM     29  C   UNL     1      -1.464  -3.317  -0.460  0.00  0.00    -0.012 A 
ATOM     30  C   UNL     1      -2.091  -4.325  -1.168  0.00  0.00    +0.006 A 
ATOM     31 CL   UNL     1      -1.413  -0.988   0.919  0.00  0.00    -0.083 Cl
ENDBRANCH  24  29
ENDBRANCH  20  24
ENDBRANCH   1  21
TORSDOF 3
