REMARK  Name = ZINC03085088
REMARK  8 active torsions:
REMARK  status: ('A' for Active; 'I' for Inactive)
REMARK    1  A    between atoms: C_1  and  C_2
REMARK    2  A    between atoms: C_9  and  C_11
REMARK    3  A    between atoms: C_14  and  N_17
REMARK    4  A    between atoms: C_18  and  C_19
REMARK    5  A    between atoms: C_23  and  O_25
REMARK    6  A    between atoms: O_25  and  C_26
REMARK    7  A    between atoms: C_29  and  N_35
REMARK    8  A    between atoms: C_31  and  N_32
REMARK                            x       y       z     vdW  Elec       q    Type
REMARK                         _______ _______ _______ _____ _____    ______ ____
ROOT
ATOM      1  C   UNL     1       1.153   3.165   0.134  0.00  0.00    -0.003 A 
ATOM      2  C   UNL     1       1.165   1.768   0.188  0.00  0.00    +0.009 A 
ATOM      3  C   UNL     1      -0.024   1.069   0.194  0.00  0.00    +0.004 A 
ATOM      4  C   UNL     1      -1.230   1.746   0.141  0.00  0.00    +0.046 A 
ATOM      5  C   UNL     1      -1.252   3.133   0.092  0.00  0.00    +0.129 A 
ATOM      6  C   UNL     1      -0.066   3.846   0.086  0.00  0.00    +0.055 A 
ENDROOT
BRANCH   1   8
ATOM      7  N   UNL     1       3.556   3.277   0.172  0.00  0.00    -0.255 NA
ATOM      8  C   UNL     1       2.420   3.916   0.128  0.00  0.00    +0.119 C 
BRANCH   7  12
ATOM      9  C   UNL     1       7.114   5.383   0.153  0.00  0.00    +0.007 A 
ATOM     10  C   UNL     1       6.934   4.325   1.047  0.00  0.00    +0.012 A 
ATOM     11  C   UNL     1       5.754   3.627   1.054  0.00  0.00    +0.028 A 
ATOM     12  C   UNL     1       4.731   3.973   0.166  0.00  0.00    +0.064 A 
ATOM     13  C   UNL     1       4.914   5.029  -0.733  0.00  0.00    +0.028 A 
ATOM     14  C   UNL     1       6.092   5.730  -0.735  0.00  0.00    +0.012 A 
BRANCH   9  23
ATOM     15  C   UNL     1      12.193  10.485  -1.850  0.00  0.00    +0.044 C 
ATOM     16  C   UNL     1      11.696   9.322  -1.031  0.00  0.00    -0.048 A 
ATOM     17  C   UNL     1      12.525   8.774  -0.061  0.00  0.00    +0.004 A 
ATOM     18  C   UNL     1      12.072   7.707   0.693  0.00  0.00    +0.017 A 
ATOM     19  C   UNL     1      10.812   7.209   0.469  0.00  0.00    +0.040 A 
ATOM     20  C   UNL     1       9.944   7.745  -0.511  0.00  0.00    +0.079 A 
ATOM     21  C   UNL     1      10.447   8.836  -1.260  0.00  0.00    +0.032 A 
ATOM     22  N   UNL     1       8.742   7.147  -0.617  0.00  0.00    -0.239 NA
ATOM     23  C   UNL     1       8.386   6.136   0.145  0.00  0.00    +0.109 A 
ATOM     24  S   UNL     1       9.835   5.898   1.164  0.00  0.00    -0.067 S 
ENDBRANCH   9  23
ENDBRANCH   7  12
ENDBRANCH   1   8
BRANCH   5  25
ATOM     25  O   UNL     1      -2.441   3.792   0.046  0.00  0.00    -0.454 OA
BRANCH  25  26
ATOM     26  C   UNL     1      -3.576   3.052  -0.052  0.00  0.00    +0.159 A 
ATOM     27  C   UNL     1      -4.118   2.772  -1.298  0.00  0.00    +0.051 A 
ATOM     28  C   UNL     1      -5.272   2.019  -1.395  0.00  0.00    +0.036 A 
ATOM     29  C   UNL     1      -5.888   1.545  -0.251  0.00  0.00    +0.129 A 
ATOM     30  C   UNL     1      -5.350   1.823   0.992  0.00  0.00    +0.069 A 
ATOM     31  C   UNL     1      -4.193   2.571   1.094  0.00  0.00    +0.170 A 
BRANCH  31  32
ATOM     32  N   UNL     1      -3.614   2.862   2.425  0.00  0.00    +0.060 N 
ATOM     33  O   UNL     1      -4.156   2.440   3.430  0.00  0.00    -0.126 OA
ATOM     34  O   UNL     1      -2.596   3.525   2.514  0.00  0.00    -0.126 OA
ENDBRANCH  31  32
BRANCH  29  35
ATOM     35  N   UNL     1      -7.124   0.738  -0.357  0.00  0.00    +0.057 N 
ATOM     36  O   UNL     1      -7.598   0.492  -1.452  0.00  0.00    -0.126 OA
ATOM     37  O   UNL     1      -7.667   0.320   0.649  0.00  0.00    -0.126 OA
ENDBRANCH  29  35
ENDBRANCH  25  26
ENDBRANCH   5  25
TORSDOF 7
