REMARK  Name = ZINC05387584
REMARK  3 active torsions:
REMARK  status: ('A' for Active; 'I' for Inactive)
REMARK    1  A    between atoms: C_4  and  C_7
REMARK    2  A    between atoms: C_8  and  C_23
REMARK    3  A    between atoms: N_24  and  C_25
REMARK                            x       y       z     vdW  Elec       q    Type
REMARK                         _______ _______ _______ _____ _____    ______ ____
ROOT
ATOM      1  C   UNL     1       3.693  -0.681  -0.035  0.00  0.00    +0.077 A 
ATOM      2  C   UNL     1       3.865  -2.063   0.045  0.00  0.00    +0.082 A 
ATOM      3  C   UNL     1       5.311  -2.307  -0.015  0.00  0.00    +0.283 A 
ATOM      4  O   UNL     1       5.865  -3.390   0.025  0.00  0.00    -0.265 OA
ATOM      5  N   UNL     1       5.910  -1.105  -0.125  0.00  0.00    -0.194 N 
ATOM      6  N   UNL     1       4.929  -0.109  -0.143  0.00  0.00    -0.287 N 
ATOM      7  H   UNL     1       5.099   0.843  -0.218  0.00  0.00    +0.188 HD
ATOM      8  C   UNL     1       7.274  -0.890  -0.210  0.00  0.00    +0.196 A 
ATOM      9  N   UNL     1       7.925   0.246  -0.312  0.00  0.00    -0.221 NA
ATOM     10  C   UNL     1       9.272   0.306  -0.388  0.00  0.00    +0.081 A 
ATOM     11  C   UNL     1      10.089   1.455  -0.499  0.00  0.00    +0.029 A 
ATOM     12  C   UNL     1      11.453   1.340  -0.566  0.00  0.00    +0.002 A 
ATOM     13  C   UNL     1      12.079   0.102  -0.528  0.00  0.00    +0.001 A 
ATOM     14  C   UNL     1      11.311  -1.042  -0.419  0.00  0.00    +0.017 A 
ATOM     15  C   UNL     1       9.944  -0.937  -0.351  0.00  0.00    +0.041 A 
ATOM     16  S   UNL     1       8.600  -2.089  -0.203  0.00  0.00    -0.048 S 
ENDROOT
BRANCH   1  20
ATOM     17  C   UNL     1      -0.015   1.381   0.025  0.00  0.00    +0.000 A 
ATOM     18  C   UNL     1       1.029   1.820   0.820  0.00  0.00    +0.001 A 
ATOM     19  C   UNL     1       2.237   1.155   0.806  0.00  0.00    +0.010 A 
ATOM     20  C   UNL     1       2.405   0.035  -0.014  0.00  0.00    +0.000 A 
ATOM     21  C   UNL     1       1.345  -0.402  -0.814  0.00  0.00    +0.010 A 
ATOM     22  C   UNL     1       0.143   0.274  -0.790  0.00  0.00    +0.001 A 
ENDBRANCH   1  20
BRANCH   2  23
ATOM     23  C   UNL     1       2.810  -3.073   0.166  0.00  0.00    +0.094 C 
ATOM     24  N   UNL     1       3.123  -4.322   0.332  0.00  0.00    -0.387 N 
ATOM     25  H   UNL     1       4.055  -4.587   0.376  0.00  0.00    +0.159 HD
BRANCH  24  26
ATOM     26  C   UNL     1       2.067  -5.332   0.453  0.00  0.00    +0.079 C 
ATOM     27  C   UNL     1       2.220  -6.099   1.783  0.00  0.00    +0.024 C 
ATOM     28  C   UNL     1       1.829  -7.555   1.428  0.00  0.00    +0.002 C 
ATOM     29  C   UNL     1       2.431  -7.735   0.012  0.00  0.00    +0.002 C 
ATOM     30  C   UNL     1       2.202  -6.372  -0.673  0.00  0.00    +0.024 C 
ENDBRANCH  24  26
ENDBRANCH   2  23
TORSDOF 3
