REMARK  Name = ZINC49192939
REMARK  11 active torsions:
REMARK  status: ('A' for Active; 'I' for Inactive)
REMARK    1  A    between atoms: C_1  and  C_2
REMARK    2  A    between atoms: C_2  and  C_3
REMARK    3  A    between atoms: C_2  and  C_4
REMARK    4  A    between atoms: C_4  and  C_6
REMARK    5  A    between atoms: C_4  and  N_10
REMARK    6  A    between atoms: C_6  and  N_7
REMARK    7  A    between atoms: N_7  and  C_8
REMARK    8  A    between atoms: N_7  and  C_9
REMARK    9  A    between atoms: N_10  and  S_11
REMARK   10  A    between atoms: S_11  and  C_14
REMARK   11  A    between atoms: C_17  and  N_21
REMARK                            x       y       z     vdW  Elec       q    Type
REMARK                         _______ _______ _______ _____ _____    ______ ____
ROOT
ATOM      1  S   UNL     1      -2.932  -0.182   2.642  0.00  0.00    +0.060 S 
ATOM      2  O   UNL     1      -1.795  -0.692   3.327  0.00  0.00    -0.153 OA
ATOM      3  O   UNL     1      -3.733   0.866   3.171  0.00  0.00    -0.153 OA
ENDROOT
BRANCH   1   4
ATOM      4  C   UNL     1      -4.009  -1.549   2.367  0.00  0.00    +0.119 A 
ATOM      5  C   UNL     1      -3.644  -2.812   2.797  0.00  0.00    +0.031 A 
ATOM      6  C   UNL     1      -4.486  -3.886   2.582  0.00  0.00    +0.025 A 
ATOM      7  C   UNL     1      -5.700  -3.697   1.934  0.00  0.00    +0.026 A 
ATOM      8  C   UNL     1      -6.064  -2.427   1.503  0.00  0.00    +0.040 A 
ATOM      9  C   UNL     1      -5.219  -1.356   1.726  0.00  0.00    +0.046 A 
ATOM     10 BR   UNL     1      -5.716   0.374   1.147  0.00  0.00    -0.048 Br
BRANCH   7  11
ATOM     11  N   UNL     1      -6.553  -4.781   1.715  0.00  0.00    -0.358 N 
ATOM     12  H   UNL     1      -6.298  -5.667   2.016  0.00  0.00    +0.142 HD
ATOM     13  H   UNL     1      -7.400  -4.648   1.262  0.00  0.00    +0.142 HD
ENDBRANCH   7  11
ENDBRANCH   1   4
BRANCH   1  14
ATOM     14  N   UNL     1      -2.401   0.330   1.159  0.00  0.00    -0.188 NA
ATOM     15  H   UNL     1      -2.670   1.198   0.821  0.00  0.00    +0.148 HD
BRANCH  14  16
ATOM     16  C   UNL     1      -1.524  -0.529   0.359  0.00  0.00    +0.063 C 
BRANCH  16  18
ATOM     17  C   UNL     1      -0.043   1.455   0.027  0.00  0.00    +0.009 C 
ATOM     18  C   UNL     1      -0.086  -0.015   0.449  0.00  0.00    -0.000 C 
ATOM     19  C   UNL     1       0.414  -0.148   1.888  0.00  0.00    +0.009 C 
ENDBRANCH  16  18
BRANCH  16  20
ATOM     20  C   UNL     1      -1.984  -0.507  -1.100  0.00  0.00    -0.059 C 
BRANCH  20  21
ATOM     21  N   UNL     1      -3.372  -0.982  -1.184  0.00  0.00    +0.377 N 
ATOM     22  C   UNL     1      -3.869  -0.803  -2.555  0.00  0.00    -0.097 C 
ATOM     23  C   UNL     1      -3.425  -2.405  -0.826  0.00  0.00    -0.097 C 
ATOM     24  H   UNL     1      -3.947  -0.453  -0.546  0.00  0.00    -0.083 HD
ENDBRANCH  20  21
ENDBRANCH  16  20
ENDBRANCH  14  16
ENDBRANCH   1  14
TORSDOF 7
