REMARK  Name = ZINC39140853
REMARK  9 active torsions:
REMARK  status: ('A' for Active; 'I' for Inactive)
REMARK    1  A    between atoms: C_1  and  C_2
REMARK    2  A    between atoms: C_4  and  C_16
REMARK    3  A    between atoms: C_6  and  C_14
REMARK    4  A    between atoms: C_7  and  N_13
REMARK    5  A    between atoms: C_19  and  C_21
REMARK    6  A    between atoms: C_21  and  O_22
REMARK    7  A    between atoms: O_22  and  C_23
REMARK    8  A    between atoms: C_26  and  O_29
REMARK    9  A    between atoms: O_29  and  C_30
REMARK                            x       y       z     vdW  Elec       q    Type
REMARK                         _______ _______ _______ _____ _____    ______ ____
ROOT
ATOM      1  C   UNL     1      -0.018   1.503   0.010  0.00  0.00    +0.067 C 
ATOM      2  C   UNL     1       0.002  -0.004   0.002  0.00  0.00    +0.066 C 
ATOM      3  C   UNL     1      -1.064  -0.768   0.003  0.00  0.00    +0.033 C 
ATOM      4  C   UNL     1      -2.537  -0.492  -0.122  0.00  0.00    +0.133 C 
ATOM      5  C   UNL     1      -3.075  -1.565  -1.050  0.00  0.00    +0.100 C 
ATOM      6  C   UNL     1      -2.317  -2.612  -1.438  0.00  0.00    +0.195 C 
ATOM      7  O   UNL     1      -1.033  -2.841  -1.107  0.00  0.00    -0.448 OA
ATOM      8  C   UNL     1      -0.528  -2.199   0.066  0.00  0.00    +0.343 C 
ATOM      9  N   UNL     1       0.921  -1.985   0.002  0.00  0.00    -0.138 NA
ATOM     10  N   UNL     1       1.127  -0.765  -0.013  0.00  0.00    -0.155 NA
ENDROOT
BRANCH   4  11
ATOM     11  C   UNL     1      -3.201  -0.585   1.227  0.00  0.00    +0.118 A 
ATOM     12  C   UNL     1      -3.873   0.405   1.843  0.00  0.00    +0.046 A 
ATOM     13  C   UNL     1      -4.325  -0.115   3.078  0.00  0.00    +0.048 A 
ATOM     14  C   UNL     1      -3.903  -1.390   3.143  0.00  0.00    +0.142 A 
ATOM     15  O   UNL     1      -3.228  -1.671   2.016  0.00  0.00    -0.460 OA
BRANCH  14  16
ATOM     16  C   UNL     1      -4.151  -2.344   4.283  0.00  0.00    +0.303 C 
BRANCH  16  17
ATOM     17  O   UNL     1      -5.370  -3.053   4.055  0.00  0.00    -0.484 OA
BRANCH  17  18
ATOM     18  C   UNL     1      -5.742  -3.960   4.997  0.00  0.00    +0.121 A 
ATOM     19  C   UNL     1      -4.952  -4.157   6.120  0.00  0.00    +0.049 A 
ATOM     20  C   UNL     1      -5.331  -5.079   7.077  0.00  0.00    +0.049 A 
ATOM     21  C   UNL     1      -6.501  -5.806   6.915  0.00  0.00    +0.120 A 
ATOM     22  C   UNL     1      -7.291  -5.607   5.793  0.00  0.00    +0.049 A 
ATOM     23  C   UNL     1      -6.915  -4.683   4.838  0.00  0.00    +0.049 A 
BRANCH  21  24
ATOM     24  O   UNL     1      -6.873  -6.713   7.857  0.00  0.00    -0.495 OA
ATOM     25  C   UNL     1      -8.089  -7.426   7.626  0.00  0.00    +0.277 C 
ENDBRANCH  21  24
ENDBRANCH  17  18
ENDBRANCH  16  17
ENDBRANCH  14  16
ENDBRANCH   4  11
BRANCH   6  26
ATOM     26  N   UNL     1      -2.917  -3.538  -2.254  0.00  0.00    -0.329 N 
ATOM     27  H   UNL     1      -3.842  -3.421  -2.523  0.00  0.00    +0.145 HD
ATOM     28  H   UNL     1      -2.417  -4.310  -2.562  0.00  0.00    +0.145 HD
ENDBRANCH   6  26
BRANCH   5  29
ATOM     29  C   UNL     1      -4.422  -1.466  -1.525  0.00  0.00    +0.101 C 
ATOM     30  N   UNL     1      -5.491  -1.387  -1.903  0.00  0.00    -0.191 NA
ENDBRANCH   5  29
TORSDOF 7
