REMARK  Name = ZINC05027151
REMARK  5 active torsions:
REMARK  status: ('A' for Active; 'I' for Inactive)
REMARK    1  A    between atoms: C_1  and  C_2
REMARK    2  A    between atoms: C_2  and  C_4
REMARK    3  A    between atoms: C_2  and  S_14
REMARK    4  A    between atoms: N_6  and  C_7
REMARK    5  A    between atoms: S_14  and  C_15
REMARK                            x       y       z     vdW  Elec       q    Type
REMARK                         _______ _______ _______ _____ _____    ______ ____
ROOT
ATOM      1  C   UNL     1      -0.008   1.520   0.019  0.00  0.00    +0.029 C 
ATOM      2  C   UNL     1       0.004  -0.010   0.003  0.00  0.00    +0.137 C 
ENDROOT
BRANCH   2   3
ATOM      3  C   UNL     1      -1.412  -0.524   0.013  0.00  0.00    +0.230 C 
ATOM      4  O   UNL     1      -1.931  -0.892  -1.020  0.00  0.00    -0.274 OA
ATOM      5  N   UNL     1      -2.103  -0.575   1.169  0.00  0.00    -0.285 N 
ATOM      6  H   UNL     1      -1.668  -0.345   2.004  0.00  0.00    +0.155 HD
BRANCH   5   7
ATOM      7  C   UNL     1      -3.449  -0.960   1.163  0.00  0.00    +0.034 A 
ATOM      8  C   UNL     1      -4.343  -0.375   2.050  0.00  0.00    +0.026 A 
ATOM      9  C   UNL     1      -5.671  -0.756   2.043  0.00  0.00    +0.040 A 
ATOM     10  C   UNL     1      -6.110  -1.722   1.153  0.00  0.00    +0.124 A 
ATOM     11  C   UNL     1      -5.220  -2.307   0.269  0.00  0.00    +0.040 A 
ATOM     12  C   UNL     1      -3.893  -1.924   0.268  0.00  0.00    +0.026 A 
ATOM     13  F   UNL     1      -7.409  -2.094   1.149  0.00  0.00    -0.205 F 
ENDBRANCH   5   7
ENDBRANCH   2   3
BRANCH   2  14
ATOM     14  S   UNL     1       0.849  -0.593  -1.492  0.00  0.00    -0.075 S 
BRANCH  14  15
ATOM     15  C   UNL     1       2.510  -0.043  -1.286  0.00  0.00    +0.170 A 
ATOM     16  N   UNL     1       3.417  -0.325  -2.267  0.00  0.00    -0.301 N 
ATOM     17  H   UNL     1       3.137  -0.819  -3.054  0.00  0.00    +0.171 HD
ATOM     18  C   UNL     1       4.703   0.078  -2.150  0.00  0.00    +0.260 A 
ATOM     19  O   UNL     1       5.523  -0.165  -3.016  0.00  0.00    -0.267 OA
ATOM     20  C   UNL     1       5.073   0.822  -0.938  0.00  0.00    +0.065 A 
ATOM     21  C   UNL     1       6.372   1.282  -0.723  0.00  0.00    +0.015 A 
ATOM     22  C   UNL     1       6.662   1.970   0.422  0.00  0.00    +0.001 A 
ATOM     23  C   UNL     1       5.678   2.215   1.372  0.00  0.00    +0.002 A 
ATOM     24  C   UNL     1       4.397   1.776   1.187  0.00  0.00    +0.028 A 
ATOM     25  C   UNL     1       4.069   1.070   0.026  0.00  0.00    +0.079 A 
ATOM     26  N   UNL     1       2.817   0.623  -0.200  0.00  0.00    -0.223 NA
ENDBRANCH  14  15
ENDBRANCH   2  14
TORSDOF 4
