REMARK  Name = ZINC18179209
REMARK  8 active torsions:
REMARK  status: ('A' for Active; 'I' for Inactive)
REMARK    1  A    between atoms: C_1  and  C_2
REMARK    2  A    between atoms: C_2  and  O_3
REMARK    3  A    between atoms: O_3  and  C_4
REMARK    4  A    between atoms: C_4  and  C_6
REMARK    5  A    between atoms: C_10  and  N_11
REMARK    6  A    between atoms: C_12  and  C_14
REMARK    7  A    between atoms: C_15  and  C_33
REMARK    8  A    between atoms: C_19  and  C_21
REMARK                            x       y       z     vdW  Elec       q    Type
REMARK                         _______ _______ _______ _____ _____    ______ ____
ROOT
ATOM      1  C   UNL     1      -0.034   1.701   2.397  0.00  0.00    +0.043 C 
ATOM      2  C   UNL     1      -0.721   1.560   1.251  0.00  0.00    +0.014 C 
ATOM      3  N   UNL     1      -2.052   1.871   1.197  0.00  0.00    -0.321 N 
ATOM      4  C   UNL     1      -2.621   2.673   2.147  0.00  0.00    +0.015 C 
ATOM      5  C   UNL     1      -2.011   2.867   3.336  0.00  0.00    +0.024 C 
ATOM      6  C   UNL     1      -0.701   2.189   3.649  0.00  0.00    +0.090 C 
ATOM      7  C   UNL     1      -2.576   3.705   4.313  0.00  0.00    +0.162 C 
ATOM      8  O   UNL     1      -2.005   3.853   5.375  0.00  0.00    -0.292 OA
ATOM      9  C   UNL     1      -3.876   4.423   4.067  0.00  0.00    +0.080 C 
ATOM     10  C   UNL     1      -4.030   4.675   2.564  0.00  0.00    +0.014 C 
ATOM     11  C   UNL     1      -3.941   3.333   1.834  0.00  0.00    +0.051 C 
ATOM     12  C   UNL     1      -0.019   1.060   0.015  0.00  0.00    +0.061 C 
ATOM     13  H   UNL     1      -2.677   1.475   0.384  0.00  0.00    +0.152 HD
ENDROOT
BRANCH   6  14
ATOM     14  C   UNL     1      -0.958   1.018   4.562  0.00  0.00    -0.035 A 
ATOM     15  C   UNL     1      -1.762  -0.024   4.139  0.00  0.00    +0.007 A 
ATOM     16  C   UNL     1      -1.994  -1.101   4.973  0.00  0.00    +0.038 A 
ATOM     17  C   UNL     1      -1.429  -1.132   6.237  0.00  0.00    +0.123 A 
ATOM     18  C   UNL     1      -0.628  -0.086   6.661  0.00  0.00    +0.038 A 
ATOM     19  C   UNL     1      -0.393   0.988   5.823  0.00  0.00    +0.007 A 
ATOM     20  F   UNL     1      -1.660  -2.182   7.055  0.00  0.00    -0.205 F 
ENDBRANCH   6  14
BRANCH   1  22
ATOM     21  N   UNL     1       2.021   1.413   3.589  0.00  0.00    -0.275 N 
ATOM     22  C   UNL     1       1.346   1.385   2.423  0.00  0.00    +0.247 C 
ATOM     23  O   UNL     1       1.922   1.087   1.393  0.00  0.00    -0.270 OA
ATOM     24  H   UNL     1       1.501   1.681   4.520  0.00  0.00    +0.156 HD
BRANCH  21  29
ATOM     25  C   UNL     1       4.230   1.077   4.707  0.00  0.00    +0.091 A 
ATOM     26  C   UNL     1       5.616   0.715   4.461  0.00  0.00    -0.021 A 
ATOM     27  C   UNL     1       5.919   0.440   3.174  0.00  0.00    -0.004 A 
ATOM     28  S   UNL     1       4.396   0.647   2.295  0.00  0.00    -0.077 S 
ATOM     29  C   UNL     1       3.371   1.103   3.615  0.00  0.00    +0.087 A 
ATOM     30  C   UNL     1       7.255   0.042   2.626  0.00  0.00    +0.043 C 
ATOM     31  C   UNL     1       8.324   0.354   3.683  0.00  0.00    +0.005 C 
ATOM     32  C   UNL     1       7.855  -0.191   5.035  0.00  0.00    +0.005 C 
ATOM     33  C   UNL     1       6.678   0.640   5.551  0.00  0.00    +0.037 C 
BRANCH  25  34
ATOM     34  C   UNL     1       3.757   1.401   6.053  0.00  0.00    +0.342 C 
ATOM     35  O   UNL     1       3.324   0.521   6.774  0.00  0.00    -0.245 OA
BRANCH  34  36
ATOM     36  O   UNL     1       3.801   2.674   6.496  0.00  0.00    -0.461 OA
BRANCH  36  38
ATOM     37  C   UNL     1       3.443   4.412   8.164  0.00  0.00    +0.048 C 
ATOM     38  C   UNL     1       3.315   2.922   7.841  0.00  0.00    +0.229 C 
ENDBRANCH  36  38
ENDBRANCH  34  36
ENDBRANCH  25  34
ENDBRANCH  21  29
ENDBRANCH   1  22
TORSDOF 6
