REMARK  Name = ZINC39446558
REMARK  4 active torsions:
REMARK  status: ('A' for Active; 'I' for Inactive)
REMARK    1  A    between atoms: C_1  and  N_2
REMARK    2  A    between atoms: C_3  and  S_8
REMARK    3  A    between atoms: S_8  and  C_9
REMARK    4  A    between atoms: C_11  and  C_21
REMARK                            x       y       z     vdW  Elec       q    Type
REMARK                         _______ _______ _______ _____ _____    ______ ____
ROOT
ATOM      1  C   UNL     1      -1.194  -0.990   2.889  0.00  0.00    +0.167 C 
ATOM      2  C   UNL     1      -1.889  -0.613   4.183  0.00  0.00    -0.010 C 
ATOM      3  C   UNL     1      -1.945  -1.591   5.181  0.00  0.00    +0.001 A 
ATOM      4  C   UNL     1      -2.573  -1.325   6.416  0.00  0.00    +0.010 A 
ATOM      5  C   UNL     1      -2.614  -2.294   7.369  0.00  0.00    +0.001 A 
ATOM      6  C   UNL     1      -2.048  -3.548   7.152  0.00  0.00    +0.002 A 
ATOM      7  C   UNL     1      -1.429  -3.864   5.981  0.00  0.00    +0.024 A 
ATOM      8  C   UNL     1      -1.348  -2.911   4.950  0.00  0.00    +0.041 A 
ATOM      9  N   UNL     1      -0.740  -3.223   3.801  0.00  0.00    -0.284 N 
ATOM     10  C   UNL     1      -0.625  -2.387   2.788  0.00  0.00    +0.235 C 
ATOM     11  O   UNL     1      -0.058  -2.740   1.771  0.00  0.00    -0.274 OA
ATOM     12  H   UNL     1      -0.363  -4.112   3.708  0.00  0.00    +0.155 HD
ENDROOT
BRANCH   2  13
ATOM     13  C   UNL     1      -2.455   0.672   4.373  0.00  0.00    -0.020 A 
ATOM     14  C   UNL     1      -3.829   0.808   4.635  0.00  0.00    +0.008 A 
ATOM     15  C   UNL     1      -4.369   2.062   4.817  0.00  0.00    +0.001 A 
ATOM     16  C   UNL     1      -3.563   3.186   4.743  0.00  0.00    +0.000 A 
ATOM     17  C   UNL     1      -2.207   3.063   4.486  0.00  0.00    +0.001 A 
ATOM     18  C   UNL     1      -1.646   1.818   4.306  0.00  0.00    +0.008 A 
ENDBRANCH   2  13
BRANCH   1  19
ATOM     19  S   UNL     1      -2.384  -0.776   1.536  0.00  0.00    -0.099 S 
BRANCH  19  22
ATOM     20  C   UNL     1      -2.233  -3.876   0.225  0.00  0.00    +0.156 C 
ATOM     21  N   UNL     1      -2.858  -3.447   1.478  0.00  0.00    -0.208 N 
ATOM     22  C   UNL     1      -3.535  -2.163   1.740  0.00  0.00    +0.255 C 
ATOM     23  N   UNL     1      -3.957  -2.293   3.147  0.00  0.00    -0.218 N 
ATOM     24  N   UNL     1      -3.520  -3.557   3.562  0.00  0.00    -0.063 NA
ATOM     25  N   UNL     1      -2.939  -4.173   2.672  0.00  0.00    -0.061 NA
ATOM     26  H   UNL     1      -4.437  -1.638   3.677  0.00  0.00    +0.173 HD
ENDBRANCH  19  22
ENDBRANCH   1  19
TORSDOF 3
