REMARK  Name = ZINC39669639
REMARK  7 active torsions:
REMARK  status: ('A' for Active; 'I' for Inactive)
REMARK    1  A    between atoms: C_1  and  C_2
REMARK    2  A    between atoms: C_2  and  C_3
REMARK    3  A    between atoms: C_2  and  C_4
REMARK    4  A    between atoms: C_2  and  N_29
REMARK    5  A    between atoms: C_4  and  N_5
REMARK    6  A    between atoms: C_6  and  C_8
REMARK    7  A    between atoms: C_19  and  C_21
REMARK                            x       y       z     vdW  Elec       q    Type
REMARK                         _______ _______ _______ _____ _____    ______ ____
ROOT
ATOM      1  C   UNL     1      -2.597  -4.571   0.749  0.00  0.00    +0.100 C 
ATOM      2  C   UNL     1      -1.873  -4.675   2.110  0.00  0.00    +0.121 C 
ATOM      3  N   UNL     1      -2.958  -4.613   3.118  0.00  0.00    -0.296 N 
ATOM      4  C   UNL     1      -4.056  -5.414   2.526  0.00  0.00    +0.115 C 
ATOM      5  C   UNL     1      -4.029  -5.061   1.026  0.00  0.00    -0.004 C 
ATOM      6  C   UNL     1      -4.336  -6.297   0.186  0.00  0.00    -0.010 C 
ATOM      7  C   UNL     1      -5.783  -6.730   0.434  0.00  0.00    -0.082 C 
ATOM      8  N   UNL     1      -6.692  -5.634   0.078  0.00  0.00    +0.379 N 
ATOM      9  C   UNL     1      -6.452  -4.481   0.954  0.00  0.00    -0.082 C 
ATOM     10  C   UNL     1      -5.033  -3.952   0.727  0.00  0.00    -0.010 C 
ATOM     11  C   UNL     1      -2.948  -3.974   4.304  0.00  0.00    +0.247 C 
ATOM     12  O   UNL     1      -2.018  -3.247   4.595  0.00  0.00    -0.270 OA
ATOM     13  H   UNL     1      -6.533  -5.365  -0.881  0.00  0.00    -0.086 HD
ATOM     14  H   UNL     1      -7.647  -5.943   0.184  0.00  0.00    -0.086 HD
ENDROOT
BRANCH  11  15
ATOM     15  C   UNL     1      -4.068  -4.157   5.252  0.00  0.00    +0.040 A 
ATOM     16  C   UNL     1      -4.903  -5.269   5.143  0.00  0.00    +0.033 A 
ATOM     17  C   UNL     1      -5.948  -5.434   6.030  0.00  0.00    +0.043 A 
ATOM     18  C   UNL     1      -6.167  -4.499   7.027  0.00  0.00    +0.040 A 
ATOM     19  C   UNL     1      -5.342  -3.393   7.140  0.00  0.00    +0.043 A 
ATOM     20  C   UNL     1      -4.291  -3.220   6.262  0.00  0.00    +0.033 A 
ATOM     21 CL   UNL     1      -5.626  -2.224   8.393  0.00  0.00    -0.083 Cl
ATOM     22 CL   UNL     1      -6.989  -6.817   5.896  0.00  0.00    -0.083 Cl
ENDBRANCH  11  15
BRANCH   1  24
ATOM     23  N   UNL     1      -2.628  -2.873  -1.049  0.00  0.00    -0.313 N 
ATOM     24  C   UNL     1      -2.615  -3.142   0.272  0.00  0.00    +0.218 C 
ATOM     25  O   UNL     1      -2.617  -2.234   1.076  0.00  0.00    -0.275 OA
ATOM     26  H   UNL     1      -2.626  -3.599  -1.692  0.00  0.00    +0.149 HD
BRANCH  23  27
ATOM     27  C   UNL     1      -2.644  -1.484  -1.513  0.00  0.00    +0.126 C 
BRANCH  27  29
ATOM     28  C   UNL     1      -2.929  -0.010  -3.511  0.00  0.00    +0.029 C 
ATOM     29  C   UNL     1      -2.775  -1.457  -3.037  0.00  0.00    +0.032 C 
ATOM     30  C   UNL     1      -1.522  -2.069  -3.667  0.00  0.00    +0.029 C 
BRANCH  29  31
ATOM     31  N   UNL     1      -3.955  -2.232  -3.442  0.00  0.00    -0.291 NA
ATOM     32  C   UNL     1      -4.039  -2.338  -4.906  0.00  0.00    +0.113 C 
ATOM     33  C   UNL     1      -5.246  -3.202  -5.281  0.00  0.00    +0.175 C 
ATOM     34  O   UNL     1      -6.428  -2.635  -4.709  0.00  0.00    -0.377 OA
ATOM     35  C   UNL     1      -6.380  -2.518  -3.285  0.00  0.00    +0.175 C 
ATOM     36  C   UNL     1      -5.185  -1.647  -2.890  0.00  0.00    +0.113 C 
ENDBRANCH  29  31
ENDBRANCH  27  29
ENDBRANCH  23  27
ENDBRANCH   1  24
TORSDOF 5
