REMARK  Name = ZINC63708237
REMARK  11 active torsions:
REMARK  status: ('A' for Active; 'I' for Inactive)
REMARK    1  A    between atoms: C_1  and  C_2
REMARK    2  A    between atoms: C_2  and  C_3
REMARK    3  A    between atoms: C_3  and  C_5
REMARK    4  A    between atoms: C_3  and  S_14
REMARK    5  A    between atoms: N_7  and  C_8
REMARK    6  A    between atoms: S_14  and  C_15
REMARK    7  A    between atoms: C_27  and  C_29
REMARK    8  A    between atoms: C_29  and  C_30
REMARK    9  A    between atoms: C_30  and  C_31
REMARK   10  A    between atoms: C_32  and  C_38
REMARK   11  A    between atoms: C_35  and  C_37
REMARK                            x       y       z     vdW  Elec       q    Type
REMARK                         _______ _______ _______ _____ _____    ______ ____
ROOT
ATOM      1  C   UNL     1      -2.178   1.883   0.959  0.00  0.00    +0.249 C 
ATOM      2  N   UNL     1      -2.675   1.226   2.174  0.00  0.00    -0.356 N 
ATOM      3  C   UNL     1      -1.873   1.093   3.221  0.00  0.00    +0.048 A 
ATOM      4  C   UNL     1      -2.330   0.464   4.400  0.00  0.00    +0.026 A 
ATOM      5  C   UNL     1      -1.491   0.338   5.463  0.00  0.00    +0.002 A 
ATOM      6  C   UNL     1      -0.184   0.815   5.421  0.00  0.00    +0.001 A 
ATOM      7  C   UNL     1       0.317   1.431   4.315  0.00  0.00    +0.013 A 
ATOM      8  C   UNL     1      -0.496   1.595   3.180  0.00  0.00    +0.038 A 
ATOM      9  C   UNL     1       0.005   2.229   2.026  0.00  0.00    +0.128 C 
ATOM     10  N   UNL     1      -0.802   2.379   0.929  0.00  0.00    -0.204 N 
ATOM     11  N   UNL     1      -0.033   3.035  -0.040  0.00  0.00    -0.249 N 
ATOM     12  C   UNL     1       1.183   3.244   0.512  0.00  0.00    +0.090 C 
ATOM     13  N   UNL     1       1.194   2.765   1.729  0.00  0.00    -0.332 N 
ATOM     14  H   UNL     1      -0.316   3.288  -0.932  0.00  0.00    +0.171 HD
ATOM     15  H   UNL     1      -3.585   0.891   2.210  0.00  0.00    +0.162 HD
ATOM     16  H   UNL     1       1.955   2.795   2.330  0.00  0.00    +0.168 HD
ENDROOT
BRANCH   1  17
ATOM     17  S   UNL     1      -2.363   0.709  -0.411  0.00  0.00    -0.103 S 
BRANCH  17  18
ATOM     18  C   UNL     1      -1.459  -0.762   0.146  0.00  0.00    +0.135 C 
BRANCH  18  19
ATOM     19  C   UNL     1      -0.006  -0.415   0.341  0.00  0.00    +0.226 C 
ATOM     20  O   UNL     1       0.453   0.584  -0.172  0.00  0.00    -0.275 OA
ATOM     21  N   UNL     1       0.784  -1.215   1.084  0.00  0.00    -0.312 N 
ATOM     22  H   UNL     1       0.417  -2.014   1.494  0.00  0.00    +0.149 HD
BRANCH  21  23
ATOM     23  C   UNL     1       2.197  -0.877   1.273  0.00  0.00    +0.073 C 
ATOM     24  C   UNL     1       3.012  -1.415   0.095  0.00  0.00    +0.022 C 
ATOM     25  C   UNL     1       4.488  -1.062   0.292  0.00  0.00    +0.002 C 
ATOM     26  C   UNL     1       4.993  -1.693   1.591  0.00  0.00    +0.000 C 
ATOM     27  C   UNL     1       4.179  -1.156   2.770  0.00  0.00    +0.002 C 
ATOM     28  C   UNL     1       2.703  -1.508   2.572  0.00  0.00    +0.022 C 
ENDBRANCH  21  23
ENDBRANCH  18  19
BRANCH  18  30
ATOM     29  C   UNL     1      -3.516  -1.632   1.266  0.00  0.00    +0.005 C 
ATOM     30  C   UNL     1      -2.049  -1.251   1.471  0.00  0.00    +0.020 C 
ENDBRANCH  18  30
ENDBRANCH  17  18
ENDBRANCH   1  17
BRANCH  12  31
ATOM     31  C   UNL     1       2.344   3.922  -0.169  0.00  0.00    +0.075 C 
BRANCH  31  32
ATOM     32  C   UNL     1       2.288   5.427   0.105  0.00  0.00    +0.042 C 
BRANCH  32  33
ATOM     33  C   UNL     1       3.450   6.105  -0.575  0.00  0.00    -0.021 C 
ATOM     34  C   UNL     1       3.470   6.696  -1.772  0.00  0.00    +0.061 C 
ATOM     35  N   UNL     1       4.698   7.193  -2.041  0.00  0.00    -0.159 NA
ATOM     36  N   UNL     1       5.532   7.006  -1.151  0.00  0.00    -0.180 NA
ATOM     37  C   UNL     1       4.866   6.280  -0.056  0.00  0.00    +0.153 C 
ATOM     38  C   UNL     1       5.531   4.921   0.172  0.00  0.00    +0.039 C 
ATOM     39  C   UNL     1       2.285   6.796  -2.697  0.00  0.00    +0.067 C 
ENDBRANCH  32  33
ENDBRANCH  31  32
ENDBRANCH  12  31
TORSDOF 8
