REMARK  Name = ZINC34762634
REMARK  10 active torsions:
REMARK  status: ('A' for Active; 'I' for Inactive)
REMARK    1  A    between atoms: C_1  and  C_2
REMARK    2  A    between atoms: C_2  and  C_3
REMARK    3  A    between atoms: C_3  and  N_4
REMARK    4  A    between atoms: C_12  and  C_31
REMARK    5  A    between atoms: C_13  and  C_30
REMARK    6  A    between atoms: C_17  and  S_19
REMARK    7  A    between atoms: S_19  and  C_20
REMARK    8  A    between atoms: C_20  and  C_21
REMARK    9  A    between atoms: N_23  and  C_24
REMARK   10  A    between atoms: C_31  and  C_32
REMARK                            x       y       z     vdW  Elec       q    Type
REMARK                         _______ _______ _______ _____ _____    ______ ____
ROOT
ATOM      1  N   UNL     1       0.221  -2.630  -0.206  0.00  0.00    +0.382 N 
ATOM      2  C   UNL     1       0.333  -4.062   0.100  0.00  0.00    -0.060 C 
ATOM      3  C   UNL     1       1.018  -4.781  -1.067  0.00  0.00    +0.088 C 
ATOM      4  N   UNL     1       0.275  -4.480  -2.301  0.00  0.00    -0.318 N 
ATOM      5  C   UNL     1      -0.025  -3.072  -2.603  0.00  0.00    +0.088 C 
ATOM      6  C   UNL     1      -0.661  -2.434  -1.364  0.00  0.00    -0.060 C 
ATOM      7  C   UNL     1      -0.129  -5.492  -3.152  0.00  0.00    +0.134 A 
ATOM      8  C   UNL     1       0.737  -5.954  -4.182  0.00  0.00    +0.051 A 
ATOM      9  C   UNL     1       2.079  -5.518  -4.530  0.00  0.00    -0.025 A 
ATOM     10  C   UNL     1       2.713  -6.105  -5.554  0.00  0.00    -0.007 A 
ATOM     11  S   UNL     1       1.535  -7.308  -6.139  0.00  0.00    -0.073 S 
ATOM     12  C   UNL     1       0.222  -6.989  -4.991  0.00  0.00    +0.115 A 
ATOM     13  N   UNL     1      -0.984  -7.485  -4.792  0.00  0.00    -0.214 NA
ATOM     14  C   UNL     1      -1.748  -7.014  -3.815  0.00  0.00    +0.191 A 
ATOM     15  N   UNL     1      -1.322  -6.045  -3.013  0.00  0.00    -0.206 NA
ATOM     16  C   UNL     1       4.094  -5.817  -6.086  0.00  0.00    +0.052 C 
ATOM     17  H   UNL     1       1.137  -2.261  -0.416  0.00  0.00    -0.082 HD
ENDROOT
BRANCH   9  18
ATOM     18  C   UNL     1       2.750  -4.419  -3.748  0.00  0.00    +0.033 C 
ATOM     19  C   UNL     1       3.649  -5.033  -2.672  0.00  0.00    +0.009 C 
ENDBRANCH   9  18
BRANCH   1  20
ATOM     20  C   UNL     1      -0.335  -1.925   0.956  0.00  0.00    -0.079 C 
BRANCH  20  22
ATOM     21  C   UNL     1       0.065  -1.288   3.339  0.00  0.00    +0.002 C 
ATOM     22  C   UNL     1       0.644  -2.023   2.128  0.00  0.00    -0.022 C 
ENDBRANCH  20  22
ENDBRANCH   1  20
BRANCH  14  23
ATOM     23  S   UNL     1      -3.355  -7.694  -3.571  0.00  0.00    -0.077 S 
BRANCH  23  24
ATOM     24  C   UNL     1      -3.496  -8.962  -4.860  0.00  0.00    +0.173 C 
BRANCH  24  25
ATOM     25  C   UNL     1      -4.843  -9.631  -4.763  0.00  0.00    +0.224 C 
ATOM     26  O   UNL     1      -5.630  -9.286  -3.907  0.00  0.00    -0.275 OA
ATOM     27  N   UNL     1      -5.172 -10.612  -5.626  0.00  0.00    -0.312 N 
ATOM     28  H   UNL     1      -4.542 -10.888  -6.310  0.00  0.00    +0.149 HD
BRANCH  27  29
ATOM     29  C   UNL     1      -6.482 -11.262  -5.531  0.00  0.00    +0.073 C 
ATOM     30  C   UNL     1      -6.417 -12.391  -4.500  0.00  0.00    +0.022 C 
ATOM     31  C   UNL     1      -7.785 -13.070  -4.401  0.00  0.00    +0.002 C 
ATOM     32  C   UNL     1      -8.168 -13.646  -5.766  0.00  0.00    +0.000 C 
ATOM     33  C   UNL     1      -8.233 -12.517  -6.796  0.00  0.00    +0.002 C 
ATOM     34  C   UNL     1      -6.865 -11.838  -6.895  0.00  0.00    +0.022 C 
ENDBRANCH  27  29
ENDBRANCH  24  25
ENDBRANCH  23  24
ENDBRANCH  14  23
TORSDOF 7
