REMARK  Name = ZINC36163060
REMARK  2 active torsions:
REMARK  status: ('A' for Active; 'I' for Inactive)
REMARK    1  A    between atoms: C_1  and  C_2
REMARK    2  A    between atoms: C_5  and  C_14
REMARK                            x       y       z     vdW  Elec       q    Type
REMARK                         _______ _______ _______ _____ _____    ______ ____
ROOT
ATOM      1  C   UNL     1      -0.004   1.516  -0.005  0.00  0.00    +0.028 C 
ATOM      2  C   UNL     1       0.011  -0.014  -0.007  0.00  0.00    +0.068 C 
ATOM      3  C   UNL     1      -1.427  -0.549   0.025  0.00  0.00    +0.039 C 
ATOM      4  C   UNL     1      -1.388  -2.075  -0.047  0.00  0.00    +0.109 C 
ATOM      5  C   UNL     1      -0.451  -2.628   0.994  0.00  0.00    -0.015 A 
ATOM      6  C   UNL     1      -0.590  -3.950   1.386  0.00  0.00    +0.006 A 
ATOM      7  C   UNL     1       0.256  -4.487   2.336  0.00  0.00    +0.000 A 
ATOM      8  C   UNL     1       1.249  -3.709   2.903  0.00  0.00    +0.002 A 
ATOM      9  C   UNL     1       1.394  -2.391   2.518  0.00  0.00    +0.023 A 
ATOM     10  C   UNL     1       0.542  -1.847   1.563  0.00  0.00    +0.031 A 
ATOM     11  N   UNL     1       0.701  -0.506   1.193  0.00  0.00    -0.341 N 
ATOM     12  H   UNL     1       1.257   0.088   1.721  0.00  0.00    +0.146 HD
ENDROOT
BRANCH   4  13
ATOM     13  C   UNL     1      -2.772  -2.620   0.194  0.00  0.00    +0.223 C 
ATOM     14  O   UNL     1      -3.100  -2.970   1.308  0.00  0.00    -0.275 OA
ATOM     15  N   UNL     1      -3.645  -2.720  -0.828  0.00  0.00    -0.298 N 
ATOM     16  C   UNL     1      -3.207  -2.400  -2.188  0.00  0.00    +0.130 C 
ATOM     17  C   UNL     1      -3.263  -3.663  -3.054  0.00  0.00    +0.185 C 
ATOM     18  S   UNL     1      -4.959  -4.314  -3.033  0.00  0.00    -0.028 S 
ATOM     19  O   UNL     1      -4.953  -5.607  -3.623  0.00  0.00    -0.174 OA
ATOM     20  O   UNL     1      -5.831  -3.320  -3.553  0.00  0.00    -0.174 OA
ATOM     21  C   UNL     1      -5.277  -4.492  -1.253  0.00  0.00    +0.185 C 
ATOM     22  C   UNL     1      -5.019  -3.152  -0.568  0.00  0.00    +0.130 C 
ENDBRANCH   4  13
TORSDOF 1
