REMARK  Name = ZINC09587505
REMARK  8 active torsions:
REMARK  status: ('A' for Active; 'I' for Inactive)
REMARK    1  A    between atoms: C_1  and  C_2
REMARK    2  A    between atoms: C_2  and  C_3
REMARK    3  A    between atoms: C_3  and  N_4
REMARK    4  A    between atoms: N_13  and  C_14
REMARK    5  A    between atoms: C_14  and  C_16
REMARK    6  A    between atoms: C_19  and  S_22
REMARK    7  A    between atoms: S_22  and  N_25
REMARK    8  A    between atoms: C_30  and  C_32
REMARK                            x       y       z     vdW  Elec       q    Type
REMARK                         _______ _______ _______ _____ _____    ______ ____
ROOT
ATOM      1  C   UNL     1      -2.964   8.424  -5.157  0.00  0.00    +0.269 C 
ATOM      2  O   UNL     1      -2.783   8.510  -3.955  0.00  0.00    -0.268 OA
ENDROOT
BRANCH   1  12
ATOM      3  N   UNL     1      -2.453   4.868  -5.492  0.00  0.00    -0.321 N 
ATOM      4  C   UNL     1      -2.147   3.857  -4.597  0.00  0.00    +0.061 A 
ATOM      5  C   UNL     1      -1.973   2.489  -4.857  0.00  0.00    +0.076 A 
ATOM      6  C   UNL     1      -1.668   1.605  -3.841  0.00  0.00    +0.164 A 
ATOM      7  C   UNL     1      -1.524   2.053  -2.530  0.00  0.00    +0.163 A 
ATOM      8  C   UNL     1      -1.692   3.400  -2.249  0.00  0.00    +0.066 A 
ATOM      9  C   UNL     1      -1.996   4.274  -3.267  0.00  0.00    +0.043 A 
ATOM     10  S   UNL     1      -2.288   6.023  -3.351  0.00  0.00    -0.052 S 
ATOM     11  C   UNL     1      -2.585   6.149  -5.055  0.00  0.00    +0.167 A 
ATOM     12  N   UNL     1      -2.873   7.236  -5.763  0.00  0.00    -0.152 NA
ATOM     13  O   UNL     1      -1.218   1.191  -1.523  0.00  0.00    -0.485 OA
ATOM     14  C   UNL     1      -1.419  -0.203  -1.784  0.00  0.00    +0.270 C 
ATOM     15  C   UNL     1      -0.833  -0.520  -3.167  0.00  0.00    +0.270 C 
ATOM     16  O   UNL     1      -1.511   0.283  -4.139  0.00  0.00    -0.485 OA
BRANCH   3  17
ATOM     17  C   UNL     1      -2.634   4.557  -6.912  0.00  0.00    +0.124 C 
BRANCH  17  19
ATOM     18  C   UNL     1      -4.071   4.970  -8.914  0.00  0.00    +0.005 C 
ATOM     19  C   UNL     1      -3.770   5.410  -7.480  0.00  0.00    +0.018 C 
ENDBRANCH  17  19
ENDBRANCH   3  17
ENDBRANCH   1  12
BRANCH   1  20
ATOM     20  C   UNL     1      -3.286   9.635  -5.946  0.00  0.00    +0.039 A 
ATOM     21  C   UNL     1      -3.488   9.541  -7.323  0.00  0.00    +0.015 A 
ATOM     22  C   UNL     1      -3.792  10.672  -8.052  0.00  0.00    +0.029 A 
ATOM     23  C   UNL     1      -3.886  11.900  -7.422  0.00  0.00    +0.106 A 
ATOM     24  C   UNL     1      -3.680  12.001  -6.057  0.00  0.00    +0.029 A 
ATOM     25  C   UNL     1      -3.381  10.876  -5.317  0.00  0.00    +0.015 A 
BRANCH  23  26
ATOM     26  S   UNL     1      -4.268  13.341  -8.361  0.00  0.00    +0.061 S 
ATOM     27  O   UNL     1      -4.795  12.890  -9.601  0.00  0.00    -0.153 OA
ATOM     28  O   UNL     1      -4.988  14.210  -7.497  0.00  0.00    -0.153 OA
BRANCH  26  29
ATOM     29  N   UNL     1      -2.834  14.097  -8.703  0.00  0.00    -0.174 NA
ATOM     30  C   UNL     1      -2.388  15.250  -7.910  0.00  0.00    +0.110 C 
ATOM     31  C   UNL     1      -2.081  16.412  -8.859  0.00  0.00    +0.017 C 
ATOM     32  C   UNL     1      -1.076  15.950  -9.916  0.00  0.00    +0.003 C 
ATOM     33  C   UNL     1      -1.681  14.806 -10.733  0.00  0.00    +0.020 C 
ATOM     34  C   UNL     1      -1.981  13.622  -9.801  0.00  0.00    +0.077 C 
ATOM     35  C   UNL     1      -2.711  12.526 -10.580  0.00  0.00    +0.026 C 
ENDBRANCH  26  29
ENDBRANCH  23  26
ENDBRANCH   1  20
TORSDOF 6
