REMARK  Name = ZINC02432413
REMARK  7 active torsions:
REMARK  status: ('A' for Active; 'I' for Inactive)
REMARK    1  A    between atoms: C_1  and  C_2
REMARK    2  A    between atoms: C_6  and  S_8
REMARK    3  A    between atoms: S_8  and  C_11
REMARK    4  A    between atoms: N_22  and  N_25
REMARK    5  A    between atoms: C_23  and  N_24
REMARK    6  A    between atoms: C_26  and  C_27
REMARK    7  A    between atoms: C_32  and  C_33
REMARK                            x       y       z     vdW  Elec       q    Type
REMARK                         _______ _______ _______ _____ _____    ______ ____
ROOT
ATOM      1  C   UNL     1      -1.132   5.737  -1.219  0.00  0.00    +0.162 A 
ATOM      2  C   UNL     1       0.132   6.066  -1.768  0.00  0.00    +0.137 A 
ATOM      3  C   UNL     1      -0.135   6.569  -3.122  0.00  0.00    +0.184 A 
ATOM      4  N   UNL     1       0.866   6.953  -3.882  0.00  0.00    -0.224 NA
ATOM      5  C   UNL     1       2.120   6.891  -3.416  0.00  0.00    +0.092 A 
ATOM      6  C   UNL     1       3.197   7.304  -4.221  0.00  0.00    +0.030 A 
ATOM      7  C   UNL     1       4.468   7.231  -3.743  0.00  0.00    +0.002 A 
ATOM      8  C   UNL     1       4.724   6.751  -2.459  0.00  0.00    +0.002 A 
ATOM      9  C   UNL     1       3.710   6.342  -1.651  0.00  0.00    +0.030 A 
ATOM     10  C   UNL     1       2.380   6.403  -2.111  0.00  0.00    +0.090 A 
ATOM     11  N   UNL     1       1.376   6.003  -1.322  0.00  0.00    -0.240 NA
ATOM     12  N   UNL     1      -1.504   6.519  -3.290  0.00  0.00    -0.197 N 
ATOM     13  C   UNL     1      -2.079   6.020  -2.145  0.00  0.00    +0.148 A 
ENDROOT
BRANCH   1  14
ATOM     14  S   UNL     1      -1.422   5.082   0.390  0.00  0.00    +0.030 S 
ATOM     15  O   UNL     1      -2.756   5.426   0.735  0.00  0.00    -0.164 OA
ATOM     16  O   UNL     1      -0.307   5.457   1.188  0.00  0.00    -0.164 OA
BRANCH  14  22
ATOM     17  C   UNL     1      -3.758   0.478  -0.429  0.00  0.00    +0.044 C 
ATOM     18  C   UNL     1      -2.496   1.245  -0.128  0.00  0.00    -0.049 A 
ATOM     19  C   UNL     1      -1.301   0.570   0.042  0.00  0.00    +0.003 A 
ATOM     20  C   UNL     1      -0.142   1.273   0.312  0.00  0.00    +0.002 A 
ATOM     21  C   UNL     1      -0.179   2.651   0.418  0.00  0.00    +0.027 A 
ATOM     22  C   UNL     1      -1.375   3.325   0.254  0.00  0.00    +0.094 A 
ATOM     23  C   UNL     1      -2.534   2.622  -0.017  0.00  0.00    +0.030 A 
ENDBRANCH  14  22
ENDBRANCH   1  14
BRANCH  13  24
ATOM     24  N   UNL     1      -3.438   5.833  -1.962  0.00  0.00    -0.341 N 
ATOM     25  H   UNL     1      -3.770   5.476  -1.124  0.00  0.00    +0.144 HD
ATOM     26  H   UNL     1      -4.058   6.060  -2.673  0.00  0.00    +0.144 HD
ENDBRANCH  13  24
BRANCH  12  27
ATOM     27  N   UNL     1      -2.197   6.911  -4.442  0.00  0.00    -0.171 NA
ATOM     28  C   UNL     1      -2.607   8.136  -4.567  0.00  0.00    +0.141 C 
BRANCH  28  29
ATOM     29  C   UNL     1      -3.337   8.550  -5.780  0.00  0.00    -0.002 A 
ATOM     30  C   UNL     1      -3.880   9.834  -5.869  0.00  0.00    +0.010 A 
ATOM     31  C   UNL     1      -4.556  10.216  -7.009  0.00  0.00    +0.001 A 
ATOM     32  C   UNL     1      -4.706   9.326  -8.059  0.00  0.00    +0.000 A 
ATOM     33  C   UNL     1      -4.176   8.051  -7.976  0.00  0.00    +0.004 A 
ATOM     34  C   UNL     1      -3.493   7.657  -6.844  0.00  0.00    -0.042 A 
ATOM     35  C   UNL     1      -2.915   6.268  -6.755  0.00  0.00    +0.044 C 
ENDBRANCH  28  29
ENDBRANCH  12  27
TORSDOF 5
