REMARK  Name = ZINC20968187
REMARK  12 active torsions:
REMARK  status: ('A' for Active; 'I' for Inactive)
REMARK    1  A    between atoms: C_1  and  C_2
REMARK    2  A    between atoms: C_2  and  C_3
REMARK    3  A    between atoms: C_3  and  O_4
REMARK    4  A    between atoms: O_4  and  C_5
REMARK    5  A    between atoms: C_6  and  O_27
REMARK    6  A    between atoms: C_8  and  C_12
REMARK    7  A    between atoms: C_12  and  N_13
REMARK    8  A    between atoms: N_13  and  C_14
REMARK    9  A    between atoms: N_17  and  C_20
REMARK   10  A    between atoms: C_20  and  C_21
REMARK   11  A    between atoms: O_27  and  C_28
REMARK   12  A    between atoms: C_28  and  C_29
REMARK                            x       y       z     vdW  Elec       q    Type
REMARK                         _______ _______ _______ _____ _____    ______ ____
ROOT
ATOM      1  N   UNL     1      -2.926   0.716   1.405  0.00  0.00    +0.383 N 
ATOM      2  H   UNL     1      -2.147   0.131   1.917  0.00  0.00    -0.085 HD
ATOM      3  H   UNL     1      -3.070   1.671   1.929  0.00  0.00    -0.085 HD
ENDROOT
BRANCH   1   4
ATOM      4  C   UNL     1      -4.185  -0.039   1.446  0.00  0.00    -0.075 C 
ATOM      5  C   UNL     1      -5.367   0.931   1.353  0.00  0.00    -0.034 C 
ATOM      6  C   UNL     1      -6.675   0.144   1.457  0.00  0.00    -0.080 C 
ATOM      7  N   UNL     1      -6.713  -0.579   2.735  0.00  0.00    +0.382 N 
ATOM      8  C   UNL     1      -5.615  -1.550   2.827  0.00  0.00    -0.080 C 
ATOM      9  C   UNL     1      -4.275  -0.815   2.763  0.00  0.00    -0.034 C 
ATOM     10  H   UNL     1      -6.577   0.157   3.541  0.00  0.00    -0.081 HD
BRANCH   7  11
ATOM     11  C   UNL     1      -8.013  -1.234   2.931  0.00  0.00    -0.043 C 
BRANCH  11  12
ATOM     12  C   UNL     1      -9.086  -0.186   3.075  0.00  0.00    -0.064 A 
ATOM     13  C   UNL     1      -9.411   0.304   4.326  0.00  0.00    +0.002 A 
ATOM     14  C   UNL     1     -10.392   1.270   4.457  0.00  0.00    +0.000 A 
ATOM     15  C   UNL     1     -11.056   1.736   3.339  0.00  0.00    +0.000 A 
ATOM     16  C   UNL     1     -10.736   1.242   2.088  0.00  0.00    +0.000 A 
ATOM     17  C   UNL     1      -9.751   0.281   1.956  0.00  0.00    +0.002 A 
ENDBRANCH  11  12
ENDBRANCH   7  11
ENDBRANCH   1   4
BRANCH   1  18
ATOM     18  C   UNL     1      -2.512   0.975   0.019  0.00  0.00    -0.046 C 
BRANCH  18  22
ATOM     19  C   UNL     1       1.159   3.168   0.008  0.00  0.00    +0.176 A 
ATOM     20  C   UNL     1      -0.056   3.845   0.023  0.00  0.00    +0.163 A 
ATOM     21  C   UNL     1      -1.244   3.132   0.031  0.00  0.00    +0.051 A 
ATOM     22  C   UNL     1      -1.220   1.749   0.017  0.00  0.00    -0.060 A 
ATOM     23  C   UNL     1      -0.013   1.076   0.008  0.00  0.00    +0.021 A 
ATOM     24  C   UNL     1       1.177   1.782   0.000  0.00  0.00    +0.063 A 
ATOM     25 BR   UNL     1       2.826   0.858  -0.021  0.00  0.00    -0.046 Br
BRANCH  19  26
ATOM     26  O   UNL     1       2.328   3.865   0.001  0.00  0.00    -0.487 OA
BRANCH  26  27
ATOM     27  C   UNL     1       2.873   4.204  -1.276  0.00  0.00    +0.229 C 
BRANCH  27  29
ATOM     28  C   UNL     1       4.762   5.343  -2.450  0.00  0.00    +0.007 C 
ATOM     29  C   UNL     1       4.178   4.980  -1.083  0.00  0.00    +0.038 C 
ENDBRANCH  27  29
ENDBRANCH  26  27
ENDBRANCH  19  26
BRANCH  20  30
ATOM     30  O   UNL     1      -0.079   5.205   0.030  0.00  0.00    -0.489 OA
BRANCH  30  31
ATOM     31  C   UNL     1      -1.362   5.833   0.046  0.00  0.00    +0.226 C 
ATOM     32  C   UNL     1      -1.187   7.353   0.052  0.00  0.00    +0.048 C 
ENDBRANCH  30  31
ENDBRANCH  20  30
ENDBRANCH  18  22
ENDBRANCH   1  18
TORSDOF 10
