REMARK  Name = ZINC35745595
REMARK  13 active torsions:
REMARK  status: ('A' for Active; 'I' for Inactive)
REMARK    1  A    between atoms: C_1  and  C_2
REMARK    2  A    between atoms: C_2  and  C_3
REMARK    3  A    between atoms: C_2  and  O_4
REMARK    4  A    between atoms: O_4  and  C_5
REMARK    5  A    between atoms: C_5  and  C_6
REMARK    6  A    between atoms: C_6  and  C_8
REMARK    7  A    between atoms: C_6  and  O_35
REMARK    8  A    between atoms: C_8  and  N_9
REMARK    9  A    between atoms: N_9  and  C_10
REMARK   10  A    between atoms: N_9  and  C_16
REMARK   11  A    between atoms: C_10  and  C_11
REMARK   12  A    between atoms: C_16  and  C_17
REMARK   13  A    between atoms: C_23  and  C_28
REMARK                            x       y       z     vdW  Elec       q    Type
REMARK                         _______ _______ _______ _____ _____    ______ ____
ROOT
ATOM      1  C   UNL     1       6.133  -1.516  -3.946  0.00  0.00    -0.003 C 
ENDROOT
BRANCH   1   2
ATOM      2  C   UNL     1       6.489  -1.933  -5.350  0.00  0.00    +0.094 A 
ATOM      3  N   UNL     1       7.795  -2.031  -5.707  0.00  0.00    -0.312 N 
ATOM      4  H   UNL     1       8.483  -1.831  -5.052  0.00  0.00    +0.170 HD
ATOM      5  C   UNL     1       8.154  -2.400  -6.950  0.00  0.00    +0.260 A 
ATOM      6  O   UNL     1       9.332  -2.484  -7.255  0.00  0.00    -0.267 OA
ATOM      7  C   UNL     1       7.133  -2.693  -7.909  0.00  0.00    +0.080 A 
ATOM      8  C   UNL     1       7.266  -3.108  -9.301  0.00  0.00    +0.005 A 
ATOM      9  C   UNL     1       6.142  -3.331 -10.024  0.00  0.00    +0.056 A 
ATOM     10  S   UNL     1       4.831  -2.993  -8.865  0.00  0.00    -0.076 S 
ATOM     11  C   UNL     1       5.812  -2.564  -7.450  0.00  0.00    +0.116 A 
ATOM     12  N   UNL     1       5.534  -2.198  -6.201  0.00  0.00    -0.229 NA
BRANCH   8  13
ATOM     13  C   UNL     1       8.605  -3.282  -9.912  0.00  0.00    +0.002 A 
ATOM     14  C   UNL     1       9.014  -2.446 -10.951  0.00  0.00    +0.010 A 
ATOM     15  C   UNL     1      10.261  -2.612 -11.516  0.00  0.00    +0.001 A 
ATOM     16  C   UNL     1      11.107  -3.606 -11.055  0.00  0.00    +0.001 A 
ATOM     17  C   UNL     1      10.708  -4.438 -10.025  0.00  0.00    +0.020 A 
ATOM     18  C   UNL     1       9.463  -4.278  -9.447  0.00  0.00    +0.049 A 
ATOM     19 CL   UNL     1       8.966  -5.319  -8.150  0.00  0.00    -0.083 Cl
ENDBRANCH   8  13
ENDBRANCH   1   2
BRANCH   1  20
ATOM     20  N   UNL     1       4.672  -1.488  -3.798  0.00  0.00    +0.391 N 
ATOM     21  H   UNL     1       4.274  -0.891  -4.508  0.00  0.00    -0.080 HD
BRANCH  20  22
ATOM     22  C   UNL     1       4.324  -0.968  -2.469  0.00  0.00    -0.044 C 
BRANCH  22  23
ATOM     23  C   UNL     1       4.753   0.497  -2.366  0.00  0.00    +0.124 C 
BRANCH  23  24
ATOM     24  O   UNL     1       4.053   1.268  -3.344  0.00  0.00    -0.391 OA
ATOM     25  H   UNL     1       3.096   1.302  -3.207  0.00  0.00    +0.210 HD
ENDBRANCH  23  24
BRANCH  23  26
ATOM     26  C   UNL     1       4.427   1.028  -0.969  0.00  0.00    +0.189 C 
BRANCH  26  27
ATOM     27  O   UNL     1       4.931   2.358  -0.834  0.00  0.00    -0.375 OA
BRANCH  27  29
ATOM     28  C   UNL     1       5.839   2.635   1.389  0.00  0.00    +0.037 C 
ATOM     29  C   UNL     1       4.678   2.949   0.442  0.00  0.00    +0.112 C 
ATOM     30  C   UNL     1       4.544   4.465   0.284  0.00  0.00    +0.037 C 
ENDBRANCH  27  29
ENDBRANCH  26  27
ENDBRANCH  23  26
ENDBRANCH  22  23
ENDBRANCH  20  22
BRANCH  20  31
ATOM     31  C   UNL     1       4.139  -2.849  -3.946  0.00  0.00    -0.002 C 
BRANCH  31  32
ATOM     32  C   UNL     1       2.633  -2.801  -3.939  0.00  0.00    +0.089 A 
ATOM     33  C   UNL     1       1.848  -2.553  -5.003  0.00  0.00    +0.042 A 
ATOM     34  C   UNL     1       0.511  -2.605  -4.547  0.00  0.00    +0.041 A 
ATOM     35  C   UNL     1       0.558  -2.882  -3.231  0.00  0.00    +0.195 A 
ATOM     36  O   UNL     1       1.846  -3.006  -2.870  0.00  0.00    -0.470 OA
ENDBRANCH  31  32
ENDBRANCH  20  31
ENDBRANCH   1  20
TORSDOF 11
