REMARK  Name = ZINC59277058
REMARK  13 active torsions:
REMARK  status: ('A' for Active; 'I' for Inactive)
REMARK    1  A    between atoms: C_1  and  C_2
REMARK    2  A    between atoms: C_2  and  O_3
REMARK    3  A    between atoms: O_3  and  C_4
REMARK    4  A    between atoms: C_9  and  C_10
REMARK    5  A    between atoms: C_10  and  N_11
REMARK    6  A    between atoms: N_11  and  C_12
REMARK    7  A    between atoms: C_14  and  C_20
REMARK    8  A    between atoms: C_14  and  C_21
REMARK    9  A    between atoms: C_16  and  C_18
REMARK   10  A    between atoms: C_16  and  C_19
REMARK   11  A    between atoms: N_24  and  C_25
REMARK   12  A    between atoms: C_30  and  O_31
REMARK   13  A    between atoms: O_31  and  C_32
REMARK                            x       y       z     vdW  Elec       q    Type
REMARK                         _______ _______ _______ _____ _____    ______ ____
ROOT
ATOM      1  N   UNL     1      -4.491  -0.586  -1.239  0.00  0.00    -0.278 N 
ATOM      2  C   UNL     1      -3.880   0.568  -1.572  0.00  0.00    +0.307 C 
ATOM      3  O   UNL     1      -3.400   1.274  -0.706  0.00  0.00    -0.252 OA
ATOM      4  N   UNL     1      -3.800   0.939  -2.865  0.00  0.00    -0.266 N 
ATOM      5  H   UNL     1      -4.260   0.425  -3.547  0.00  0.00    +0.156 HD
ENDROOT
BRANCH   1   6
ATOM      6  C   UNL     1      -5.183  -1.374  -2.267  0.00  0.00    +0.075 C 
ATOM      7  C   UNL     1      -4.643  -2.805  -2.250  0.00  0.00    +0.009 C 
ATOM      8  C   UNL     1      -5.362  -3.642  -3.307  0.00  0.00    -0.072 C 
ATOM      9  N   UNL     1      -6.808  -3.590  -3.158  0.00  0.00    +0.386 N 
ATOM     10  C   UNL     1      -7.420  -2.286  -2.958  0.00  0.00    -0.072 C 
ATOM     11  C   UNL     1      -6.676  -1.421  -1.946  0.00  0.00    +0.009 C 
ATOM     12  C   UNL     1      -8.844  -2.521  -2.401  0.00  0.00    -0.010 C 
ATOM     13  C   UNL     1      -7.577  -1.527  -4.279  0.00  0.00    -0.010 C 
ATOM     14  C   UNL     1      -4.912  -3.225  -4.707  0.00  0.00    -0.010 C 
ATOM     15  C   UNL     1      -4.924  -5.112  -3.104  0.00  0.00    -0.010 C 
ATOM     16  H   UNL     1      -7.232  -4.023  -3.982  0.00  0.00    -0.084 HD
ATOM     17  H   UNL     1      -7.072  -4.192  -2.373  0.00  0.00    -0.084 HD
ENDBRANCH   1   6
BRANCH   4  18
ATOM     18  C   UNL     1      -3.052   2.069  -3.225  0.00  0.00    +0.077 A 
ATOM     19  C   UNL     1      -2.132   2.606  -2.337  0.00  0.00    +0.027 A 
ATOM     20  C   UNL     1      -1.396   3.720  -2.694  0.00  0.00    +0.002 A 
ATOM     21  C   UNL     1      -1.574   4.301  -3.936  0.00  0.00    +0.004 A 
ATOM     22  C   UNL     1      -2.489   3.772  -4.826  0.00  0.00    +0.047 A 
ATOM     23  C   UNL     1      -3.227   2.652  -4.478  0.00  0.00    +0.141 A 
BRANCH  23  24
ATOM     24  O   UNL     1      -4.124   2.127  -5.355  0.00  0.00    -0.493 OA
ATOM     25  C   UNL     1      -4.250   2.777  -6.621  0.00  0.00    +0.277 C 
ENDBRANCH  23  24
ENDBRANCH   4  18
BRANCH   1  26
ATOM     26  C   UNL     1      -4.467  -1.054   0.149  0.00  0.00    +0.148 C 
BRANCH  26  32
ATOM     27  C   UNL     1      -2.028  -1.446   0.580  0.00  0.00    +0.125 A 
ATOM     28  C   UNL     1      -0.947  -2.295   0.768  0.00  0.00    +0.046 A 
ATOM     29  C   UNL     1      -1.129  -3.663   0.720  0.00  0.00    +0.004 A 
ATOM     30  C   UNL     1      -2.387  -4.187   0.485  0.00  0.00    +0.001 A 
ATOM     31  C   UNL     1      -3.466  -3.343   0.296  0.00  0.00    +0.009 A 
ATOM     32  C   UNL     1      -3.290  -1.973   0.349  0.00  0.00    +0.012 A 
BRANCH  27  33
ATOM     33  O   UNL     1      -1.851  -0.099   0.627  0.00  0.00    -0.492 OA
BRANCH  33  35
ATOM     34  C   UNL     1      -0.523   1.903   0.886  0.00  0.00    +0.048 C 
ATOM     35  C   UNL     1      -0.524   0.373   0.868  0.00  0.00    +0.225 C 
ENDBRANCH  33  35
ENDBRANCH  27  33
ENDBRANCH  26  32
ENDBRANCH   1  26
TORSDOF 7
