REMARK  Name = ZINC12565516
REMARK  3 active torsions:
REMARK  status: ('A' for Active; 'I' for Inactive)
REMARK    1  A    between atoms: N_13  and  C_17
REMARK    2  A    between atoms: C_17  and  C_18
REMARK    3  A    between atoms: N_20  and  C_21
REMARK                            x       y       z     vdW  Elec       q    Type
REMARK                         _______ _______ _______ _____ _____    ______ ____
ROOT
ATOM      1  C   UNL     1       2.064   2.646  -3.618  0.00  0.00    +0.001 A 
ATOM      2  C   UNL     1       2.221   4.018  -3.561  0.00  0.00    +0.004 A 
ATOM      3  C   UNL     1       2.121   4.674  -2.351  0.00  0.00    +0.046 A 
ATOM      4  C   UNL     1       1.863   3.959  -1.187  0.00  0.00    +0.126 A 
ATOM      5  C   UNL     1       1.702   2.584  -1.246  0.00  0.00    +0.027 A 
ATOM      6  C   UNL     1       1.804   1.932  -2.464  0.00  0.00    +0.010 A 
ATOM      7  C   UNL     1       1.415   1.782  -0.008  0.00  0.00    +0.144 C 
ATOM      8  C   UNL     1       1.747   2.586   1.245  0.00  0.00    +0.081 C 
ATOM      9  C   UNL     1       1.143   3.988   1.092  0.00  0.00    +0.232 C 
ATOM     10  O   UNL     1       1.776   4.636  -0.012  0.00  0.00    -0.492 OA
ATOM     11  C   UNL     1       2.196   0.487  -0.027  0.00  0.00    +0.252 C 
ATOM     12  O   UNL     1       3.401   0.357  -0.048  0.00  0.00    -0.272 OA
ATOM     13  N   UNL     1       1.268  -0.492  -0.015  0.00  0.00    -0.215 N 
ATOM     14  C   UNL     1       0.025   0.005   0.008  0.00  0.00    +0.310 C 
ATOM     15  O   UNL     1      -0.978  -0.681   0.022  0.00  0.00    -0.252 OA
ATOM     16  N   UNL     1       0.011   1.352   0.013  0.00  0.00    -0.281 N 
ATOM     17  H   UNL     1      -0.771   1.925   0.024  0.00  0.00    +0.152 HD
ENDROOT
BRANCH  13  18
ATOM     18  C   UNL     1       1.582  -1.923  -0.025  0.00  0.00    +0.214 C 
BRANCH  18  19
ATOM     19  C   UNL     1       1.666  -2.409  -1.448  0.00  0.00    +0.235 C 
ATOM     20  O   UNL     1       1.482  -1.636  -2.365  0.00  0.00    -0.274 OA
ATOM     21  N   UNL     1       1.946  -3.703  -1.704  0.00  0.00    -0.283 N 
ATOM     22  H   UNL     1       2.157  -4.306  -0.974  0.00  0.00    +0.155 HD
BRANCH  21  23
ATOM     23  C   UNL     1       1.931  -4.175  -3.022  0.00  0.00    +0.048 A 
ATOM     24  C   UNL     1       2.345  -3.352  -4.060  0.00  0.00    +0.025 A 
ATOM     25  C   UNL     1       2.335  -3.822  -5.359  0.00  0.00    +0.017 A 
ATOM     26  C   UNL     1       1.903  -5.109  -5.627  0.00  0.00    +0.019 A 
ATOM     27  C   UNL     1       1.485  -5.930  -4.595  0.00  0.00    +0.032 A 
ATOM     28  C   UNL     1       1.498  -5.467  -3.293  0.00  0.00    +0.040 A 
ATOM     29 BR   UNL     1       0.926  -6.590  -1.883  0.00  0.00    -0.048 Br
ATOM     30 BR   UNL     1       1.885  -5.747  -7.407  0.00  0.00    -0.050 Br
ENDBRANCH  21  23
ENDBRANCH  18  19
ENDBRANCH  13  18
TORSDOF 3
