REMARK  Name = ZINC39675575
REMARK  11 active torsions:
REMARK  status: ('A' for Active; 'I' for Inactive)
REMARK    1  A    between atoms: C_1  and  C_2
REMARK    2  A    between atoms: C_2  and  O_4
REMARK    3  A    between atoms: O_4  and  C_5
REMARK    4  A    between atoms: C_10  and  C_11
REMARK    5  A    between atoms: C_15  and  C_24
REMARK    6  A    between atoms: N_26  and  C_27
REMARK    7  A    between atoms: C_27  and  C_28
REMARK    8  A    between atoms: C_28  and  C_30
REMARK    9  A    between atoms: C_28  and  N_36
REMARK   10  A    between atoms: N_36  and  C_37
REMARK   11  A    between atoms: N_36  and  C_38
REMARK                            x       y       z     vdW  Elec       q    Type
REMARK                         _______ _______ _______ _____ _____    ______ ____
ROOT
ATOM      1  C   UNL     1      -3.409  -2.372  -0.201  0.00  0.00    +0.250 C 
ATOM      2  O   UNL     1      -3.593  -1.183  -0.372  0.00  0.00    -0.270 OA
ATOM      3  N   UNL     1      -4.454  -3.222  -0.195  0.00  0.00    -0.296 N 
ATOM      4  C   UNL     1      -4.423  -4.700  -0.093  0.00  0.00    +0.121 C 
ATOM      5  C   UNL     1      -5.617  -5.054   0.821  0.00  0.00    +0.100 C 
ATOM      6  C   UNL     1      -6.581  -3.863   0.686  0.00  0.00    -0.004 C 
ATOM      7  C   UNL     1      -5.896  -2.889  -0.284  0.00  0.00    +0.115 C 
ATOM      8  C   UNL     1      -7.917  -4.327   0.116  0.00  0.00    -0.010 C 
ATOM      9  C   UNL     1      -8.878  -3.136   0.045  0.00  0.00    -0.082 C 
ATOM     10  N   UNL     1      -9.065  -2.576   1.389  0.00  0.00    +0.379 N 
ATOM     11  C   UNL     1      -7.792  -2.048   1.893  0.00  0.00    -0.082 C 
ATOM     12  C   UNL     1      -6.785  -3.192   2.042  0.00  0.00    -0.010 C 
ATOM     13  H   UNL     1      -9.745  -1.831   1.349  0.00  0.00    -0.086 HD
ATOM     14  H   UNL     1      -9.398  -3.299   2.010  0.00  0.00    -0.086 HD
ENDROOT
BRANCH   1  20
ATOM     15  C   UNL     1      -1.109  -2.140   0.738  0.00  0.00    +0.144 A 
ATOM     16  C   UNL     1       0.172  -2.634   0.927  0.00  0.00    +0.047 A 
ATOM     17  C   UNL     1       0.531  -3.853   0.387  0.00  0.00    +0.004 A 
ATOM     18  C   UNL     1      -0.384  -4.590  -0.347  0.00  0.00    +0.001 A 
ATOM     19  C   UNL     1      -1.662  -4.114  -0.545  0.00  0.00    +0.017 A 
ATOM     20  C   UNL     1      -2.039  -2.885   0.002  0.00  0.00    +0.079 A 
BRANCH  15  21
ATOM     21  O   UNL     1      -1.463  -0.942   1.269  0.00  0.00    -0.425 OA
BRANCH  21  23
ATOM     22  C   UNL     1      -2.354   0.373   3.161  0.00  0.00    +0.136 C 
ATOM     23  C   UNL     1      -2.046  -0.936   2.479  0.00  0.00    +0.309 C 
ATOM     24  O   UNL     1      -2.323  -1.979   3.022  0.00  0.00    -0.251 OA
ENDBRANCH  21  23
ENDBRANCH  15  21
ENDBRANCH   1  20
BRANCH   5  25
ATOM     25  C   UNL     1      -5.158  -5.201   2.249  0.00  0.00    +0.218 C 
ATOM     26  O   UNL     1      -4.261  -4.504   2.673  0.00  0.00    -0.275 OA
ATOM     27  N   UNL     1      -5.746  -6.107   3.056  0.00  0.00    -0.316 N 
ATOM     28  H   UNL     1      -6.464  -6.665   2.717  0.00  0.00    +0.149 HD
BRANCH  27  29
ATOM     29  C   UNL     1      -5.300  -6.251   4.444  0.00  0.00    +0.093 C 
BRANCH  29  30
ATOM     30  C   UNL     1      -6.036  -7.422   5.097  0.00  0.00    -0.021 C 
BRANCH  30  31
ATOM     31  C   UNL     1      -5.650  -8.705   4.407  0.00  0.00    -0.059 A 
ATOM     32  C   UNL     1      -4.458  -9.329   4.724  0.00  0.00    +0.002 A 
ATOM     33  C   UNL     1      -4.104 -10.506   4.091  0.00  0.00    +0.000 A 
ATOM     34  C   UNL     1      -4.943 -11.059   3.141  0.00  0.00    +0.000 A 
ATOM     35  C   UNL     1      -6.136 -10.436   2.825  0.00  0.00    +0.000 A 
ATOM     36  C   UNL     1      -6.492  -9.261   3.462  0.00  0.00    +0.002 A 
ENDBRANCH  30  31
BRANCH  30  37
ATOM     37  N   UNL     1      -5.668  -7.501   6.517  0.00  0.00    +0.382 N 
ATOM     38  C   UNL     1      -6.144  -6.298   7.213  0.00  0.00    -0.096 C 
ATOM     39  C   UNL     1      -6.285  -8.691   7.118  0.00  0.00    -0.096 C 
ATOM     40  H   UNL     1      -4.665  -7.563   6.602  0.00  0.00    -0.082 HD
ENDBRANCH  30  37
ENDBRANCH  29  30
ENDBRANCH  27  29
ENDBRANCH   5  25
TORSDOF 8
