REMARK  Name = ZINC40376901
REMARK  8 active torsions:
REMARK  status: ('A' for Active; 'I' for Inactive)
REMARK    1  A    between atoms: C_1  and  C_2
REMARK    2  A    between atoms: C_2  and  C_3
REMARK    3  A    between atoms: C_3  and  C_4
REMARK    4  A    between atoms: C_4  and  C_6
REMARK    5  A    between atoms: C_4  and  N_10
REMARK    6  A    between atoms: N_7  and  O_8
REMARK    7  A    between atoms: N_10  and  S_11
REMARK    8  A    between atoms: S_11  and  C_14
REMARK                            x       y       z     vdW  Elec       q    Type
REMARK                         _______ _______ _______ _____ _____    ______ ____
ROOT
ATOM      1  N   UNL     1      -0.548  -2.520  -1.286  0.00  0.00    -0.180 NA
ATOM      2  H   UNL     1      -1.157  -1.987  -1.821  0.00  0.00    +0.149 HD
ENDROOT
BRANCH   1   3
ATOM      3  S   UNL     1      -1.033  -3.990  -0.697  0.00  0.00    +0.060 S 
ATOM      4  O   UNL     1      -0.713  -3.998   0.688  0.00  0.00    -0.153 OA
ATOM      5  O   UNL     1      -2.354  -4.204  -1.175  0.00  0.00    -0.153 OA
BRANCH   3   6
ATOM      6  C   UNL     1      -0.018  -5.215  -1.455  0.00  0.00    +0.125 A 
ATOM      7  C   UNL     1       0.836  -5.979  -0.683  0.00  0.00    +0.050 A 
ATOM      8  C   UNL     1       1.633  -6.941  -1.278  0.00  0.00    +0.043 A 
ATOM      9  C   UNL     1       1.574  -7.138  -2.646  0.00  0.00    +0.021 A 
ATOM     10  C   UNL     1       0.719  -6.375  -3.418  0.00  0.00    +0.023 A 
ATOM     11  C   UNL     1      -0.082  -5.417  -2.822  0.00  0.00    +0.067 A 
ATOM     12 CL   UNL     1      -1.161  -4.462  -3.791  0.00  0.00    -0.082 Cl
ATOM     13 CL   UNL     1       2.707  -7.900  -0.308  0.00  0.00    -0.083 Cl
ENDBRANCH   3   6
ENDBRANCH   1   3
BRANCH   1  14
ATOM     14  C   UNL     1       0.800  -2.025  -1.000  0.00  0.00    +0.143 C 
BRANCH  14  15
ATOM     15  C   UNL     1       1.712  -2.357  -2.153  0.00  0.00    +0.150 C 
ATOM     16  N   UNL     1       2.696  -3.177  -1.983  0.00  0.00    -0.075 NA
ATOM     17  N   UNL     1       1.498  -1.785  -3.387  0.00  0.00    -0.343 N 
ATOM     18  H   UNL     1       0.759  -1.169  -3.515  0.00  0.00    +0.144 HD
ATOM     19  H   UNL     1       2.085  -1.999  -4.129  0.00  0.00    +0.144 HD
BRANCH  16  20
ATOM     20  O   UNL     1       3.553  -3.489  -3.066  0.00  0.00    -0.408 OA
ATOM     21  H   UNL     1       4.259  -4.111  -2.843  0.00  0.00    +0.328 HD
ENDBRANCH  16  20
ENDBRANCH  14  15
BRANCH  14  22
ATOM     22  C   UNL     1       0.756  -0.508  -0.805  0.00  0.00    +0.028 C 
BRANCH  22  24
ATOM     23  C   UNL     1      -0.114   1.339   0.635  0.00  0.00    +0.004 C 
ATOM     24  C   UNL     1      -0.069  -0.178   0.440  0.00  0.00    -0.001 C 
ENDBRANCH  22  24
ENDBRANCH  14  22
ENDBRANCH   1  14
TORSDOF 7
