REMARK  Name = ZINC43553259
REMARK  15 active torsions:
REMARK  status: ('A' for Active; 'I' for Inactive)
REMARK    1  A    between atoms: C_1  and  C_2
REMARK    2  A    between atoms: C_5  and  O_40
REMARK    3  A    between atoms: C_7  and  C_37
REMARK    4  A    between atoms: C_7  and  C_38
REMARK    5  A    between atoms: N_16  and  C_17
REMARK    6  A    between atoms: C_19  and  O_25
REMARK    7  A    between atoms: C_22  and  O_23
REMARK    8  A    between atoms: O_23  and  C_24
REMARK    9  A    between atoms: O_25  and  C_26
REMARK   10  A    between atoms: C_27  and  C_29
REMARK   11  A    between atoms: C_29  and  C_30
REMARK   12  A    between atoms: N_32  and  C_33
REMARK   13  A    between atoms: N_32  and  C_34
REMARK   14  A    between atoms: C_34  and  C_35
REMARK   15  A    between atoms: C_38  and  O_39
REMARK                            x       y       z     vdW  Elec       q    Type
REMARK                         _______ _______ _______ _____ _____    ______ ____
ROOT
ATOM      1  C   UNL     1       0.852   1.866  -0.224  0.00  0.00    +0.012 C 
ATOM      2  C   UNL     1       0.658   0.348  -0.353  0.00  0.00    -0.019 C 
ATOM      3  C   UNL     1      -0.826   0.062  -0.550  0.00  0.00    +0.010 C 
ATOM      4  C   UNL     1      -1.607   0.617   0.643  0.00  0.00    +0.032 C 
ATOM      5  C   UNL     1      -1.143   0.011   1.954  0.00  0.00    +0.123 C 
ATOM      6  C   UNL     1       0.364  -0.007   2.154  0.00  0.00    +0.021 C 
ATOM      7  C   UNL     1       1.144  -0.382   0.895  0.00  0.00    +0.011 C 
ATOM      8  C   UNL     1       1.000  -1.906   0.717  0.00  0.00    +0.049 C 
ATOM      9  C   UNL     1       1.268  -2.330  -0.682  0.00  0.00    +0.015 A 
ATOM     10  C   UNL     1       1.468  -1.542  -1.766  0.00  0.00    +0.058 A 
ATOM     11  N   UNL     1       1.661  -2.190  -2.910  0.00  0.00    -0.229 NA
ATOM     12  C   UNL     1       1.675  -3.505  -2.966  0.00  0.00    +0.163 A 
ATOM     13  S   UNL     1       1.407  -3.959  -1.365  0.00  0.00    -0.057 S 
ATOM     14  N   UNL     1       1.864  -4.317  -4.073  0.00  0.00    -0.291 N 
ATOM     15  C   UNL     1       1.484  -0.039  -1.583  0.00  0.00    +0.054 C 
ATOM     16  C   UNL     1       0.836   1.326   2.750  0.00  0.00    +0.016 C 
ATOM     17  H   UNL     1       1.911  -3.926  -4.960  0.00  0.00    +0.154 HD
ENDROOT
BRANCH  14  18
ATOM     18  C   UNL     1       1.987  -5.702  -3.912  0.00  0.00    +0.078 A 
ATOM     19  C   UNL     1       2.612  -6.218  -2.786  0.00  0.00    +0.072 A 
ATOM     20  C   UNL     1       2.732  -7.590  -2.629  0.00  0.00    +0.122 A 
ATOM     21  C   UNL     1       2.228  -8.447  -3.596  0.00  0.00    +0.049 A 
ATOM     22  C   UNL     1       1.605  -7.935  -4.720  0.00  0.00    +0.051 A 
ATOM     23  C   UNL     1       1.477  -6.566  -4.879  0.00  0.00    +0.141 A 
BRANCH  23  24
ATOM     24  O   UNL     1       0.858  -6.063  -5.982  0.00  0.00    -0.493 OA
ATOM     25  C   UNL     1       0.359  -7.007  -6.932  0.00  0.00    +0.277 C 
ENDBRANCH  23  24
BRANCH  20  26
ATOM     26  O   UNL     1       3.345  -8.097  -1.526  0.00  0.00    -0.495 OA
ATOM     27  C   UNL     1       3.434  -9.520  -1.429  0.00  0.00    +0.277 C 
ENDBRANCH  20  26
ENDBRANCH  14  18
BRANCH   5  28
ATOM     28  O   UNL     1      -1.673  -1.312   2.091  0.00  0.00    -0.391 OA
ATOM     29  H   UNL     1      -2.640  -1.351   2.088  0.00  0.00    +0.210 HD
ENDBRANCH   5  28
BRANCH  15  30
ATOM     30  C   UNL     1       0.953   0.658  -2.832  0.00  0.00    +0.106 C 
BRANCH  30  31
ATOM     31  C   UNL     1       1.857   0.355  -3.999  0.00  0.00    +0.216 C 
ATOM     32  O   UNL     1       2.832  -0.350  -3.844  0.00  0.00    -0.276 OA
ATOM     33  N   UNL     1       1.583   0.868  -5.215  0.00  0.00    -0.301 N 
ATOM     34  C   UNL     1       0.406   1.720  -5.402  0.00  0.00    +0.132 C 
BRANCH  33  35
ATOM     35  C   UNL     1       2.463   0.574  -6.349  0.00  0.00    +0.134 C 
BRANCH  35  36
ATOM     36  C   UNL     1       1.983  -0.673  -7.046  0.00  0.00    -0.016 C 
ATOM     37  C   UNL     1       1.722  -0.647  -8.329  0.00  0.00    +0.005 C 
ENDBRANCH  35  36
ENDBRANCH  33  35
ENDBRANCH  30  31
ENDBRANCH  15  30
BRANCH   6  38
ATOM     38  C   UNL     1       0.664  -1.068   3.245  0.00  0.00    +0.165 C 
BRANCH  38  39
ATOM     39  O   UNL     1      -0.002  -0.707   4.457  0.00  0.00    -0.394 OA
ATOM     40  H   UNL     1       0.141  -1.328   5.184  0.00  0.00    +0.209 HD
ENDBRANCH  38  39
ENDBRANCH   6  38
TORSDOF 10
