REMARK  Name = ZINC08952377
REMARK  7 active torsions:
REMARK  status: ('A' for Active; 'I' for Inactive)
REMARK    1  A    between atoms: C_1  and  C_2
REMARK    2  A    between atoms: C_2  and  C_28
REMARK    3  A    between atoms: C_8  and  C_19
REMARK    4  A    between atoms: C_16  and  C_17
REMARK    5  A    between atoms: C_16  and  C_18
REMARK    6  A    between atoms: C_19  and  O_20
REMARK    7  A    between atoms: O_20  and  C_21
REMARK                            x       y       z     vdW  Elec       q    Type
REMARK                         _______ _______ _______ _____ _____    ______ ____
ROOT
ATOM      1  C   UNL     1       2.608  -6.007  -6.430  0.00  0.00    -0.010 C 
ATOM      2  C   UNL     1       2.541  -7.171  -5.347  0.00  0.00    -0.069 C 
ATOM      3  C   UNL     1       1.995  -6.558  -4.036  0.00  0.00    +0.024 C 
ATOM      4  C   UNL     1       1.710  -7.644  -2.984  0.00  0.00    -0.027 A 
ATOM      5  C   UNL     1       1.762  -7.446  -1.550  0.00  0.00    +0.055 A 
ATOM      6  C   UNL     1       1.988  -6.230  -0.777  0.00  0.00    +0.168 A 
ATOM      7  N   UNL     1       2.238  -4.948  -1.207  0.00  0.00    -0.207 NA
ATOM      8  C   UNL     1       2.334  -4.233  -0.044  0.00  0.00    +0.189 A 
ATOM      9  N   UNL     1       2.130  -4.970   1.001  0.00  0.00    -0.145 NA
ATOM     10  N   UNL     1       1.930  -6.284   0.568  0.00  0.00    -0.201 N 
ATOM     11  C   UNL     1       1.726  -7.399   1.136  0.00  0.00    +0.226 A 
ATOM     12  N   UNL     1       1.595  -8.538   0.564  0.00  0.00    -0.228 NA
ATOM     13  C   UNL     1       1.566  -8.586  -0.816  0.00  0.00    +0.114 A 
ATOM     14  S   UNL     1       1.378  -9.879  -1.960  0.00  0.00    -0.075 S 
ATOM     15  C   UNL     1       1.556  -8.876  -3.470  0.00  0.00    -0.016 A 
ATOM     16  C   UNL     1       1.479  -9.349  -4.872  0.00  0.00    -0.041 C 
ATOM     17  C   UNL     1      -0.021  -9.818  -5.136  0.00  0.00    -0.005 C 
ATOM     18  C   UNL     1       2.395 -10.475  -5.149  0.00  0.00    -0.005 C 
ATOM     19  C   UNL     1       4.031  -7.604  -5.049  0.00  0.00    -0.010 C 
ATOM     20  N   UNL     1       1.684  -8.249  -5.833  0.00  0.00    +0.389 N 
ATOM     21  H   UNL     1       2.111  -8.640  -6.681  0.00  0.00    -0.084 HD
ATOM     22  H   UNL     1       0.767  -7.850  -6.064  0.00  0.00    -0.084 HD
ENDROOT
BRANCH   8  23
ATOM     23  C   UNL     1       2.516  -2.669  -0.037  0.00  0.00    +0.306 C 
BRANCH  23  24
ATOM     24  O   UNL     1       1.234  -2.039  -0.021  0.00  0.00    -0.484 OA
BRANCH  24  25
ATOM     25  C   UNL     1       1.213  -0.680  -0.013  0.00  0.00    +0.121 A 
ATOM     26  C   UNL     1       0.002  -0.004   0.002  0.00  0.00    +0.047 A 
ATOM     27  C   UNL     1      -0.017   1.377   0.010  0.00  0.00    +0.023 A 
ATOM     28  C   UNL     1       1.172   2.086   0.002  0.00  0.00    +0.041 A 
ATOM     29  C   UNL     1       2.381   1.413  -0.013  0.00  0.00    +0.023 A 
ATOM     30  C   UNL     1       2.403   0.032  -0.021  0.00  0.00    +0.047 A 
ATOM     31 CL   UNL     1       1.145   3.822   0.011  0.00  0.00    -0.084 Cl
ENDBRANCH  24  25
ENDBRANCH  23  24
ENDBRANCH   8  23
TORSDOF 3
