REMARK  Name = ZINC64143968
REMARK  12 active torsions:
REMARK  status: ('A' for Active; 'I' for Inactive)
REMARK    1  A    between atoms: C_1  and  O_2
REMARK    2  A    between atoms: O_2  and  C_3
REMARK    3  A    between atoms: C_6  and  C_9
REMARK    4  A    between atoms: C_9  and  C_11
REMARK    5  A    between atoms: C_9  and  C_28
REMARK    6  A    between atoms: C_11  and  N_12
REMARK    7  A    between atoms: C_13  and  C_15
REMARK    8  A    between atoms: C_18  and  O_23
REMARK    9  A    between atoms: C_19  and  O_21
REMARK   10  A    between atoms: O_21  and  C_22
REMARK   11  A    between atoms: O_23  and  C_24
REMARK   12  A    between atoms: C_24  and  C_25
REMARK                            x       y       z     vdW  Elec       q    Type
REMARK                         _______ _______ _______ _____ _____    ______ ____
ROOT
ATOM      1  C   UNL     1       1.490  -3.382  -5.115  0.00  0.00    +0.117 C 
ENDROOT
BRANCH   1   2
ATOM      2  N   UNL     1       2.107  -3.938  -6.322  0.00  0.00    -0.310 N 
ATOM      3  C   UNL     1       1.395  -4.747  -7.131  0.00  0.00    +0.244 C 
ATOM      4  O   UNL     1       0.241  -5.017  -6.859  0.00  0.00    -0.270 OA
ATOM      5  H   UNL     1       3.027  -3.722  -6.539  0.00  0.00    +0.149 HD
BRANCH   3   6
ATOM      6  C   UNL     1       2.017  -5.307  -8.347  0.00  0.00    +0.040 A 
ATOM      7  C   UNL     1       3.345  -5.003  -8.658  0.00  0.00    +0.017 A 
ATOM      8  C   UNL     1       3.924  -5.527  -9.793  0.00  0.00    +0.050 A 
ATOM      9  C   UNL     1       3.191  -6.357 -10.631  0.00  0.00    +0.163 A 
ATOM     10  C   UNL     1       1.866  -6.664 -10.327  0.00  0.00    +0.162 A 
ATOM     11  C   UNL     1       1.281  -6.147  -9.187  0.00  0.00    +0.062 A 
BRANCH  10  12
ATOM     12  O   UNL     1       1.150  -7.476 -11.150  0.00  0.00    -0.491 OA
ATOM     13  C   UNL     1      -0.202  -7.749 -10.777  0.00  0.00    +0.277 C 
ENDBRANCH  10  12
BRANCH   9  14
ATOM     14  O   UNL     1       3.767  -6.870 -11.749  0.00  0.00    -0.479 OA
BRANCH  14  15
ATOM     15  C   UNL     1       5.127  -6.514 -12.000  0.00  0.00    +0.324 C 
BRANCH  15  16
ATOM     16  C   UNL     1       5.592  -7.172 -13.274  0.00  0.00    +0.248 C 
ATOM     17  O   UNL     1       4.832  -7.876 -13.904  0.00  0.00    -0.272 OA
ATOM     18  N   UNL     1       6.851  -6.977 -13.712  0.00  0.00    -0.327 N 
ATOM     19  H   UNL     1       7.459  -6.414 -13.208  0.00  0.00    +0.145 HD
ATOM     20  H   UNL     1       7.150  -7.401 -14.532  0.00  0.00    +0.145 HD
ENDBRANCH  15  16
ENDBRANCH  14  15
ENDBRANCH   9  14
ENDBRANCH   3   6
ENDBRANCH   1   2
BRANCH   1  21
ATOM     21  C   UNL     1       2.505  -2.503  -4.381  0.00  0.00    +0.064 C 
BRANCH  21  22
ATOM     22  C   UNL     1       3.645  -3.357  -3.889  0.00  0.00    -0.033 C 
ATOM     23  C   UNL     1       4.952  -3.232  -4.212  0.00  0.00    -0.000 A 
ATOM     24  C   UNL     1       5.677  -2.300  -5.084  0.00  0.00    +0.010 A 
ATOM     25  C   UNL     1       7.017  -2.426  -5.210  0.00  0.00    +0.001 A 
ATOM     26  C   UNL     1       7.731  -3.423  -4.531  0.00  0.00    +0.002 A 
ATOM     27  C   UNL     1       7.135  -4.316  -3.712  0.00  0.00    +0.026 A 
ATOM     28  C   UNL     1       5.729  -4.275  -3.505  0.00  0.00    +0.043 A 
ATOM     29  N   UNL     1       4.932  -5.017  -2.774  0.00  0.00    -0.380 N 
ATOM     30  C   UNL     1       3.560  -4.523  -2.930  0.00  0.00    +0.145 C 
ATOM     31  H   UNL     1       5.205  -5.764  -2.220  0.00  0.00    +0.160 HD
ENDBRANCH  21  22
BRANCH  21  35
ATOM     32  C   UNL     1       0.606  -0.607  -1.056  0.00  0.00    +0.120 A 
ATOM     33  C   UNL     1       1.173   0.161  -2.062  0.00  0.00    +0.046 A 
ATOM     34  C   UNL     1       1.786  -0.455  -3.136  0.00  0.00    +0.008 A 
ATOM     35  C   UNL     1       1.835  -1.835  -3.209  0.00  0.00    -0.038 A 
ATOM     36  C   UNL     1       1.270  -2.602  -2.207  0.00  0.00    +0.008 A 
ATOM     37  C   UNL     1       0.661  -1.992  -1.128  0.00  0.00    +0.046 A 
BRANCH  32  39
ATOM     38  C   UNL     1      -0.017   1.425   0.010  0.00  0.00    +0.277 C 
ATOM     39  O   UNL     1       0.002  -0.004   0.002  0.00  0.00    -0.495 OA
ENDBRANCH  32  39
ENDBRANCH  21  35
ENDBRANCH   1  21
TORSDOF 10
