REMARK  Name = ZINC12562848
REMARK  13 active torsions:
REMARK  status: ('A' for Active; 'I' for Inactive)
REMARK    1  A    between atoms: C_1  and  C_2
REMARK    2  A    between atoms: C_2  and  C_26
REMARK    3  A    between atoms: N_3  and  N_4
REMARK    4  A    between atoms: N_4  and  C_5
REMARK    5  A    between atoms: C_8  and  S_14
REMARK    6  A    between atoms: C_10  and  N_11
REMARK    7  A    between atoms: S_14  and  N_17
REMARK    8  A    between atoms: N_17  and  C_18
REMARK    9  A    between atoms: C_23  and  O_24
REMARK   10  A    between atoms: O_24  and  C_25
REMARK   11  A    between atoms: C_26  and  C_27
REMARK   12  A    between atoms: C_30  and  O_33
REMARK   13  A    between atoms: O_33  and  C_34
REMARK                            x       y       z     vdW  Elec       q    Type
REMARK                         _______ _______ _______ _____ _____    ______ ____
ROOT
ATOM      1  C   UNL     1      -0.936  -1.041  -0.420  0.00  0.00    +0.079 A 
ATOM      2  C   UNL     1      -2.071  -0.244  -0.337  0.00  0.00    +0.029 A 
ATOM      3  C   UNL     1      -3.315  -0.828  -0.203  0.00  0.00    +0.031 A 
ATOM      4  C   UNL     1      -3.432  -2.205  -0.152  0.00  0.00    +0.111 A 
ATOM      5  C   UNL     1      -2.304  -3.002  -0.234  0.00  0.00    +0.063 A 
ATOM      6  C   UNL     1      -1.058  -2.424  -0.374  0.00  0.00    +0.150 A 
ENDROOT
BRANCH   6   7
ATOM      7  N   UNL     1       0.148  -3.278  -0.469  0.00  0.00    +0.058 N 
ATOM      8  O   UNL     1       0.033  -4.489  -0.534  0.00  0.00    -0.126 OA
ATOM      9  O   UNL     1       1.254  -2.769  -0.484  0.00  0.00    -0.126 OA
ENDBRANCH   6   7
BRANCH   4  10
ATOM     10  S   UNL     1      -5.021  -2.947   0.019  0.00  0.00    +0.073 S 
ATOM     11  O   UNL     1      -4.811  -4.231   0.591  0.00  0.00    -0.150 OA
ATOM     12  O   UNL     1      -5.861  -1.973   0.623  0.00  0.00    -0.150 OA
BRANCH  10  13
ATOM     13  N   UNL     1      -5.611  -3.199  -1.507  0.00  0.00    -0.213 N 
ATOM     14  H   UNL     1      -6.439  -2.776  -1.783  0.00  0.00    +0.174 HD
BRANCH  13  15
ATOM     15  C   UNL     1      -4.914  -4.022  -2.400  0.00  0.00    +0.090 A 
ATOM     16  C   UNL     1      -4.244  -5.143  -1.933  0.00  0.00    +0.028 A 
ATOM     17  C   UNL     1      -3.560  -5.957  -2.817  0.00  0.00    +0.002 A 
ATOM     18  C   UNL     1      -3.534  -5.650  -4.165  0.00  0.00    +0.004 A 
ATOM     19  C   UNL     1      -4.195  -4.531  -4.637  0.00  0.00    +0.047 A 
ATOM     20  C   UNL     1      -4.886  -3.713  -3.758  0.00  0.00    +0.142 A 
BRANCH  20  21
ATOM     21  O   UNL     1      -5.536  -2.612  -4.220  0.00  0.00    -0.493 OA
ATOM     22  C   UNL     1      -5.465  -2.358  -5.625  0.00  0.00    +0.277 C 
ENDBRANCH  20  21
ENDBRANCH  13  15
ENDBRANCH  10  13
ENDBRANCH   4  10
BRANCH   1  23
ATOM     23  N   UNL     1       0.323  -0.454  -0.556  0.00  0.00    -0.236 N 
ATOM     24  H   UNL     1       1.121  -1.006  -0.537  0.00  0.00    +0.174 HD
BRANCH  23  27
ATOM     25  C   UNL     1       2.829   0.614  -0.814  0.00  0.00    +0.063 C 
ATOM     26  C   UNL     1       1.590   1.472  -0.843  0.00  0.00    +0.038 C 
ATOM     27  N   UNL     1       0.435   0.933  -0.719  0.00  0.00    -0.191 NA
BRANCH  26  28
ATOM     28  C   UNL     1       1.710   2.964  -1.019  0.00  0.00    +0.087 C 
BRANCH  28  29
ATOM     29  C   UNL     1       2.418   3.555   0.173  0.00  0.00    -0.042 A 
ATOM     30  C   UNL     1       1.688   3.980   1.268  0.00  0.00    +0.007 A 
ATOM     31  C   UNL     1       2.335   4.517   2.364  0.00  0.00    +0.046 A 
ATOM     32  C   UNL     1       3.717   4.639   2.361  0.00  0.00    +0.120 A 
ATOM     33  C   UNL     1       4.446   4.216   1.260  0.00  0.00    +0.046 A 
ATOM     34  C   UNL     1       3.795   3.675   0.168  0.00  0.00    +0.007 A 
BRANCH  32  35
ATOM     35  O   UNL     1       4.355   5.171   3.437  0.00  0.00    -0.495 OA
ATOM     36  C   UNL     1       3.540   5.585   4.535  0.00  0.00    +0.277 C 
ENDBRANCH  32  35
ENDBRANCH  28  29
ENDBRANCH  26  28
ENDBRANCH  23  27
ENDBRANCH   1  23
TORSDOF 10
