REMARK  Name = ZINC36743240
REMARK  5 active torsions:
REMARK  status: ('A' for Active; 'I' for Inactive)
REMARK    1  A    between atoms: C_3  and  C_19
REMARK    2  A    between atoms: C_5  and  S_7
REMARK    3  A    between atoms: S_7  and  N_10
REMARK    4  A    between atoms: N_10  and  C_11
REMARK    5  A    between atoms: C_13  and  N_18
REMARK                            x       y       z     vdW  Elec       q    Type
REMARK                         _______ _______ _______ _____ _____    ______ ____
ROOT
ATOM      1  S   UNL     1       1.182  -2.445  -0.021  0.00  0.00    +0.092 S 
ATOM      2  O   UNL     1      -0.087  -2.835  -0.527  0.00  0.00    -0.148 OA
ATOM      3  O   UNL     1       2.402  -2.860  -0.621  0.00  0.00    -0.148 OA
ENDROOT
BRANCH   1   8
ATOM      4  C   UNL     1       0.013   1.402   0.051  0.00  0.00    +0.003 A 
ATOM      5  C   UNL     1       1.208   2.091   0.011  0.00  0.00    +0.019 A 
ATOM      6  C   UNL     1       2.414   1.389  -0.040  0.00  0.00    +0.054 A 
ATOM      7  C   UNL     1       2.401  -0.007  -0.049  0.00  0.00    +0.047 A 
ATOM      8  C   UNL     1       1.200  -0.683  -0.009  0.00  0.00    +0.112 A 
ATOM      9  C   UNL     1       0.009   0.019   0.041  0.00  0.00    +0.029 A 
BRANCH   6  10
ATOM     10  C   UNL     1       3.657   2.098  -0.082  0.00  0.00    +0.099 C 
ATOM     11  N   UNL     1       4.644   2.660  -0.115  0.00  0.00    -0.191 NA
ENDBRANCH   6  10
ENDBRANCH   1   8
BRANCH   1  12
ATOM     12  N   UNL     1       1.237  -2.946   1.557  0.00  0.00    -0.096 NA
BRANCH  12  13
ATOM     13  C   UNL     1       1.144  -4.307   1.861  0.00  0.00    +0.094 A 
ATOM     14  C   UNL     1       1.146  -5.248   0.842  0.00  0.00    +0.051 A 
ATOM     15  C   UNL     1       1.054  -6.599   1.149  0.00  0.00    +0.026 A 
ATOM     16  C   UNL     1       0.960  -7.004   2.475  0.00  0.00    +0.024 A 
ATOM     17  C   UNL     1       0.957  -6.064   3.488  0.00  0.00    +0.024 A 
ATOM     18  C   UNL     1       1.054  -4.719   3.186  0.00  0.00    +0.066 A 
ATOM     19 CL   UNL     1       1.058  -3.542   4.463  0.00  0.00    -0.082 Cl
BRANCH  15  20
ATOM     20  N   UNL     1       1.056  -7.550   0.125  0.00  0.00    -0.358 N 
ATOM     21  H   UNL     1       1.121  -7.266  -0.800  0.00  0.00    +0.142 HD
ATOM     22  H   UNL     1       0.991  -8.494   0.340  0.00  0.00    +0.142 HD
ENDBRANCH  15  20
ENDBRANCH  12  13
ENDBRANCH   1  12
TORSDOF 5
