REMARK  Name = ZINC63696135
REMARK  6 active torsions:
REMARK  status: ('A' for Active; 'I' for Inactive)
REMARK    1  A    between atoms: C_6  and  C_10
REMARK    2  A    between atoms: C_14  and  N_16
REMARK    3  A    between atoms: C_17  and  C_19
REMARK    4  A    between atoms: C_19  and  C_20
REMARK    5  A    between atoms: C_20  and  S_21
REMARK    6  A    between atoms: S_21  and  C_24
REMARK                            x       y       z     vdW  Elec       q    Type
REMARK                         _______ _______ _______ _____ _____    ______ ____
ROOT
ATOM      1  C   UNL     1       3.626  -2.886  -1.204  0.00  0.00    -0.004 A 
ATOM      2  C   UNL     1       4.732  -2.416  -1.888  0.00  0.00    +0.007 A 
ATOM      3  C   UNL     1       5.067  -2.952  -3.117  0.00  0.00    +0.002 A 
ATOM      4  C   UNL     1       4.298  -3.960  -3.666  0.00  0.00    +0.023 A 
ATOM      5  C   UNL     1       3.187  -4.434  -2.981  0.00  0.00    +0.034 A 
ATOM      6  C   UNL     1       2.856  -3.897  -1.744  0.00  0.00    +0.030 A 
ENDROOT
BRANCH   1  12
ATOM      7  C   UNL     1       0.017   0.888   0.790  0.00  0.00    +0.002 A 
ATOM      8  C   UNL     1       1.138   1.734   0.722  0.00  0.00    +0.002 A 
ATOM      9  C   UNL     1       2.389   1.270   0.532  0.00  0.00    +0.027 A 
ATOM     10  C   UNL     1       2.611  -0.176   0.388  0.00  0.00    +0.060 A 
ATOM     11  N   UNL     1       3.681  -0.892   0.199  0.00  0.00    -0.360 N 
ATOM     12  C   UNL     1       3.265  -2.299   0.137  0.00  0.00    +0.206 C 
ATOM     13  N   UNL     1       1.807  -2.307   0.314  0.00  0.00    -0.360 N 
ATOM     14  C   UNL     1       1.424  -1.071   0.461  0.00  0.00    +0.060 A 
ATOM     15  C   UNL     1       0.109  -0.451   0.671  0.00  0.00    +0.027 A 
ATOM     16  H   UNL     1       4.588  -0.558   0.115  0.00  0.00    +0.162 HD
ATOM     17  H   UNL     1       1.234  -3.090   0.320  0.00  0.00    +0.162 HD
ENDBRANCH   1  12
BRANCH   5  18
ATOM     18  N   UNL     1       2.405  -5.454  -3.534  0.00  0.00    -0.285 N 
ATOM     19  C   UNL     1       2.981  -6.410  -4.289  0.00  0.00    +0.219 C 
ATOM     20  O   UNL     1       4.187  -6.442  -4.411  0.00  0.00    -0.275 OA
ATOM     21  H   UNL     1       1.448  -5.473  -3.375  0.00  0.00    +0.155 HD
BRANCH  19  22
ATOM     22  C   UNL     1       2.126  -7.440  -4.982  0.00  0.00    +0.119 C 
BRANCH  22  23
ATOM     23  C   UNL     1       3.021  -8.402  -5.767  0.00  0.00    +0.181 C 
BRANCH  23  24
ATOM     24  S   UNL     1       1.992  -9.641  -6.601  0.00  0.00    -0.003 S 
ATOM     25  O   UNL     1       1.380 -10.494  -5.644  0.00  0.00    -0.169 OA
ATOM     26  O   UNL     1       1.220  -9.027  -7.624  0.00  0.00    -0.169 OA
BRANCH  24  27
ATOM     27  C   UNL     1       3.134 -10.674  -7.459  0.00  0.00    +0.088 A 
ATOM     28  C   UNL     1       3.508 -10.364  -8.753  0.00  0.00    +0.030 A 
ATOM     29  C   UNL     1       4.403 -11.174  -9.426  0.00  0.00    +0.040 A 
ATOM     30  C   UNL     1       4.926 -12.295  -8.804  0.00  0.00    +0.124 A 
ATOM     31  C   UNL     1       4.550 -12.604  -7.508  0.00  0.00    +0.040 A 
ATOM     32  C   UNL     1       3.659 -11.790  -6.834  0.00  0.00    +0.030 A 
ATOM     33  F   UNL     1       5.801 -13.087  -9.461  0.00  0.00    -0.205 F 
ENDBRANCH  24  27
ENDBRANCH  23  24
ENDBRANCH  22  23
ENDBRANCH  19  22
ENDBRANCH   5  18
TORSDOF 6
