REMARK  Name = ZINC17920609
REMARK  4 active torsions:
REMARK  status: ('A' for Active; 'I' for Inactive)
REMARK    1  A    between atoms: C_3  and  N_26
REMARK    2  A    between atoms: C_4  and  N_23
REMARK    3  A    between atoms: C_6  and  N_7
REMARK    4  A    between atoms: N_26  and  C_27
REMARK                            x       y       z     vdW  Elec       q    Type
REMARK                         _______ _______ _______ _____ _____    ______ ____
ROOT
ATOM      1  C   UNL     1       1.148  -2.126  -3.893  0.00  0.00    +0.026 A 
ATOM      2  C   UNL     1       1.309  -1.794  -2.562  0.00  0.00    +0.027 A 
ATOM      3  C   UNL     1       1.029  -2.729  -1.574  0.00  0.00    +0.058 A 
ATOM      4  C   UNL     1       0.592  -4.000  -1.925  0.00  0.00    +0.149 A 
ATOM      5  C   UNL     1       0.426  -4.330  -3.256  0.00  0.00    +0.058 A 
ATOM      6  C   UNL     1       0.705  -3.395  -4.243  0.00  0.00    +0.046 A 
ENDROOT
BRANCH   6   7
ATOM      7  N   UNL     1       0.541  -3.732  -5.596  0.00  0.00    -0.210 N 
ATOM      8  C   UNL     1       1.322  -4.621  -6.219  0.00  0.00    +0.231 C 
ATOM      9  O   UNL     1       2.240  -5.226  -5.708  0.00  0.00    -0.274 OA
ATOM     10  C   UNL     1       0.881  -4.757  -7.659  0.00  0.00    +0.095 C 
ATOM     11  C   UNL     1       0.206  -6.153  -7.839  0.00  0.00    +0.025 C 
ATOM     12  C   UNL     1      -1.153  -5.914  -7.087  0.00  0.00    +0.016 C 
ATOM     13  C   UNL     1      -1.544  -4.690  -7.993  0.00  0.00    +0.025 C 
ATOM     14  C   UNL     1      -0.312  -3.761  -7.762  0.00  0.00    +0.095 C 
ATOM     15  C   UNL     1      -0.405  -3.186  -6.367  0.00  0.00    +0.231 C 
ATOM     16  O   UNL     1      -1.213  -2.358  -6.004  0.00  0.00    -0.274 OA
ATOM     17  C   UNL     1      -1.300  -5.301  -9.378  0.00  0.00    -0.027 C 
ATOM     18  C   UNL     1      -0.291  -6.144  -9.290  0.00  0.00    -0.027 C 
ENDBRANCH   6   7
BRANCH   4  19
ATOM     19  N   UNL     1       0.299  -4.999  -0.873  0.00  0.00    +0.058 N 
ATOM     20  O   UNL     1       0.569  -6.173  -1.055  0.00  0.00    -0.126 OA
ATOM     21  O   UNL     1      -0.213  -4.648   0.175  0.00  0.00    -0.126 OA
ENDBRANCH   4  19
BRANCH   3  22
ATOM     22  N   UNL     1       1.193  -2.394  -0.227  0.00  0.00    -0.331 N 
ATOM     23  H   UNL     1       1.077  -3.070   0.459  0.00  0.00    +0.147 HD
BRANCH  22  24
ATOM     24  C   UNL     1       1.541  -1.021   0.149  0.00  0.00    +0.157 C 
ATOM     25  C   UNL     1       2.233  -1.017   1.514  0.00  0.00    +0.032 C 
ATOM     26  C   UNL     1       3.118   0.207   1.664  0.00  0.00    +0.004 C 
ATOM     27  C   UNL     1       2.351   1.515   1.719  0.00  0.00    +0.019 C 
ATOM     28  C   UNL     1       1.675   1.808   0.378  0.00  0.00    +0.104 C 
ATOM     29  N   UNL     1       0.363   1.141   0.356  0.00  0.00    -0.314 N 
ATOM     30  C   UNL     1       0.282  -0.186   0.246  0.00  0.00    +0.233 C 
ATOM     31  O   UNL     1      -0.804  -0.725   0.224  0.00  0.00    -0.274 OA
ATOM     32  H   UNL     1      -0.447   1.670   0.418  0.00  0.00    +0.149 HD
ENDBRANCH  22  24
ENDBRANCH   3  22
TORSDOF 4
