REMARK  Name = ZINC66278379
REMARK  6 active torsions:
REMARK  status: ('A' for Active; 'I' for Inactive)
REMARK    1  A    between atoms: C_1  and  C_2
REMARK    2  A    between atoms: C_2  and  C_4
REMARK    3  A    between atoms: C_2  and  N_19
REMARK    4  A    between atoms: C_4  and  C_5
REMARK    5  A    between atoms: N_7  and  C_8
REMARK    6  A    between atoms: C_20  and  C_22
REMARK                            x       y       z     vdW  Elec       q    Type
REMARK                         _______ _______ _______ _____ _____    ______ ____
ROOT
ATOM      1  C   UNL     1       0.655  -2.014   1.299  0.00  0.00    +0.219 C 
ATOM      2  O   UNL     1       0.053  -2.620   0.437  0.00  0.00    -0.275 OA
ATOM      3  N   UNL     1       1.241  -2.685   2.311  0.00  0.00    -0.285 N 
ATOM      4  H   UNL     1       1.778  -2.208   2.962  0.00  0.00    +0.155 HD
ENDROOT
BRANCH   3   5
ATOM      5  C   UNL     1       1.073  -4.072   2.421  0.00  0.00    +0.035 A 
ATOM      6  C   UNL     1       0.997  -4.853   1.275  0.00  0.00    +0.024 A 
ATOM      7  C   UNL     1       0.835  -6.221   1.383  0.00  0.00    +0.018 A 
ATOM      8  C   UNL     1       0.747  -6.810   2.634  0.00  0.00    +0.030 A 
ATOM      9  C   UNL     1       0.819  -6.034   3.792  0.00  0.00    +0.049 A 
ATOM     10  C   UNL     1       0.991  -4.660   3.674  0.00  0.00    +0.047 A 
ATOM     11  N   UNL     1       0.723  -6.605   5.058  0.00  0.00    -0.284 N 
ATOM     12  C   UNL     1       0.962  -7.877   5.369  0.00  0.00    +0.227 C 
ATOM     13  O   UNL     1       0.843  -8.215   6.527  0.00  0.00    -0.275 OA
ATOM     14  C   UNL     1       1.370  -8.917   4.362  0.00  0.00    +0.170 C 
ATOM     15  S   UNL     1       0.545  -8.557   2.782  0.00  0.00    -0.114 S 
ATOM     16  H   UNL     1       0.457  -6.019   5.784  0.00  0.00    +0.155 HD
ENDBRANCH   3   5
BRANCH   1  17
ATOM     17  C   UNL     1       0.748  -0.511   1.238  0.00  0.00    +0.118 C 
BRANCH  17  19
ATOM     18  C   UNL     1      -0.009   1.526   0.005  0.00  0.00    +0.028 C 
ATOM     19  C   UNL     1       0.004  -0.004   0.001  0.00  0.00    +0.079 C 
BRANCH  19  20
ATOM     20  N   UNL     1       0.682  -0.483  -1.206  0.00  0.00    -0.312 N 
ATOM     21  C   UNL     1      -0.006  -0.614  -2.358  0.00  0.00    +0.216 C 
ATOM     22  O   UNL     1      -1.186  -0.336  -2.395  0.00  0.00    -0.276 OA
ATOM     23  H   UNL     1       1.625  -0.706  -1.177  0.00  0.00    +0.149 HD
BRANCH  21  24
ATOM     24  C   UNL     1       0.691  -1.107  -3.600  0.00  0.00    +0.075 C 
ATOM     25  C   UNL     1       1.831  -0.153  -3.958  0.00  0.00    +0.013 C 
ATOM     26  C   UNL     1       2.539  -0.653  -5.219  0.00  0.00    +0.001 C 
ATOM     27  C   UNL     1       1.539  -0.710  -6.376  0.00  0.00    +0.000 C 
ATOM     28  C   UNL     1       0.398  -1.664  -6.018  0.00  0.00    +0.001 C 
ATOM     29  C   UNL     1      -0.309  -1.164  -4.757  0.00  0.00    +0.013 C 
ENDBRANCH  21  24
ENDBRANCH  19  20
ENDBRANCH  17  19
ENDBRANCH   1  17
TORSDOF 5
