REMARK  Name = ZINC38901854
REMARK  10 active torsions:
REMARK  status: ('A' for Active; 'I' for Inactive)
REMARK    1  A    between atoms: C_1  and  C_2
REMARK    2  A    between atoms: C_2  and  C_3
REMARK    3  A    between atoms: C_3  and  C_5
REMARK    4  A    between atoms: C_3  and  N_15
REMARK    5  A    between atoms: C_8  and  S_11
REMARK    6  A    between atoms: S_11  and  C_14
REMARK    7  A    between atoms: C_16  and  C_18
REMARK    8  A    between atoms: N_23  and  C_25
REMARK    9  A    between atoms: C_25  and  C_26
REMARK   10  A    between atoms: C_28  and  C_31
REMARK                            x       y       z     vdW  Elec       q    Type
REMARK                         _______ _______ _______ _____ _____    ______ ____
ROOT
ATOM      1  C   UNL     1      -0.688   1.503  -4.202  0.00  0.00    +0.058 C 
ATOM      2  C   UNL     1      -0.371   0.544  -5.353  0.00  0.00    +0.009 C 
ATOM      3  C   UNL     1      -1.123   1.000  -6.606  0.00  0.00    -0.018 C 
ATOM      4  C   UNL     1      -0.735   2.444  -6.931  0.00  0.00    -0.078 C 
ATOM      5  N   UNL     1      -1.087   3.315  -5.803  0.00  0.00    +0.386 N 
ATOM      6  C   UNL     1      -0.317   2.929  -4.615  0.00  0.00    -0.065 C 
ATOM      7  H   UNL     1      -2.073   3.226  -5.606  0.00  0.00    -0.081 HD
ENDROOT
BRANCH   1   9
ATOM      8  N   UNL     1      -0.055  -0.114  -2.441  0.00  0.00    -0.308 N 
ATOM      9  C   UNL     1       0.107   1.109  -2.984  0.00  0.00    +0.215 C 
ATOM     10  O   UNL     1       0.893   1.891  -2.493  0.00  0.00    -0.276 OA
ATOM     11  H   UNL     1      -0.683  -0.740  -2.833  0.00  0.00    +0.149 HD
BRANCH   8  12
ATOM     12  C   UNL     1       0.718  -0.497  -1.257  0.00  0.00    +0.103 C 
BRANCH  12  13
ATOM     13  C   UNL     1       0.847  -1.998  -1.206  0.00  0.00    -0.027 A 
ATOM     14  C   UNL     1      -0.227  -2.796  -1.552  0.00  0.00    +0.007 A 
ATOM     15  C   UNL     1      -0.108  -4.173  -1.505  0.00  0.00    +0.027 A 
ATOM     16  C   UNL     1       1.084  -4.751  -1.113  0.00  0.00    +0.088 A 
ATOM     17  C   UNL     1       2.159  -3.953  -0.767  0.00  0.00    +0.027 A 
ATOM     18  C   UNL     1       2.042  -2.576  -0.818  0.00  0.00    +0.007 A 
BRANCH  16  19
ATOM     19  S   UNL     1       1.235  -6.505  -1.052  0.00  0.00    -0.006 S 
ATOM     20  O   UNL     1       2.248  -6.749  -0.086  0.00  0.00    -0.170 OA
ATOM     21  O   UNL     1      -0.090  -6.976  -0.847  0.00  0.00    -0.170 OA
ATOM     22  C   UNL     1       1.818  -6.981  -2.702  0.00  0.00    +0.200 C 
ENDBRANCH  16  19
ENDBRANCH  12  13
BRANCH  12  24
ATOM     23  C   UNL     1      -0.019   1.526   0.010  0.00  0.00    +0.006 C 
ATOM     24  C   UNL     1       0.002  -0.004   0.002  0.00  0.00    +0.024 C 
ENDBRANCH  12  24
ENDBRANCH   8  12
ENDBRANCH   1   9
BRANCH   5  25
ATOM     25  C   UNL     1      -0.784   4.710  -6.150  0.00  0.00    +0.022 C 
BRANCH  25  26
ATOM     26  C   UNL     1      -1.672   5.149  -7.286  0.00  0.00    +0.211 A 
ATOM     27  N   UNL     1      -2.843   5.706  -7.165  0.00  0.00    -0.193 NA
ATOM     28  C   UNL     1      -3.356   5.968  -8.381  0.00  0.00    +0.202 A 
ATOM     29  N   UNL     1      -2.499   5.572  -9.291  0.00  0.00    -0.056 NA
ATOM     30  O   UNL     1      -1.386   5.038  -8.590  0.00  0.00    -0.340 OA
BRANCH  28  31
ATOM     31  C   UNL     1      -4.672   6.599  -8.648  0.00  0.00    +0.023 A 
ATOM     32  C   UNL     1      -5.491   6.981  -7.588  0.00  0.00    +0.014 A 
ATOM     33  C   UNL     1      -6.714   7.568  -7.840  0.00  0.00    +0.039 A 
ATOM     34  C   UNL     1      -7.128   7.778  -9.146  0.00  0.00    +0.123 A 
ATOM     35  C   UNL     1      -6.316   7.399 -10.203  0.00  0.00    +0.039 A 
ATOM     36  C   UNL     1      -5.089   6.817  -9.960  0.00  0.00    +0.014 A 
ATOM     37  F   UNL     1      -8.326   8.353  -9.389  0.00  0.00    -0.205 F 
ENDBRANCH  28  31
ENDBRANCH  25  26
ENDBRANCH   5  25
TORSDOF 8
