REMARK  Name = ZINC02153341
REMARK  8 active torsions:
REMARK  status: ('A' for Active; 'I' for Inactive)
REMARK    1  A    between atoms: C_2  and  C_15
REMARK    2  A    between atoms: C_4  and  C_11
REMARK    3  A    between atoms: C_6  and  C_7
REMARK    4  A    between atoms: N_17  and  N_18
REMARK    5  A    between atoms: C_19  and  C_21
REMARK    6  A    between atoms: C_21  and  N_22
REMARK    7  A    between atoms: C_24  and  C_27
REMARK    8  A    between atoms: C_27  and  N_28
REMARK                            x       y       z     vdW  Elec       q    Type
REMARK                         _______ _______ _______ _____ _____    ______ ____
ROOT
ATOM      1  C   UNL     1       1.172   3.565   0.009  0.00  0.00    +0.260 C 
ATOM      2  O   UNL     1       0.114   4.164   0.022  0.00  0.00    -0.269 OA
ATOM      3  N   UNL     1       2.333   4.249   0.002  0.00  0.00    -0.230 N 
ATOM      4  H   UNL     1       3.177   3.771  -0.008  0.00  0.00    +0.173 HD
ENDROOT
BRANCH   1   6
ATOM      5  C   UNL     1      -0.017   1.375   0.010  0.00  0.00    +0.025 A 
ATOM      6  C   UNL     1       1.184   2.087   0.002  0.00  0.00    +0.039 A 
ATOM      7  C   UNL     1       2.397   1.396  -0.013  0.00  0.00    +0.025 A 
ATOM      8  C   UNL     1       2.402   0.016  -0.021  0.00  0.00    +0.056 A 
ATOM      9  C   UNL     1       1.208  -0.682  -0.013  0.00  0.00    +0.024 A 
ATOM     10  C   UNL     1       0.002  -0.004   0.002  0.00  0.00    +0.056 A 
BRANCH  10  11
ATOM     11  C   UNL     1      -1.294  -0.774   0.011  0.00  0.00    +0.417 C 
ATOM     12  F   UNL     1      -2.368   0.122   0.026  0.00  0.00    -0.166 F 
ATOM     13  F   UNL     1      -1.369  -1.573  -1.135  0.00  0.00    -0.166 F 
ATOM     14  F   UNL     1      -1.347  -1.585   1.149  0.00  0.00    -0.166 F 
ENDBRANCH  10  11
BRANCH   8  15
ATOM     15  C   UNL     1       3.710  -0.731  -0.038  0.00  0.00    +0.417 C 
ATOM     16  F   UNL     1       4.769   0.183  -0.043  0.00  0.00    -0.166 F 
ATOM     17  F   UNL     1       3.800  -1.541   1.099  0.00  0.00    -0.166 F 
ATOM     18  F   UNL     1       3.777  -1.529  -1.185  0.00  0.00    -0.166 F 
ENDBRANCH   8  15
ENDBRANCH   1   6
BRANCH   3  19
ATOM     19  N   UNL     1       2.321   5.650   0.009  0.00  0.00    -0.233 N 
ATOM     20  C   UNL     1       3.483   6.333   0.002  0.00  0.00    +0.252 C 
ATOM     21  O   UNL     1       4.538   5.736  -0.011  0.00  0.00    -0.272 OA
ATOM     22  H   UNL     1       1.477   6.128   0.020  0.00  0.00    +0.173 HD
BRANCH  20  23
ATOM     23  C   UNL     1       3.470   7.840   0.010  0.00  0.00    +0.265 C 
BRANCH  23  24
ATOM     24  N   UNL     1       4.847   8.340  -0.001  0.00  0.00    -0.154 N 
ATOM     25  N   UNL     1       5.561   8.585   1.044  0.00  0.00    -0.133 NA
ATOM     26  C   UNL     1       6.731   9.016   0.640  0.00  0.00    +0.194 A 
ATOM     27  N   UNL     1       6.703   9.024  -0.693  0.00  0.00    -0.111 NA
ATOM     28  N   UNL     1       5.539   8.600  -1.055  0.00  0.00    -0.046 NA
BRANCH  26  29
ATOM     29  C   UNL     1       7.888   9.424   1.516  0.00  0.00    +0.204 C 
BRANCH  29  30
ATOM     30  N   UNL     1       8.734   8.258   1.781  0.00  0.00    -0.313 N 
ATOM     31  C   UNL     1       8.664   7.445   2.858  0.00  0.00    +0.202 A 
ATOM     32  N   UNL     1       9.576   6.519   2.745  0.00  0.00    -0.223 NA
ATOM     33  C   UNL     1      10.257   6.704   1.603  0.00  0.00    +0.166 A 
ATOM     34  C   UNL     1       9.741   7.785   0.982  0.00  0.00    +0.148 A 
ATOM     35 CL   UNL     1      10.257   8.450  -0.536  0.00  0.00    -0.061 Cl
ATOM     36 CL   UNL     1      11.566   5.722   1.024  0.00  0.00    -0.059 Cl
ENDBRANCH  29  30
ENDBRANCH  26  29
ENDBRANCH  23  24
ENDBRANCH  20  23
ENDBRANCH   3  19
TORSDOF 8
