REMARK  Name = ZINC36058182
REMARK  6 active torsions:
REMARK  status: ('A' for Active; 'I' for Inactive)
REMARK    1  A    between atoms: C_1  and  C_2
REMARK    2  A    between atoms: C_6  and  C_17
REMARK    3  A    between atoms: C_8  and  N_11
REMARK    4  A    between atoms: C_12  and  N_16
REMARK    5  A    between atoms: C_17  and  C_18
REMARK    6  A    between atoms: C_17  and  C_19
REMARK                            x       y       z     vdW  Elec       q    Type
REMARK                         _______ _______ _______ _____ _____    ______ ____
ROOT
ATOM      1  C   UNL     1       0.140   1.580   0.189  0.00  0.00    +0.007 C 
ATOM      2  C   UNL     1       0.097   0.053   0.106  0.00  0.00    -0.012 C 
ATOM      3  C   UNL     1      -1.359  -0.415   0.063  0.00  0.00    +0.004 C 
ATOM      4  C   UNL     1      -1.402  -1.942  -0.019  0.00  0.00    +0.006 C 
ATOM      5  C   UNL     1      -0.711  -2.538   1.208  0.00  0.00    +0.016 C 
ATOM      6  C   UNL     1       0.745  -2.071   1.252  0.00  0.00    +0.113 C 
ATOM      7  C   UNL     1       0.788  -0.543   1.334  0.00  0.00    +0.030 C 
ENDROOT
BRANCH   6   8
ATOM      8  N   UNL     1       1.407  -2.642   2.427  0.00  0.00    -0.248 N 
ATOM      9  C   UNL     1       2.547  -3.369   2.424  0.00  0.00    +0.115 A 
ATOM     10  C   UNL     1       2.822  -3.708   3.713  0.00  0.00    +0.064 A 
ATOM     11  C   UNL     1       1.817  -3.169   4.521  0.00  0.00    +0.136 A 
ATOM     12  N   UNL     1       0.973  -2.527   3.754  0.00  0.00    -0.178 NA
BRANCH   9  13
ATOM     13  N   UNL     1       3.302  -3.709   1.305  0.00  0.00    -0.343 N 
ATOM     14  H   UNL     1       3.021  -3.418   0.423  0.00  0.00    +0.144 HD
ATOM     15  H   UNL     1       4.110  -4.237   1.407  0.00  0.00    +0.144 HD
ENDBRANCH   9  13
ENDBRANCH   6   8
BRANCH   5  16
ATOM     16  C   UNL     1      -0.754  -4.066   1.126  0.00  0.00    -0.012 C 
ATOM     17  C   UNL     1      -2.205  -4.541   1.221  0.00  0.00    +0.007 C 
ATOM     18  C   UNL     1      -0.155  -4.521  -0.206  0.00  0.00    +0.007 C 
ENDBRANCH   5  16
TORSDOF 3
