REMARK  Name = ZINC39686053
REMARK  9 active torsions:
REMARK  status: ('A' for Active; 'I' for Inactive)
REMARK    1  A    between atoms: C_1  and  C_2
REMARK    2  A    between atoms: C_2  and  S_3
REMARK    3  A    between atoms: S_3  and  C_4
REMARK    4  A    between atoms: C_5  and  C_10
REMARK    5  A    between atoms: C_14  and  C_23
REMARK    6  A    between atoms: N_25  and  C_26
REMARK    7  A    between atoms: C_32  and  C_34
REMARK    8  A    between atoms: C_34  and  C_35
REMARK    9  A    between atoms: C_34  and  C_36
REMARK                            x       y       z     vdW  Elec       q    Type
REMARK                         _______ _______ _______ _____ _____    ______ ____
ROOT
ATOM      1  C   UNL     1       1.681  -3.626   4.883  0.00  0.00    +0.249 C 
ATOM      2  O   UNL     1       1.689  -2.428   5.094  0.00  0.00    -0.270 OA
ATOM      3  N   UNL     1       2.323  -4.463   5.721  0.00  0.00    -0.296 N 
ATOM      4  C   UNL     1       2.493  -5.929   5.588  0.00  0.00    +0.121 C 
ATOM      5  C   UNL     1       3.938  -6.199   6.064  0.00  0.00    +0.100 C 
ATOM      6  C   UNL     1       4.277  -5.013   6.982  0.00  0.00    -0.004 C 
ATOM      7  C   UNL     1       3.025  -4.123   6.982  0.00  0.00    +0.115 C 
ATOM      8  C   UNL     1       5.468  -4.238   6.426  0.00  0.00    -0.010 C 
ATOM      9  C   UNL     1       5.822  -3.098   7.385  0.00  0.00    -0.082 C 
ATOM     10  N   UNL     1       6.146  -3.651   8.706  0.00  0.00    +0.379 N 
ATOM     11  C   UNL     1       4.966  -4.315   9.274  0.00  0.00    -0.082 C 
ATOM     12  C   UNL     1       4.576  -5.506   8.394  0.00  0.00    -0.010 C 
ATOM     13  H   UNL     1       6.896  -4.320   8.614  0.00  0.00    -0.086 HD
ATOM     14  H   UNL     1       6.437  -2.904   9.319  0.00  0.00    -0.086 HD
ENDROOT
BRANCH   1  16
ATOM     15  C   UNL     1       0.940  -3.446   2.499  0.00  0.00    +0.109 A 
ATOM     16  C   UNL     1       0.968  -4.162   3.709  0.00  0.00    +0.069 A 
ATOM     17  C   UNL     1       0.306  -5.393   3.779  0.00  0.00    +0.017 A 
ATOM     18  C   UNL     1      -0.348  -5.853   2.649  0.00  0.00    +0.020 A 
ATOM     19  C   UNL     1      -0.331  -5.091   1.494  0.00  0.00    +0.112 A 
ATOM     20  N   UNL     1       0.294  -3.931   1.449  0.00  0.00    -0.248 NA
BRANCH  15  21
ATOM     21  S   UNL     1       1.763  -1.892   2.381  0.00  0.00    -0.105 S 
BRANCH  21  23
ATOM     22  C   UNL     1       2.117  -0.003   0.435  0.00  0.00    +0.015 C 
ATOM     23  C   UNL     1       1.449  -1.358   0.676  0.00  0.00    +0.072 C 
ENDBRANCH  21  23
ENDBRANCH  15  21
ENDBRANCH   1  16
BRANCH   5  24
ATOM     24  C   UNL     1       4.879  -6.242   4.888  0.00  0.00    +0.218 C 
ATOM     25  O   UNL     1       4.670  -5.543   3.918  0.00  0.00    -0.275 OA
ATOM     26  N   UNL     1       5.953  -7.056   4.913  0.00  0.00    -0.312 N 
ATOM     27  H   UNL     1       6.120  -7.614   5.688  0.00  0.00    +0.149 HD
BRANCH  26  28
ATOM     28  C   UNL     1       6.867  -7.097   3.769  0.00  0.00    +0.076 C 
ATOM     29  C   UNL     1       6.331  -8.076   2.722  0.00  0.00    +0.041 C 
ATOM     30  C   UNL     1       7.272  -8.090   1.513  0.00  0.00    +0.109 C 
ATOM     31  N   UNL     1       8.634  -8.389   1.977  0.00  0.00    -0.301 N 
ATOM     32  C   UNL     1       9.213  -7.564   3.047  0.00  0.00    +0.109 C 
ATOM     33  C   UNL     1       8.250  -7.556   4.239  0.00  0.00    +0.041 C 
ATOM     34  C   UNL     1       9.338  -9.400   1.433  0.00  0.00    +0.218 C 
ATOM     35  O   UNL     1      10.496  -9.573   1.751  0.00  0.00    -0.275 OA
BRANCH  34  36
ATOM     36  C   UNL     1       8.688 -10.317   0.428  0.00  0.00    +0.069 C 
ATOM     37  C   UNL     1       8.579  -9.601  -0.919  0.00  0.00    +0.017 C 
ATOM     38  C   UNL     1       9.535 -11.581   0.268  0.00  0.00    +0.017 C 
ENDBRANCH  34  36
ENDBRANCH  26  28
ENDBRANCH   5  24
TORSDOF 6
