REMARK  Name = ZINC14035427
REMARK  12 active torsions:
REMARK  status: ('A' for Active; 'I' for Inactive)
REMARK    1  A    between atoms: C_1  and  C_2
REMARK    2  A    between atoms: C_2  and  C_3
REMARK    3  A    between atoms: C_2  and  C_4
REMARK    4  A    between atoms: C_4  and  O_5
REMARK    5  A    between atoms: O_5  and  C_6
REMARK    6  A    between atoms: C_11  and  C_12
REMARK    7  A    between atoms: N_14  and  C_15
REMARK    8  A    between atoms: C_15  and  N_17
REMARK    9  A    between atoms: N_17  and  N_18
REMARK   10  A    between atoms: C_19  and  C_21
REMARK   11  A    between atoms: C_21  and  O_22
REMARK   12  A    between atoms: O_22  and  C_23
REMARK                            x       y       z     vdW  Elec       q    Type
REMARK                         _______ _______ _______ _____ _____    ______ ____
ROOT
ATOM      1  C   UNL     1       5.407  -4.043  -0.074  0.00  0.00    +0.153 C 
ATOM      2  S   UNL     1       6.999  -4.674  -0.093  0.00  0.00    -0.017 S 
ENDROOT
BRANCH   1   5
ATOM      3  C   UNL     1       4.547  -6.213  -0.078  0.00  0.00    +0.253 C 
ATOM      4  O   UNL     1       5.677  -6.661  -0.092  0.00  0.00    -0.270 OA
ATOM      5  N   UNL     1       4.351  -4.880  -0.069  0.00  0.00    -0.263 N 
ATOM      6  H   UNL     1       3.449  -4.522  -0.058  0.00  0.00    +0.157 HD
BRANCH   3  12
ATOM      7  C   UNL     1       3.590  -8.516  -0.082  0.00  0.00    +0.133 A 
ATOM      8  C   UNL     1       2.495  -9.367  -0.076  0.00  0.00    +0.046 A 
ATOM      9  C   UNL     1       1.216  -8.849  -0.061  0.00  0.00    +0.004 A 
ATOM     10  C   UNL     1       1.014  -7.478  -0.050  0.00  0.00    +0.001 A 
ATOM     11  C   UNL     1       2.090  -6.618  -0.051  0.00  0.00    +0.017 A 
ATOM     12  C   UNL     1       3.391  -7.128  -0.072  0.00  0.00    +0.079 A 
BRANCH   7  13
ATOM     13  O   UNL     1       4.848  -9.023  -0.097  0.00  0.00    -0.491 OA
BRANCH  13  14
ATOM     14  C   UNL     1       4.973 -10.447  -0.106  0.00  0.00    +0.232 C 
BRANCH  14  16
ATOM     15  C   UNL     1       6.591 -12.348  -0.007  0.00  0.00    +0.010 C 
ATOM     16  C   UNL     1       6.454 -10.829  -0.122  0.00  0.00    +0.020 C 
ATOM     17  C   UNL     1       7.088 -10.358  -1.433  0.00  0.00    +0.010 C 
ENDBRANCH  14  16
ENDBRANCH  13  14
ENDBRANCH   7  13
ENDBRANCH   3  12
ENDBRANCH   1   5
BRANCH   1  18
ATOM     18  N   UNL     1       5.211  -2.709  -0.065  0.00  0.00    -0.245 N 
ATOM     19  H   UNL     1       5.972  -2.107  -0.069  0.00  0.00    +0.172 HD
BRANCH  18  20
ATOM     20  N   UNL     1       3.909  -2.193  -0.049  0.00  0.00    -0.232 N 
ATOM     21  C   UNL     1       3.713  -0.860  -0.040  0.00  0.00    +0.267 C 
ATOM     22  O   UNL     1       4.664  -0.107  -0.044  0.00  0.00    -0.271 OA
ATOM     23  H   UNL     1       3.148  -2.795  -0.045  0.00  0.00    +0.173 HD
BRANCH  21  24
ATOM     24  C   UNL     1       2.312  -0.304  -0.023  0.00  0.00    +0.326 C 
BRANCH  24  25
ATOM     25  O   UNL     1       2.366   1.124  -0.015  0.00  0.00    -0.482 OA
BRANCH  25  26
ATOM     26  C   UNL     1       1.179   1.786   0.000  0.00  0.00    +0.135 A 
ATOM     27  C   UNL     1      -0.013   1.076   0.008  0.00  0.00    +0.048 A 
ATOM     28  C   UNL     1      -1.218   1.751   0.017  0.00  0.00    +0.023 A 
ATOM     29  C   UNL     1      -1.238   3.134   0.031  0.00  0.00    +0.042 A 
ATOM     30  C   UNL     1      -0.051   3.845   0.023  0.00  0.00    +0.039 A 
ATOM     31  C   UNL     1       1.157   3.174   0.008  0.00  0.00    +0.061 A 
ATOM     32 BR   UNL     1       2.780   4.145  -0.003  0.00  0.00    -0.046 Br
ATOM     33 CL   UNL     1      -2.754   3.979   0.050  0.00  0.00    -0.084 Cl
ENDBRANCH  25  26
ENDBRANCH  24  25
ENDBRANCH  21  24
ENDBRANCH  18  20
ENDBRANCH   1  18
TORSDOF 10
