REMARK  Name = ZINC40744805
REMARK  14 active torsions:
REMARK  status: ('A' for Active; 'I' for Inactive)
REMARK    1  A    between atoms: C_1  and  C_2
REMARK    2  A    between atoms: C_2  and  O_3
REMARK    3  A    between atoms: O_3  and  C_4
REMARK    4  A    between atoms: C_6  and  C_21
REMARK    5  A    between atoms: C_9  and  O_10
REMARK    6  A    between atoms: O_10  and  C_11
REMARK    7  A    between atoms: C_11  and  C_12
REMARK    8  A    between atoms: C_21  and  N_22
REMARK    9  A    between atoms: N_22  and  C_23
REMARK   10  A    between atoms: C_23  and  C_24
REMARK   11  A    between atoms: C_24  and  C_25
REMARK   12  A    between atoms: C_25  and  S_26
REMARK   13  A    between atoms: S_26  and  C_27
REMARK   14  A    between atoms: N_31  and  C_32
REMARK                            x       y       z     vdW  Elec       q    Type
REMARK                         _______ _______ _______ _____ _____    ______ ____
ROOT
ATOM      1  C   UNL     1      -1.498  -1.849   0.006  0.00  0.00    +0.164 A 
ATOM      2  C   UNL     1      -0.389  -2.680  -0.003  0.00  0.00    +0.051 A 
ATOM      3  C   UNL     1      -0.552  -4.052  -0.009  0.00  0.00    -0.059 A 
ATOM      4  C   UNL     1      -1.822  -4.600  -0.006  0.00  0.00    +0.025 A 
ATOM      5  C   UNL     1      -2.934  -3.777   0.003  0.00  0.00    +0.086 A 
ATOM      6  C   UNL     1      -2.776  -2.400   0.016  0.00  0.00    +0.181 A 
ATOM      7 CL   UNL     1      -4.526  -4.469   0.006  0.00  0.00    -0.080 Cl
ENDROOT
BRANCH   1   8
ATOM      8  O   UNL     1      -1.339  -0.499   0.012  0.00  0.00    -0.489 OA
BRANCH   8  10
ATOM      9  C   UNL     1      -0.019   1.526   0.010  0.00  0.00    +0.048 C 
ATOM     10  C   UNL     1       0.002  -0.004   0.002  0.00  0.00    +0.226 C 
ENDBRANCH   8  10
ENDBRANCH   1   8
BRANCH   6  11
ATOM     11  O   UNL     1      -3.868  -1.589   0.031  0.00  0.00    -0.482 OA
BRANCH  11  12
ATOM     12  C   UNL     1      -4.401  -1.195  -1.235  0.00  0.00    +0.266 C 
BRANCH  12  13
ATOM     13  C   UNL     1      -5.598  -0.305  -1.021  0.00  0.00    +0.008 A 
ATOM     14  C   UNL     1      -6.006   0.007   0.263  0.00  0.00    +0.011 A 
ATOM     15  C   UNL     1      -7.104   0.823   0.460  0.00  0.00    +0.039 A 
ATOM     16  C   UNL     1      -7.796   1.328  -0.627  0.00  0.00    +0.125 A 
ATOM     17  C   UNL     1      -7.387   1.016  -1.913  0.00  0.00    +0.058 A 
ATOM     18  C   UNL     1      -6.285   0.204  -2.109  0.00  0.00    +0.050 A 
ATOM     19 CL   UNL     1      -5.768  -0.183  -3.720  0.00  0.00    -0.083 Cl
ATOM     20  F   UNL     1      -8.870   2.125  -0.435  0.00  0.00    -0.205 F 
ENDBRANCH  12  13
ENDBRANCH  11  12
ENDBRANCH   6  11
BRANCH   3  21
ATOM     21  C   UNL     1       0.655  -4.953  -0.019  0.00  0.00    -0.047 C 
BRANCH  21  22
ATOM     22  N   UNL     1       1.054  -5.253   1.363  0.00  0.00    +0.382 N 
ATOM     23  H   UNL     1       1.280  -4.394   1.841  0.00  0.00    -0.085 HD
ATOM     24  H   UNL     1       0.295  -5.714   1.840  0.00  0.00    -0.085 HD
BRANCH  22  25
ATOM     25  C   UNL     1       2.232  -6.131   1.353  0.00  0.00    -0.081 C 
BRANCH  25  26
ATOM     26  C   UNL     1       2.648  -6.443   2.792  0.00  0.00    -0.008 C 
BRANCH  26  27
ATOM     27  C   UNL     1       3.874  -7.358   2.782  0.00  0.00    +0.075 C 
BRANCH  27  28
ATOM     28  S   UNL     1       4.367  -7.728   4.488  0.00  0.00    -0.085 S 
BRANCH  28  29
ATOM     29  C   UNL     1       5.772  -8.775   4.308  0.00  0.00    +0.209 A 
ATOM     30  N   UNL     1       6.313  -9.170   3.176  0.00  0.00    -0.102 NA
ATOM     31  N   UNL     1       7.325  -9.928   3.401  0.00  0.00    -0.022 NA
ATOM     32  N   UNL     1       7.504 -10.072   4.669  0.00  0.00    -0.043 NA
ATOM     33  N   UNL     1       6.502  -9.321   5.309  0.00  0.00    -0.223 N 
ATOM     34  C   UNL     1       6.291  -9.165   6.751  0.00  0.00    +0.177 C 
ENDBRANCH  28  29
ENDBRANCH  27  28
ENDBRANCH  26  27
ENDBRANCH  25  26
ENDBRANCH  22  25
ENDBRANCH  21  22
ENDBRANCH   3  21
TORSDOF 12
