REMARK  Name = ZINC28727429
REMARK  10 active torsions:
REMARK  status: ('A' for Active; 'I' for Inactive)
REMARK    1  A    between atoms: C_1  and  C_2
REMARK    2  A    between atoms: C_5  and  N_8
REMARK    3  A    between atoms: C_9  and  C_11
REMARK    4  A    between atoms: C_11  and  N_12
REMARK    5  A    between atoms: N_12  and  C_13
REMARK    6  A    between atoms: N_12  and  C_14
REMARK    7  A    between atoms: C_14  and  C_16
REMARK    8  A    between atoms: C_14  and  C_17
REMARK    9  A    between atoms: C_20  and  S_23
REMARK   10  A    between atoms: S_23  and  N_26
REMARK                            x       y       z     vdW  Elec       q    Type
REMARK                         _______ _______ _______ _____ _____    ______ ____
ROOT
ATOM      1  N   UNL     1      -2.606   4.096   0.037  0.00  0.00    +0.388 N 
ATOM      2  C   UNL     1      -3.289   3.744  -1.215  0.00  0.00    -0.095 C 
ATOM      3  H   UNL     1      -3.129   3.589   0.861  0.00  0.00    -0.081 HD
ENDROOT
BRANCH   1   4
ATOM      4  C   UNL     1      -2.671   5.543   0.283  0.00  0.00    -0.041 C 
ATOM      5  C   UNL     1      -2.037   5.858   1.640  0.00  0.00    -0.008 C 
BRANCH   4   6
ATOM      6  C   UNL     1      -4.110   5.988   0.285  0.00  0.00    -0.061 A 
ATOM      7  C   UNL     1      -5.078   5.197   0.876  0.00  0.00    +0.004 A 
ATOM      8  C   UNL     1      -6.397   5.608   0.882  0.00  0.00    +0.029 A 
ATOM      9  C   UNL     1      -6.752   6.805   0.289  0.00  0.00    +0.105 A 
ATOM     10  C   UNL     1      -5.785   7.594  -0.307  0.00  0.00    +0.029 A 
ATOM     11  C   UNL     1      -4.464   7.186  -0.308  0.00  0.00    +0.004 A 
BRANCH   9  12
ATOM     12  S   UNL     1      -8.435   7.325   0.290  0.00  0.00    +0.056 S 
ATOM     13  O   UNL     1      -9.060   6.674   1.387  0.00  0.00    -0.153 OA
ATOM     14  O   UNL     1      -8.423   8.739   0.150  0.00  0.00    -0.153 OA
BRANCH  12  15
ATOM     15  N   UNL     1      -9.136   6.719  -1.082  0.00  0.00    -0.204 NA
ATOM     16  H   UNL     1     -10.193   7.023  -1.119  0.00  0.00    +0.144 HD
ATOM     17  H   UNL     1      -9.070   5.621  -1.073  0.00  0.00    +0.144 HD
ENDBRANCH  12  15
ENDBRANCH   9  12
ENDBRANCH   4   6
ENDBRANCH   1   4
BRANCH   1  18
ATOM     18  C   UNL     1      -1.214   3.626   0.028  0.00  0.00    +0.019 C 
BRANCH  18  20
ATOM     19  N   UNL     1      -0.018   1.461   0.010  0.00  0.00    -0.314 N 
ATOM     20  C   UNL     1      -1.194   2.119   0.019  0.00  0.00    +0.197 C 
ATOM     21  O   UNL     1      -2.236   1.498   0.021  0.00  0.00    -0.278 OA
ATOM     22  H   UNL     1       0.927   2.024   0.009  0.00  0.00    +0.149 HD
BRANCH  19  27
ATOM     23  C   UNL     1       3.570   0.031   2.450  0.00  0.00    +0.007 C 
ATOM     24  C   UNL     1       2.388  -0.491   1.631  0.00  0.00    -0.014 C 
ATOM     25  C   UNL     1       2.493   0.029   0.196  0.00  0.00    +0.005 C 
ATOM     26  C   UNL     1       1.310  -0.493  -0.623  0.00  0.00    +0.022 C 
ATOM     27  C   UNL     1       0.002  -0.004   0.002  0.00  0.00    +0.073 C 
ATOM     28  C   UNL     1      -0.103  -0.523   1.437  0.00  0.00    +0.022 C 
ATOM     29  C   UNL     1       1.079  -0.002   2.256  0.00  0.00    +0.005 C 
ENDBRANCH  19  27
ENDBRANCH  18  20
ENDBRANCH   1  18
TORSDOF 7
