REMARK  Name = ZINC20332055
REMARK  9 active torsions:
REMARK  status: ('A' for Active; 'I' for Inactive)
REMARK    1  A    between atoms: C_1  and  C_2
REMARK    2  A    between atoms: C_2  and  C_3
REMARK    3  A    between atoms: C_3  and  C_4
REMARK    4  A    between atoms: C_10  and  C_11
REMARK    5  A    between atoms: C_14  and  O_17
REMARK    6  A    between atoms: O_17  and  C_18
REMARK    7  A    between atoms: C_18  and  C_19
REMARK    8  A    between atoms: C_27  and  C_29
REMARK    9  A    between atoms: C_29  and  C_30
REMARK                            x       y       z     vdW  Elec       q    Type
REMARK                         _______ _______ _______ _____ _____    ______ ____
ROOT
ATOM      1  C   UNL     1      -2.132  -6.862  -1.371  0.00  0.00    -0.024 A 
ATOM      2  C   UNL     1      -1.835  -5.655  -2.019  0.00  0.00    +0.011 A 
ATOM      3  C   UNL     1      -2.651  -5.199  -3.015  0.00  0.00    +0.046 A 
ATOM      4  C   UNL     1      -3.774  -5.930  -3.387  0.00  0.00    +0.121 A 
ATOM      5  C   UNL     1      -4.074  -7.129  -2.748  0.00  0.00    +0.046 A 
ATOM      6  C   UNL     1      -3.262  -7.598  -1.754  0.00  0.00    +0.011 A 
ENDROOT
BRANCH   1  13
ATOM      7  C   UNL     1      -5.250 -10.957   2.170  0.00  0.00    +0.100 C 
ATOM      8  N   UNL     1      -4.945  -9.877   1.510  0.00  0.00    -0.169 NA
ATOM      9  N   UNL     1      -3.683  -9.327   1.582  0.00  0.00    -0.152 N 
ATOM     10  C   UNL     1      -3.275  -8.116   0.981  0.00  0.00    +0.152 C 
ATOM     11  N   UNL     1      -4.107  -7.167   0.643  0.00  0.00    -0.283 NA
ATOM     12  C   UNL     1      -1.802  -8.027   0.772  0.00  0.00    +0.081 C 
ATOM     13  C   UNL     1      -1.261  -7.356  -0.301  0.00  0.00    +0.024 C 
ATOM     14  C   UNL     1      -0.950  -8.701   1.783  0.00  0.00    +0.273 C 
ATOM     15  O   UNL     1       0.198  -8.335   1.981  0.00  0.00    -0.268 OA
ATOM     16  N   UNL     1      -1.480  -9.727   2.477  0.00  0.00    -0.152 NA
ATOM     17  C   UNL     1      -2.750 -10.010   2.332  0.00  0.00    +0.181 C 
ATOM     18  S   UNL     1      -3.716 -11.335   3.007  0.00  0.00    -0.038 S 
ATOM     19  H   UNL     1      -5.062  -7.304   0.735  0.00  0.00    +0.188 HD
BRANCH   7  20
ATOM     20  C   UNL     1      -6.562 -11.696   2.221  0.00  0.00    +0.064 C 
BRANCH  20  22
ATOM     21  C   UNL     1      -8.916 -11.734   1.384  0.00  0.00    +0.004 C 
ATOM     22  C   UNL     1      -7.583 -10.984   1.332  0.00  0.00    +0.003 C 
ENDBRANCH  20  22
ENDBRANCH   7  20
ENDBRANCH   1  13
BRANCH   4  23
ATOM     23  O   UNL     1      -4.581  -5.473  -4.377  0.00  0.00    -0.486 OA
BRANCH  23  24
ATOM     24  C   UNL     1      -5.718  -6.272  -4.710  0.00  0.00    +0.284 C 
BRANCH  24  25
ATOM     25  C   UNL     1      -6.490  -5.610  -5.822  0.00  0.00    +0.087 A 
ATOM     26  C   UNL     1      -6.598  -6.214  -7.057  0.00  0.00    +0.099 A 
ATOM     27  C   UNL     1      -7.317  -5.585  -8.074  0.00  0.00    +0.275 A 
ATOM     28  O   UNL     1      -7.417  -6.115  -9.170  0.00  0.00    -0.266 OA
ATOM     29  N   UNL     1      -7.909  -4.376  -7.842  0.00  0.00    -0.171 N 
ATOM     30  C   UNL     1      -7.751  -3.849  -6.589  0.00  0.00    +0.199 A 
ATOM     31  N   UNL     1      -7.083  -4.435  -5.628  0.00  0.00    -0.223 NA
ATOM     32  S   UNL     1      -8.648  -2.317  -6.702  0.00  0.00    -0.033 S 
ATOM     33  C   UNL     1      -9.172  -2.477  -8.401  0.00  0.00    +0.102 A 
ATOM     34  N   UNL     1      -8.656  -3.619  -8.739  0.00  0.00    -0.159 NA
BRANCH  33  35
ATOM     35  C   UNL     1     -10.001  -1.530  -9.230  0.00  0.00    +0.061 C 
ATOM     36  C   UNL     1     -10.185  -2.108 -10.634  0.00  0.00    +0.011 C 
ENDBRANCH  33  35
ENDBRANCH  24  25
ENDBRANCH  23  24
ENDBRANCH   4  23
TORSDOF 7
