REMARK  Name = ZINC52607157
REMARK  8 active torsions:
REMARK  status: ('A' for Active; 'I' for Inactive)
REMARK    1  A    between atoms: C_1  and  C_2
REMARK    2  A    between atoms: N_10  and  C_13
REMARK    3  A    between atoms: C_13  and  C_14
REMARK    4  A    between atoms: C_14  and  C_15
REMARK    5  A    between atoms: C_15  and  C_16
REMARK    6  A    between atoms: C_16  and  C_17
REMARK    7  A    between atoms: C_17  and  N_18
REMARK    8  A    between atoms: C_21  and  C_24
REMARK                            x       y       z     vdW  Elec       q    Type
REMARK                         _______ _______ _______ _____ _____    ______ ____
ROOT
ATOM      1  N   UNL     1      -4.099  -9.669   4.713  0.00  0.00    +0.382 N 
ATOM      2  C   UNL     1      -4.051 -11.014   5.307  0.00  0.00    -0.074 C 
ATOM      3  C   UNL     1      -5.445 -11.367   5.832  0.00  0.00    +0.016 C 
ATOM      4  C   UNL     1      -6.467 -11.111   4.758  0.00  0.00    -0.049 C 
ATOM      5  C   UNL     1      -6.198 -10.366   3.688  0.00  0.00    -0.042 C 
ATOM      6  C   UNL     1      -4.859  -9.726   3.459  0.00  0.00    -0.051 C 
ATOM      7  H   UNL     1      -4.551  -9.032   5.352  0.00  0.00    -0.081 HD
ENDROOT
BRANCH   4   8
ATOM      8  C   UNL     1      -7.751 -11.678   4.890  0.00  0.00    -0.016 C 
ATOM      9  C   UNL     1      -8.250 -12.384   5.977  0.00  0.00    +0.006 A 
ATOM     10  C   UNL     1      -7.684 -12.744   7.223  0.00  0.00    +0.048 A 
ATOM     11  C   UNL     1      -8.421 -13.453   8.116  0.00  0.00    +0.124 A 
ATOM     12  C   UNL     1      -9.738 -13.841   7.837  0.00  0.00    +0.040 A 
ATOM     13  C   UNL     1     -10.342 -13.531   6.666  0.00  0.00    +0.029 A 
ATOM     14  C   UNL     1      -9.636 -12.790   5.680  0.00  0.00    +0.043 A 
ATOM     15  N   UNL     1      -9.992 -12.371   4.485  0.00  0.00    -0.380 N 
ATOM     16  C   UNL     1      -8.875 -11.640   3.878  0.00  0.00    +0.149 C 
ATOM     17  F   UNL     1      -7.871 -13.791   9.302  0.00  0.00    -0.205 F 
ATOM     18  H   UNL     1     -10.857 -12.519   4.073  0.00  0.00    +0.160 HD
ENDBRANCH   4   8
BRANCH   1  19
ATOM     19  C   UNL     1      -2.733  -9.204   4.439  0.00  0.00    -0.078 C 
BRANCH  19  20
ATOM     20  C   UNL     1      -2.778  -7.762   3.928  0.00  0.00    -0.019 C 
BRANCH  20  21
ATOM     21  C   UNL     1      -1.355  -7.278   3.642  0.00  0.00    -0.000 C 
BRANCH  21  22
ATOM     22  C   UNL     1      -1.400  -5.836   3.131  0.00  0.00    +0.019 C 
BRANCH  22  23
ATOM     23  C   UNL     1       0.023  -5.352   2.846  0.00  0.00    +0.117 C 
BRANCH  23  33
ATOM     24  C   UNL     1      -0.087   2.058   1.740  0.00  0.00    +0.044 C 
ATOM     25  C   UNL     1      -0.103   0.574   1.474  0.00  0.00    -0.050 A 
ATOM     26  C   UNL     1      -0.204   0.111   0.176  0.00  0.00    +0.004 A 
ATOM     27  C   UNL     1      -0.221  -1.251  -0.085  0.00  0.00    +0.014 A 
ATOM     28  C   UNL     1      -0.135  -2.152   0.964  0.00  0.00    +0.049 A 
ATOM     29  C   UNL     1      -0.031  -1.679   2.288  0.00  0.00    +0.050 A 
ATOM     30  C   UNL     1      -0.010  -0.315   2.533  0.00  0.00    +0.017 A 
ATOM     31  C   UNL     1       0.040  -2.883   3.143  0.00  0.00    +0.254 C 
ATOM     32  O   UNL     1       0.135  -2.888   4.354  0.00  0.00    -0.270 OA
ATOM     33  N   UNL     1      -0.020  -3.972   2.356  0.00  0.00    -0.234 N 
ATOM     34  C   UNL     1      -0.124  -3.627   1.060  0.00  0.00    +0.254 C 
ATOM     35  O   UNL     1      -0.196  -4.398   0.125  0.00  0.00    -0.270 OA
ENDBRANCH  23  33
ENDBRANCH  22  23
ENDBRANCH  21  22
ENDBRANCH  20  21
ENDBRANCH  19  20
ENDBRANCH   1  19
TORSDOF 7
