REMARK  Name = ZINC63479813
REMARK  4 active torsions:
REMARK  status: ('A' for Active; 'I' for Inactive)
REMARK    1  A    between atoms: C_7  and  C_10
REMARK    2  A    between atoms: C_10  and  C_11
REMARK    3  A    between atoms: N_19  and  C_22
REMARK    4  A    between atoms: C_22  and  C_23
REMARK                            x       y       z     vdW  Elec       q    Type
REMARK                         _______ _______ _______ _____ _____    ______ ____
ROOT
ATOM      1  C   UNL     1       0.457  -3.653  -1.462  0.00  0.00    +0.072 C 
ATOM      2  C   UNL     1      -0.573  -4.803  -1.492  0.00  0.00    +0.107 C 
ATOM      3  C   UNL     1      -0.059  -5.770  -2.595  0.00  0.00    +0.122 C 
ATOM      4  C   UNL     1       0.284  -7.026  -1.824  0.00  0.00    +0.228 C 
ATOM      5  O   UNL     1       0.718  -8.049  -2.308  0.00  0.00    -0.275 OA
ATOM      6  N   UNL     1       0.033  -6.832  -0.524  0.00  0.00    -0.239 N 
ATOM      7  C   UNL     1      -0.459  -5.609  -0.218  0.00  0.00    +0.227 C 
ATOM      8  O   UNL     1      -0.758  -5.216   0.889  0.00  0.00    -0.275 OA
ATOM      9  C   UNL     1       1.219  -5.108  -3.123  0.00  0.00    +0.136 C 
ATOM     10  N   UNL     1       1.702  -4.238  -2.025  0.00  0.00    -0.295 NA
ATOM     11  C   UNL     1       0.959  -4.339  -4.387  0.00  0.00    +0.005 A 
ATOM     12  C   UNL     1       0.127  -3.288  -4.703  0.00  0.00    +0.008 A 
ATOM     13  C   UNL     1       0.107  -2.783  -5.991  0.00  0.00    +0.002 A 
ATOM     14  C   UNL     1       0.925  -3.335  -6.959  0.00  0.00    +0.022 A 
ATOM     15  C   UNL     1       1.761  -4.388  -6.647  0.00  0.00    +0.062 A 
ATOM     16  C   UNL     1       1.787  -4.904  -5.353  0.00  0.00    +0.057 A 
ATOM     17  N   UNL     1       2.532  -5.947  -4.799  0.00  0.00    -0.282 N 
ATOM     18  C   UNL     1       2.257  -6.131  -3.494  0.00  0.00    +0.243 C 
ATOM     19  O   UNL     1       2.751  -6.961  -2.759  0.00  0.00    -0.273 OA
ATOM     20 CL   UNL     1       2.783  -5.074  -7.872  0.00  0.00    -0.082 Cl
ATOM     21  H   UNL     1       2.312  -3.517  -2.380  0.00  0.00    +0.124 HD
ATOM     22  H   UNL     1       3.174  -6.478  -5.298  0.00  0.00    +0.155 HD
ENDROOT
BRANCH   1  23
ATOM     23  C   UNL     1       0.691  -3.186  -0.024  0.00  0.00    +0.052 C 
BRANCH  23  30
ATOM     24  C   UNL     1      -0.016   1.348   0.009  0.00  0.00    +0.001 A 
ATOM     25  C   UNL     1       1.166   2.101   0.002  0.00  0.00    +0.002 A 
ATOM     26  C   UNL     1       2.391   1.535  -0.013  0.00  0.00    +0.026 A 
ATOM     27  C   UNL     1       2.529   0.120  -0.022  0.00  0.00    +0.043 A 
ATOM     28  N   UNL     1       3.587  -0.654  -0.037  0.00  0.00    -0.380 N 
ATOM     29  C   UNL     1       3.143  -2.053  -0.041  0.00  0.00    +0.144 C 
ATOM     30  C   UNL     1       1.631  -2.008  -0.025  0.00  0.00    -0.040 C 
ATOM     31  C   UNL     1       1.295  -0.698  -0.014  0.00  0.00    -0.001 A 
ATOM     32  C   UNL     1       0.002  -0.004   0.002  0.00  0.00    +0.010 A 
ATOM     33  H   UNL     1       4.509  -0.353  -0.045  0.00  0.00    +0.160 HD
ENDBRANCH  23  30
ENDBRANCH   1  23
BRANCH   6  34
ATOM     34  C   UNL     1       0.267  -7.863   0.490  0.00  0.00    +0.148 C 
BRANCH  34  35
ATOM     35  C   UNL     1       1.693  -7.735   1.029  0.00  0.00    +0.136 C 
ATOM     36  C   UNL     1       1.988  -8.890   2.010  0.00  0.00    +0.035 C 
ATOM     37  C   UNL     1       2.813  -8.180   3.117  0.00  0.00    +0.031 C 
ATOM     38  C   UNL     1       2.149  -6.781   3.127  0.00  0.00    +0.160 C 
ATOM     39  O   UNL     1       1.830  -6.506   1.752  0.00  0.00    -0.375 OA
ENDBRANCH  34  35
ENDBRANCH   6  34
TORSDOF 4
