REMARK  Name = ZINC04944212
REMARK  4 active torsions:
REMARK  status: ('A' for Active; 'I' for Inactive)
REMARK    1  A    between atoms: C_2  and  C_3
REMARK    2  A    between atoms: C_3  and  S_4
REMARK    3  A    between atoms: S_4  and  C_5
REMARK    4  A    between atoms: C_17  and  C_19
REMARK                            x       y       z     vdW  Elec       q    Type
REMARK                         _______ _______ _______ _____ _____    ______ ____
ROOT
ATOM      1  C   UNL     1      -1.212   3.359   0.032  0.00  0.00    +0.172 A 
ATOM      2  N   UNL     1      -0.069   4.099   0.026  0.00  0.00    -0.302 N 
ATOM      3  H   UNL     1      -0.121   5.098   0.033  0.00  0.00    +0.171 HD
ATOM      4  C   UNL     1       1.134   3.486   0.011  0.00  0.00    +0.258 A 
ATOM      5  O   UNL     1       2.166   4.138   0.004  0.00  0.00    -0.267 OA
ATOM      6  C   UNL     1       1.173   2.089   0.002  0.00  0.00    +0.065 A 
ATOM      7  C   UNL     1      -0.017   1.381   0.010  0.00  0.00    +0.137 A 
ATOM      8  N   UNL     1      -1.179   2.041   0.030  0.00  0.00    -0.208 NA
ATOM      9  N   UNL     1       0.002  -0.004   0.002  0.00  0.00    -0.270 N 
ATOM     10  C   UNL     1       1.107  -0.673  -0.375  0.00  0.00    +0.219 C 
ATOM     11  O   UNL     1       1.107  -1.885  -0.357  0.00  0.00    -0.275 OA
ATOM     12  C   UNL     1       2.342   0.064  -0.818  0.00  0.00    +0.109 C 
ATOM     13  C   UNL     1       2.489   1.359  -0.016  0.00  0.00    +0.069 C 
ATOM     14  H   UNL     1      -0.789  -0.496   0.271  0.00  0.00    +0.156 HD
ENDROOT
BRANCH  13  15
ATOM     15  C   UNL     1       2.901   1.031   1.396  0.00  0.00    -0.004 A 
ATOM     16  C   UNL     1       2.090   0.239   2.187  0.00  0.00    +0.007 A 
ATOM     17  C   UNL     1       2.468  -0.062   3.482  0.00  0.00    +0.000 A 
ATOM     18  C   UNL     1       3.658   0.428   3.988  0.00  0.00    +0.003 A 
ATOM     19  C   UNL     1       4.471   1.220   3.199  0.00  0.00    +0.038 A 
ATOM     20  C   UNL     1       4.095   1.519   1.900  0.00  0.00    +0.127 A 
ATOM     21  F   UNL     1       4.891   2.289   1.126  0.00  0.00    -0.205 F 
ENDBRANCH  13  15
BRANCH   1  22
ATOM     22  S   UNL     1      -2.771   4.181   0.051  0.00  0.00    -0.075 S 
BRANCH  22  23
ATOM     23  C   UNL     1      -3.881   2.750   0.052  0.00  0.00    +0.165 C 
BRANCH  23  25
ATOM     24  C   UNL     1      -6.392   3.583   0.080  0.00  0.00    +0.004 C 
ATOM     25  C   UNL     1      -5.278   3.213   0.067  0.00  0.00    -0.094 C 
ENDBRANCH  23  25
ENDBRANCH  22  23
ENDBRANCH   1  22
TORSDOF 4
