REMARK  Name = ZINC10863019
REMARK  8 active torsions:
REMARK  status: ('A' for Active; 'I' for Inactive)
REMARK    1  A    between atoms: C_1  and  C_2
REMARK    2  A    between atoms: C_5  and  C_8
REMARK    3  A    between atoms: C_8  and  C_10
REMARK    4  A    between atoms: C_15  and  C_16
REMARK    5  A    between atoms: C_16  and  O_18
REMARK    6  A    between atoms: O_18  and  C_19
REMARK    7  A    between atoms: C_19  and  C_20
REMARK    8  A    between atoms: N_25  and  C_26
REMARK                            x       y       z     vdW  Elec       q    Type
REMARK                         _______ _______ _______ _____ _____    ______ ____
ROOT
ATOM      1  C   UNL     1      -3.782   1.857   0.709  0.00  0.00    +0.328 C 
ENDROOT
BRANCH   1   2
ATOM      2  C   UNL     1      -4.908   0.857   0.758  0.00  0.00    +0.258 C 
ATOM      3  O   UNL     1      -4.675  -0.325   0.621  0.00  0.00    -0.272 OA
ATOM      4  N   UNL     1      -6.173   1.276   0.955  0.00  0.00    -0.237 N 
ATOM      5  C   UNL     1      -7.180   0.381   0.999  0.00  0.00    +0.306 C 
ATOM      6  O   UNL     1      -6.947  -0.803   0.862  0.00  0.00    -0.252 OA
ATOM      7  N   UNL     1      -8.446   0.800   1.196  0.00  0.00    -0.294 N 
ATOM      8  H   UNL     1      -6.359   2.222   1.065  0.00  0.00    +0.159 HD
ATOM      9  H   UNL     1      -8.632   1.746   1.306  0.00  0.00    +0.151 HD
BRANCH   7  10
ATOM     10  C   UNL     1      -9.541  -0.172   1.244  0.00  0.00    +0.037 C 
ATOM     11  C   UNL     1      -9.605  -0.933  -0.081  0.00  0.00    +0.029 C 
ATOM     12  C   UNL     1     -10.748  -1.949  -0.031  0.00  0.00    -0.008 C 
ATOM     13  C   UNL     1     -12.072  -1.216   0.202  0.00  0.00    +0.007 C 
ATOM     14  C   UNL     1     -12.007  -0.455   1.527  0.00  0.00    -0.008 C 
ATOM     15  C   UNL     1     -10.864   0.560   1.477  0.00  0.00    +0.029 C 
ATOM     16  C   UNL     1     -11.762  -1.442   2.671  0.00  0.00    +0.007 C 
ATOM     17  C   UNL     1     -10.439  -2.175   2.438  0.00  0.00    -0.008 C 
ATOM     18  C   UNL     1     -10.504  -2.936   1.112  0.00  0.00    +0.007 C 
ATOM     19  C   UNL     1      -9.296  -1.159   2.388  0.00  0.00    +0.029 C 
ENDBRANCH   7  10
ENDBRANCH   1   2
BRANCH   1  20
ATOM     20  O   UNL     1      -2.526   1.162   0.488  0.00  0.00    -0.452 OA
BRANCH  20  21
ATOM     21  C   UNL     1      -1.413   1.918   0.417  0.00  0.00    +0.340 C 
ATOM     22  O   UNL     1      -1.489   3.124   0.537  0.00  0.00    -0.245 OA
BRANCH  21  28
ATOM     23  C   UNL     1       1.049   2.070  -0.007  0.00  0.00    +0.036 A 
ATOM     24  C   UNL     1       2.280   1.454  -0.222  0.00  0.00    +0.012 A 
ATOM     25  C   UNL     1       2.369   0.075  -0.237  0.00  0.00    +0.001 A 
ATOM     26  C   UNL     1       1.241  -0.702  -0.039  0.00  0.00    +0.001 A 
ATOM     27  C   UNL     1       0.011  -0.109   0.176  0.00  0.00    +0.016 A 
ATOM     28  C   UNL     1      -0.099   1.279   0.194  0.00  0.00    +0.070 A 
BRANCH  23  29
ATOM     29  C   UNL     1       0.947   3.545   0.010  0.00  0.00    +0.194 C 
ATOM     30  O   UNL     1       1.322   4.169   0.983  0.00  0.00    -0.287 OA
BRANCH  29  35
ATOM     31  C   UNL     1      -1.217   6.330  -4.536  0.00  0.00    +0.044 C 
ATOM     32  C   UNL     1      -0.650   5.601  -3.345  0.00  0.00    -0.050 A 
ATOM     33  C   UNL     1      -0.150   6.318  -2.272  0.00  0.00    +0.004 A 
ATOM     34  C   UNL     1       0.370   5.657  -1.179  0.00  0.00    +0.012 A 
ATOM     35  C   UNL     1       0.391   4.260  -1.157  0.00  0.00    +0.022 A 
ATOM     36  C   UNL     1      -0.111   3.543  -2.246  0.00  0.00    +0.012 A 
ATOM     37  C   UNL     1      -0.633   4.217  -3.330  0.00  0.00    +0.004 A 
ENDBRANCH  29  35
ENDBRANCH  23  29
ENDBRANCH  21  28
ENDBRANCH  20  21
ENDBRANCH   1  20
TORSDOF 7
