REMARK  Name = ZINC04259922
REMARK  5 active torsions:
REMARK  status: ('A' for Active; 'I' for Inactive)
REMARK    1  A    between atoms: C_10  and  C_11
REMARK    2  A    between atoms: N_13  and  C_14
REMARK    3  A    between atoms: C_14  and  C_15
REMARK    4  A    between atoms: N_17  and  N_18
REMARK    5  A    between atoms: C_19  and  C_20
REMARK                            x       y       z     vdW  Elec       q    Type
REMARK                         _______ _______ _______ _____ _____    ______ ____
ROOT
ATOM      1  C   UNL     1       1.248   1.716   0.020  0.00  0.00    +0.202 C 
ENDROOT
BRANCH   1   4
ATOM      2  C   UNL     1      -1.187   1.624   0.017  0.00  0.00    +0.245 C 
ATOM      3  O   UNL     1      -1.204   2.840   0.005  0.00  0.00    -0.270 OA
ATOM      4  N   UNL     1      -0.011   0.966   0.028  0.00  0.00    -0.303 N 
ATOM      5  H   UNL     1       0.002  -0.004   0.037  0.00  0.00    +0.150 HD
BRANCH   2  15
ATOM      6  C   UNL     1      -6.141   2.830   0.362  0.00  0.00    +0.001 A 
ATOM      7  C   UNL     1      -4.957   3.564   0.362  0.00  0.00    +0.001 A 
ATOM      8  C   UNL     1      -3.749   2.944   0.251  0.00  0.00    +0.009 A 
ATOM      9  C   UNL     1      -3.692   1.548   0.141  0.00  0.00    -0.006 A 
ATOM     10  C   UNL     1      -4.895   0.800   0.136  0.00  0.00    -0.017 A 
ATOM     11  C   UNL     1      -6.124   1.473   0.252  0.00  0.00    +0.008 A 
ATOM     12  C   UNL     1      -4.840  -0.599   0.020  0.00  0.00    +0.008 A 
ATOM     13  C   UNL     1      -3.637  -1.230  -0.092  0.00  0.00    +0.001 A 
ATOM     14  C   UNL     1      -2.447  -0.513  -0.093  0.00  0.00    +0.013 A 
ATOM     15  C   UNL     1      -2.454   0.869   0.018  0.00  0.00    +0.044 A 
ENDBRANCH   2  15
ENDBRANCH   1   4
BRANCH   1  16
ATOM     16  C   UNL     1       2.406   0.752   0.028  0.00  0.00    +0.249 C 
ATOM     17  O   UNL     1       2.201  -0.444   0.040  0.00  0.00    -0.272 OA
ATOM     18  N   UNL     1       3.671   1.218   0.023  0.00  0.00    -0.206 N 
ATOM     19  H   UNL     1       3.835   2.174   0.014  0.00  0.00    +0.177 HD
BRANCH  18  20
ATOM     20  N   UNL     1       4.748   0.322   0.031  0.00  0.00    -0.188 NA
ATOM     21  C   UNL     1       5.965   0.771   0.026  0.00  0.00    +0.141 C 
BRANCH  21  22
ATOM     22  C   UNL     1       7.099  -0.171   0.034  0.00  0.00    +0.031 A 
ATOM     23  C   UNL     1       6.866  -1.550   0.054  0.00  0.00    +0.051 A 
ATOM     24  C   UNL     1       7.933  -2.426   0.057  0.00  0.00    +0.021 A 
ATOM     25  C   UNL     1       9.229  -1.943   0.051  0.00  0.00    +0.003 A 
ATOM     26  C   UNL     1       9.468  -0.581   0.037  0.00  0.00    +0.021 A 
ATOM     27  C   UNL     1       8.412   0.309   0.029  0.00  0.00    +0.051 A 
ATOM     28 CL   UNL     1       8.714   2.018   0.012  0.00  0.00    -0.083 Cl
ATOM     29 CL   UNL     1       5.240  -2.158   0.067  0.00  0.00    -0.083 Cl
ENDBRANCH  21  22
ENDBRANCH  18  20
ENDBRANCH   1  16
TORSDOF 5
