REMARK  Name = ZINC09076753
REMARK  12 active torsions:
REMARK  status: ('A' for Active; 'I' for Inactive)
REMARK    1  A    between atoms: C_1  and  C_2
REMARK    2  A    between atoms: C_2  and  O_3
REMARK    3  A    between atoms: O_3  and  C_4
REMARK    4  A    between atoms: N_12  and  C_13
REMARK    5  A    between atoms: C_13  and  C_15
REMARK    6  A    between atoms: C_18  and  S_21
REMARK    7  A    between atoms: S_21  and  N_24
REMARK    8  A    between atoms: N_24  and  C_25
REMARK    9  A    between atoms: N_24  and  C_26
REMARK   10  A    between atoms: C_26  and  C_27
REMARK   11  A    between atoms: N_33  and  C_34
REMARK   12  A    between atoms: C_34  and  C_35
REMARK                            x       y       z     vdW  Elec       q    Type
REMARK                         _______ _______ _______ _____ _____    ______ ____
ROOT
ATOM      1  C   UNL     1      -0.535  -0.862   0.854  0.00  0.00    +0.269 C 
ATOM      2  O   UNL     1       0.333  -0.008   0.805  0.00  0.00    -0.268 OA
ENDROOT
BRANCH   1  11
ATOM      3  C   UNL     1      -3.438   5.494   1.713  0.00  0.00    +0.122 A 
ATOM      4  C   UNL     1      -4.636   4.798   1.817  0.00  0.00    +0.048 A 
ATOM      5  C   UNL     1      -4.675   3.428   1.719  0.00  0.00    +0.030 A 
ATOM      6  C   UNL     1      -3.500   2.689   1.509  0.00  0.00    +0.059 A 
ATOM      7  C   UNL     1      -2.305   3.415   1.407  0.00  0.00    +0.042 A 
ATOM      8  C   UNL     1      -2.262   4.785   1.505  0.00  0.00    +0.062 A 
ATOM      9  S   UNL     1      -1.082   2.153   1.152  0.00  0.00    -0.052 S 
ATOM     10  C   UNL     1      -2.131   0.773   1.185  0.00  0.00    +0.168 A 
ATOM     11  N   UNL     1      -1.810  -0.509   1.047  0.00  0.00    -0.152 NA
ATOM     12  N   UNL     1      -3.361   1.317   1.381  0.00  0.00    -0.310 N 
BRANCH   3  13
ATOM     13  O   UNL     1      -3.417   6.849   1.812  0.00  0.00    -0.492 OA
BRANCH  13  15
ATOM     14  C   UNL     1      -4.447   9.015   2.111  0.00  0.00    +0.048 C 
ATOM     15  C   UNL     1      -4.669   7.504   2.026  0.00  0.00    +0.225 C 
ENDBRANCH  13  15
ENDBRANCH   3  13
BRANCH  12  16
ATOM     16  C   UNL     1      -4.540   0.452   1.462  0.00  0.00    +0.212 C 
BRANCH  16  17
ATOM     17  C   UNL     1      -4.763   0.057   2.863  0.00  0.00    -0.084 C 
ATOM     18  C   UNL     1      -4.941  -0.259   3.979  0.00  0.00    +0.005 C 
ENDBRANCH  16  17
ENDBRANCH  12  16
ENDBRANCH   1  11
BRANCH   1  19
ATOM     19  C   UNL     1      -0.177  -2.291   0.699  0.00  0.00    +0.039 A 
ATOM     20  C   UNL     1      -1.168  -3.271   0.760  0.00  0.00    +0.015 A 
ATOM     21  C   UNL     1      -0.829  -4.601   0.611  0.00  0.00    +0.029 A 
ATOM     22  C   UNL     1       0.491  -4.962   0.411  0.00  0.00    +0.106 A 
ATOM     23  C   UNL     1       1.479  -3.995   0.355  0.00  0.00    +0.029 A 
ATOM     24  C   UNL     1       1.152  -2.662   0.497  0.00  0.00    +0.015 A 
BRANCH  22  25
ATOM     25  S   UNL     1       0.917  -6.662   0.227  0.00  0.00    +0.061 S 
ATOM     26  O   UNL     1      -0.274  -7.341  -0.148  0.00  0.00    -0.153 OA
ATOM     27  O   UNL     1       2.097  -6.702  -0.563  0.00  0.00    -0.153 OA
BRANCH  25  28
ATOM     28  N   UNL     1       1.332  -7.228   1.727  0.00  0.00    -0.175 NA
ATOM     29  C   UNL     1       0.292  -7.696   2.647  0.00  0.00    +0.132 C 
BRANCH  28  30
ATOM     30  C   UNL     1       2.739  -7.260   2.134  0.00  0.00    +0.144 C 
BRANCH  30  31
ATOM     31  C   UNL     1       3.296  -8.642   1.906  0.00  0.00    -0.032 A 
ATOM     32  C   UNL     1       3.151  -9.615   2.878  0.00  0.00    +0.005 A 
ATOM     33  C   UNL     1       3.658 -10.883   2.667  0.00  0.00    +0.000 A 
ATOM     34  C   UNL     1       4.319 -11.176   1.489  0.00  0.00    +0.000 A 
ATOM     35  C   UNL     1       4.470 -10.202   0.520  0.00  0.00    +0.000 A 
ATOM     36  C   UNL     1       3.958  -8.935   0.729  0.00  0.00    +0.005 A 
ENDBRANCH  30  31
ENDBRANCH  28  30
ENDBRANCH  25  28
ENDBRANCH  22  25
ENDBRANCH   1  19
TORSDOF 10
