REMARK  Name = ZINC02265218
REMARK  14 active torsions:
REMARK  status: ('A' for Active; 'I' for Inactive)
REMARK    1  A    between atoms: C_1  and  C_2
REMARK    2  A    between atoms: C_2  and  C_3
REMARK    3  A    between atoms: C_3  and  S_4
REMARK    4  A    between atoms: S_4  and  C_5
REMARK    5  A    between atoms: C_14  and  C_16
REMARK    6  A    between atoms: C_14  and  C_17
REMARK    7  A    between atoms: C_17  and  C_18
REMARK    8  A    between atoms: C_19  and  S_21
REMARK    9  A    between atoms: S_21  and  C_22
REMARK   10  A    between atoms: C_22  and  C_23
REMARK   11  A    between atoms: N_25  and  C_26
REMARK   12  A    between atoms: C_26  and  C_28
REMARK   13  A    between atoms: C_26  and  C_29
REMARK   14  A    between atoms: C_29  and  C_30
REMARK                            x       y       z     vdW  Elec       q    Type
REMARK                         _______ _______ _______ _____ _____    ______ ____
ROOT
ATOM      1  C   UNL     1       2.321   0.016  -0.019  0.00  0.00    +0.190 A 
ATOM      2  N   UNL     1       2.364   1.342  -0.013  0.00  0.00    -0.215 NA
ATOM      3  C   UNL     1       1.247   2.043   0.001  0.00  0.00    +0.114 A 
ATOM      4  C   UNL     1      -0.017   1.419   0.010  0.00  0.00    +0.043 A 
ATOM      5  C   UNL     1      -1.168   2.321   0.032  0.00  0.00    -0.020 A 
ATOM      6  C   UNL     1      -0.910   3.646   0.031  0.00  0.00    +0.021 A 
ATOM      7  S   UNL     1       0.855   3.774   0.014  0.00  0.00    -0.071 S 
ATOM      8  C   UNL     1      -1.927   4.746   0.049  0.00  0.00    +0.203 C 
ATOM      9  O   UNL     1      -3.197   4.167   0.395  0.00  0.00    -0.368 OA
ATOM     10  C   UNL     1      -3.513   3.002  -0.372  0.00  0.00    +0.071 C 
ATOM     11  C   UNL     1      -2.615   1.835   0.048  0.00  0.00    +0.071 C 
ATOM     12  C   UNL     1      -3.295   3.300  -1.857  0.00  0.00    +0.042 C 
ATOM     13  C   UNL     1       0.002  -0.004   0.002  0.00  0.00    +0.110 A 
ATOM     14  N   UNL     1       1.165  -0.636  -0.012  0.00  0.00    -0.215 NA
ENDROOT
BRANCH  10  15
ATOM     15  C   UNL     1      -4.978   2.624  -0.140  0.00  0.00    +0.032 C 
ATOM     16  C   UNL     1      -5.882   3.736  -0.674  0.00  0.00    +0.007 C 
ENDBRANCH  10  15
BRANCH   1  17
ATOM     17  S   UNL     1       3.828  -0.898  -0.038  0.00  0.00    -0.086 S 
BRANCH  17  18
ATOM     18  C   UNL     1       3.172  -2.585  -0.040  0.00  0.00    +0.077 C 
BRANCH  18  20
ATOM     19  C   UNL     1       3.778  -5.009  -0.058  0.00  0.00    +0.004 C 
ATOM     20  C   UNL     1       4.332  -3.583  -0.056  0.00  0.00    +0.008 C 
ENDBRANCH  18  20
ENDBRANCH  17  18
ENDBRANCH   1  17
BRANCH  13  21
ATOM     21  S   UNL     1      -1.506  -0.915   0.011  0.00  0.00    -0.096 S 
BRANCH  21  22
ATOM     22  C   UNL     1      -0.854  -2.603  -0.004  0.00  0.00    +0.171 C 
BRANCH  22  23
ATOM     23  C   UNL     1      -1.998  -3.584   0.002  0.00  0.00    +0.223 C 
ATOM     24  O   UNL     1      -3.142  -3.181   0.015  0.00  0.00    -0.275 OA
ATOM     25  N   UNL     1      -1.750  -4.909  -0.008  0.00  0.00    -0.312 N 
ATOM     26  H   UNL     1      -0.835  -5.231  -0.018  0.00  0.00    +0.149 HD
BRANCH  25  27
ATOM     27  C   UNL     1      -2.862  -5.862  -0.002  0.00  0.00    +0.074 C 
ATOM     28  C   UNL     1      -3.317  -6.107   1.438  0.00  0.00    +0.028 C 
BRANCH  27  29
ATOM     29  C   UNL     1      -2.404  -7.184  -0.624  0.00  0.00    +0.057 C 
BRANCH  29  30
ATOM     30  C   UNL     1      -2.072  -6.967  -2.077  0.00  0.00    -0.046 A 
ATOM     31  C   UNL     1      -3.050  -7.126  -3.041  0.00  0.00    +0.004 A 
ATOM     32  C   UNL     1      -2.747  -6.922  -4.374  0.00  0.00    +0.000 A 
ATOM     33  C   UNL     1      -1.462  -6.570  -4.745  0.00  0.00    +0.000 A 
ATOM     34  C   UNL     1      -0.483  -6.416  -3.781  0.00  0.00    +0.000 A 
ATOM     35  C   UNL     1      -0.788  -6.614  -2.448  0.00  0.00    +0.004 A 
ENDBRANCH  29  30
ENDBRANCH  27  29
ENDBRANCH  25  27
ENDBRANCH  22  23
ENDBRANCH  21  22
ENDBRANCH  13  21
TORSDOF 10
