REMARK  Name = ZINC17175884
REMARK  8 active torsions:
REMARK  status: ('A' for Active; 'I' for Inactive)
REMARK    1  A    between atoms: C_1  and  N_2
REMARK    2  A    between atoms: C_4  and  C_28
REMARK    3  A    between atoms: C_5  and  C_22
REMARK    4  A    between atoms: C_8  and  C_16
REMARK    5  A    between atoms: C_10  and  C_14
REMARK    6  A    between atoms: C_12  and  O_13
REMARK    7  A    between atoms: C_14  and  O_15
REMARK    8  A    between atoms: C_28  and  O_29
REMARK                            x       y       z     vdW  Elec       q    Type
REMARK                         _______ _______ _______ _____ _____    ______ ____
ROOT
ATOM      1  C   UNL     1      -0.008   1.460   0.157  0.00  0.00    -0.096 C 
ATOM      2  N   UNL     1       0.017  -0.009   0.156  0.00  0.00    +0.379 N 
ATOM      3  C   UNL     1      -1.350  -0.519   0.311  0.00  0.00    -0.065 C 
ATOM      4  C   UNL     1      -1.337  -2.050   0.241  0.00  0.00    +0.036 C 
ATOM      5  C   UNL     1      -0.712  -2.483  -1.090  0.00  0.00    +0.158 C 
ATOM      6  O   UNL     1       0.622  -1.979  -1.173  0.00  0.00    -0.363 OA
ATOM      7  C   UNL     1       1.494  -2.446  -0.142  0.00  0.00    +0.158 C 
ATOM      8  C   UNL     1       0.945  -2.011   1.222  0.00  0.00    +0.036 C 
ATOM      9  C   UNL     1       0.860  -0.482   1.260  0.00  0.00    -0.065 C 
ATOM     10  C   UNL     1      -0.468  -2.587   1.387  0.00  0.00    +0.133 C 
ATOM     11  H   UNL     1       0.398  -0.336  -0.720  0.00  0.00    -0.082 HD
ENDROOT
BRANCH   7  12
ATOM     12  C   UNL     1       1.575  -3.950  -0.195  0.00  0.00    -0.018 A 
ATOM     13  C   UNL     1       0.426  -4.709  -0.073  0.00  0.00    +0.006 A 
ATOM     14  C   UNL     1       0.501  -6.089  -0.122  0.00  0.00    +0.000 A 
ATOM     15  C   UNL     1       1.724  -6.709  -0.294  0.00  0.00    +0.000 A 
ATOM     16  C   UNL     1       2.873  -5.950  -0.417  0.00  0.00    +0.000 A 
ATOM     17  C   UNL     1       2.798  -4.570  -0.372  0.00  0.00    +0.006 A 
ENDBRANCH   7  12
BRANCH   5  18
ATOM     18  C   UNL     1      -1.530  -1.934  -2.231  0.00  0.00    -0.018 A 
ATOM     19  C   UNL     1      -1.295  -0.654  -2.696  0.00  0.00    +0.006 A 
ATOM     20  C   UNL     1      -2.045  -0.150  -3.743  0.00  0.00    +0.000 A 
ATOM     21  C   UNL     1      -3.029  -0.927  -4.324  0.00  0.00    +0.000 A 
ATOM     22  C   UNL     1      -3.263  -2.208  -3.860  0.00  0.00    +0.000 A 
ATOM     23  C   UNL     1      -2.511  -2.713  -2.816  0.00  0.00    +0.006 A 
ENDBRANCH   5  18
BRANCH  10  24
ATOM     24  O   UNL     1      -1.014  -2.174   2.641  0.00  0.00    -0.390 OA
ATOM     25  H   UNL     1      -0.512  -2.480   3.409  0.00  0.00    +0.210 HD
ENDBRANCH  10  24
BRANCH   8  26
ATOM     26  C   UNL     1       1.862  -2.513   2.338  0.00  0.00    +0.166 C 
BRANCH  26  27
ATOM     27  O   UNL     1       3.171  -1.966   2.162  0.00  0.00    -0.394 OA
ATOM     28  H   UNL     1       3.807  -2.242   2.836  0.00  0.00    +0.209 HD
ENDBRANCH  26  27
ENDBRANCH   8  26
BRANCH   4  29
ATOM     29  C   UNL     1      -2.762  -2.591   0.366  0.00  0.00    +0.166 C 
BRANCH  29  30
ATOM     30  O   UNL     1      -3.562  -2.079  -0.701  0.00  0.00    -0.394 OA
ATOM     31  H   UNL     1      -4.480  -2.381  -0.685  0.00  0.00    +0.209 HD
ENDBRANCH  29  30
ENDBRANCH   4  29
TORSDOF 7
