REMARK  Name = ZINC01789191
REMARK  10 active torsions:
REMARK  status: ('A' for Active; 'I' for Inactive)
REMARK    1  A    between atoms: C_1  and  C_2
REMARK    2  A    between atoms: C_2  and  C_3
REMARK    3  A    between atoms: C_3  and  C_31
REMARK    4  A    between atoms: C_10  and  N_28
REMARK    5  A    between atoms: C_12  and  S_14
REMARK    6  A    between atoms: S_14  and  C_15
REMARK    7  A    between atoms: C_15  and  C_16
REMARK    8  A    between atoms: N_18  and  C_19
REMARK    9  A    between atoms: C_22  and  C_25
REMARK   10  A    between atoms: C_25  and  C_27
REMARK                            x       y       z     vdW  Elec       q    Type
REMARK                         _______ _______ _______ _____ _____    ______ ____
ROOT
ATOM      1  C   UNL     1      -0.966   1.254  -1.195  0.00  0.00    +0.071 C 
ATOM      2  C   UNL     1      -0.231   0.688  -2.413  0.00  0.00    +0.071 C 
ATOM      3  C   UNL     1      -0.576   1.556  -3.622  0.00  0.00    -0.020 A 
ATOM      4  C   UNL     1      -1.095   2.791  -3.426  0.00  0.00    +0.021 A 
ATOM      5  S   UNL     1      -1.351   3.452  -5.051  0.00  0.00    -0.071 S 
ATOM      6  C   UNL     1      -0.764   2.079  -5.990  0.00  0.00    +0.115 A 
ATOM      7  C   UNL     1      -0.383   1.138  -4.998  0.00  0.00    +0.051 A 
ATOM      8  C   UNL     1       0.144  -0.104  -5.457  0.00  0.00    +0.129 A 
ATOM      9  N   UNL     1       0.223  -0.253  -6.777  0.00  0.00    -0.207 NA
ATOM     10  C   UNL     1      -0.153   0.671  -7.648  0.00  0.00    +0.191 A 
ATOM     11  N   UNL     1      -0.654   1.854  -7.284  0.00  0.00    -0.214 NA
ATOM     12  C   UNL     1      -1.380   3.432  -2.104  0.00  0.00    +0.203 C 
ATOM     13  O   UNL     1      -0.726   2.660  -1.085  0.00  0.00    -0.368 OA
ATOM     14  C   UNL     1      -2.468   1.007  -1.352  0.00  0.00    +0.042 C 
ENDROOT
BRANCH   8  15
ATOM     15  N   UNL     1       0.548  -1.096  -4.582  0.00  0.00    -0.343 N 
ATOM     16  H   UNL     1       0.623  -0.905  -3.634  0.00  0.00    +0.144 HD
ATOM     17  H   UNL     1       0.757  -1.982  -4.917  0.00  0.00    +0.144 HD
ENDBRANCH   8  15
BRANCH   1  19
ATOM     18  C   UNL     1      -1.295   1.015   1.270  0.00  0.00    +0.007 C 
ATOM     19  C   UNL     1      -0.466   0.553   0.070  0.00  0.00    +0.032 C 
ENDBRANCH   1  19
BRANCH  10  20
ATOM     20  S   UNL     1       0.014   0.323  -9.367  0.00  0.00    -0.077 S 
BRANCH  20  21
ATOM     21  C   UNL     1       0.711  -1.345  -9.284  0.00  0.00    +0.173 C 
BRANCH  21  22
ATOM     22  C   UNL     1       0.945  -1.863 -10.680  0.00  0.00    +0.227 C 
ATOM     23  O   UNL     1       0.667  -1.172 -11.637  0.00  0.00    -0.275 OA
ATOM     24  N   UNL     1       1.462  -3.094 -10.864  0.00  0.00    -0.285 N 
ATOM     25  H   UNL     1       1.623  -3.672 -10.102  0.00  0.00    +0.155 HD
BRANCH  24  26
ATOM     26  C   UNL     1       1.767  -3.535 -12.150  0.00  0.00    +0.033 A 
ATOM     27  C   UNL     1       2.888  -4.332 -12.362  0.00  0.00    +0.024 A 
ATOM     28  C   UNL     1       3.189  -4.773 -13.625  0.00  0.00    +0.013 A 
ATOM     29  C   UNL     1       2.372  -4.412 -14.704  0.00  0.00    +0.017 A 
ATOM     30  C   UNL     1       1.248  -3.606 -14.486  0.00  0.00    +0.013 A 
ATOM     31  C   UNL     1       0.952  -3.174 -13.219  0.00  0.00    +0.024 A 
BRANCH  29  32
ATOM     32  C   UNL     1       2.693  -4.878 -16.059  0.00  0.00    +0.160 C 
ATOM     33  O   UNL     1       1.933  -4.646 -16.976  0.00  0.00    -0.292 OA
ATOM     34  C   UNL     1       3.966  -5.644 -16.311  0.00  0.00    +0.091 C 
ENDBRANCH  29  32
ENDBRANCH  24  26
ENDBRANCH  21  22
ENDBRANCH  20  21
ENDBRANCH  10  20
TORSDOF 7
