REMARK  Name = ZINC59045702
REMARK  8 active torsions:
REMARK  status: ('A' for Active; 'I' for Inactive)
REMARK    1  A    between atoms: C_4  and  O_29
REMARK    2  A    between atoms: C_5  and  C_7
REMARK    3  A    between atoms: C_10  and  S_13
REMARK    4  A    between atoms: N_11  and  N_12
REMARK    5  A    between atoms: S_13  and  C_14
REMARK    6  A    between atoms: C_14  and  C_15
REMARK    7  A    between atoms: N_17  and  C_18
REMARK    8  A    between atoms: C_19  and  C_27
REMARK                            x       y       z     vdW  Elec       q    Type
REMARK                         _______ _______ _______ _____ _____    ______ ____
ROOT
ATOM      1  S   UNL     1      -0.262  -5.765  -0.037  0.00  0.00    -0.075 S 
ENDROOT
BRANCH   1   5
ATOM      2  C   UNL     1       1.248  -2.161  -0.022  0.00  0.00    +0.185 A 
ATOM      3  N   UNL     1       2.318  -2.922  -0.031  0.00  0.00    -0.127 NA
ATOM      4  N   UNL     1       1.975  -4.160  -0.037  0.00  0.00    -0.121 NA
ATOM      5  C   UNL     1       0.665  -4.266  -0.032  0.00  0.00    +0.209 A 
ATOM      6  N   UNL     1       0.157  -2.999  -0.016  0.00  0.00    -0.224 N 
BRANCH   2  11
ATOM      7  C   UNL     1      -0.017   1.375   0.010  0.00  0.00    +0.001 A 
ATOM      8  C   UNL     1       1.169   2.089   0.002  0.00  0.00    +0.004 A 
ATOM      9  C   UNL     1       2.383   1.427  -0.013  0.00  0.00    +0.046 A 
ATOM     10  C   UNL     1       2.418   0.042  -0.021  0.00  0.00    +0.128 A 
ATOM     11  C   UNL     1       1.221  -0.683  -0.013  0.00  0.00    +0.062 A 
ATOM     12  C   UNL     1       0.002  -0.004   0.002  0.00  0.00    +0.015 A 
BRANCH  10  13
ATOM     13  O   UNL     1       3.610  -0.609  -0.036  0.00  0.00    -0.506 OA
ATOM     14  H   UNL     1       3.964  -0.802   0.843  0.00  0.00    +0.292 HD
ENDBRANCH  10  13
ENDBRANCH   2  11
BRANCH   6  15
ATOM     15  N   UNL     1      -1.161  -2.638  -0.001  0.00  0.00    -0.295 N 
ATOM     16  H   UNL     1      -1.519  -2.537  -0.939  0.00  0.00    +0.163 HD
ATOM     17  H   UNL     1      -1.711  -3.299   0.526  0.00  0.00    +0.163 HD
ENDBRANCH   6  15
ENDBRANCH   1   5
BRANCH   1  18
ATOM     18  C   UNL     1       1.004  -7.064  -0.050  0.00  0.00    +0.173 C 
BRANCH  18  19
ATOM     19  C   UNL     1       0.337  -8.415  -0.056  0.00  0.00    +0.228 C 
ATOM     20  O   UNL     1      -0.873  -8.494  -0.052  0.00  0.00    -0.275 OA
ATOM     21  N   UNL     1       1.085  -9.536  -0.066  0.00  0.00    -0.278 N 
ATOM     22  H   UNL     1       2.053  -9.473  -0.070  0.00  0.00    +0.155 HD
BRANCH  21  23
ATOM     23  C   UNL     1       0.471 -10.781  -0.071  0.00  0.00    +0.090 A 
ATOM     24  C   UNL     1       1.073 -12.028  -0.076  0.00  0.00    +0.084 A 
ATOM     25  C   UNL     1       0.200 -13.188  -0.080  0.00  0.00    -0.018 A 
ATOM     26  C   UNL     1      -1.117 -12.888  -0.080  0.00  0.00    -0.004 A 
ATOM     27  S   UNL     1      -1.174 -11.120  -0.066  0.00  0.00    -0.077 S 
ATOM     28  C   UNL     1      -2.260 -13.855  -0.085  0.00  0.00    +0.043 C 
ATOM     29  C   UNL     1      -1.718 -15.239  -0.472  0.00  0.00    +0.005 C 
ATOM     30  C   UNL     1      -0.469 -15.534   0.364  0.00  0.00    +0.005 C 
ATOM     31  C   UNL     1       0.682 -14.631  -0.084  0.00  0.00    +0.037 C 
BRANCH  24  32
ATOM     32  C   UNL     1       2.499 -12.167  -0.076  0.00  0.00    +0.102 C 
ATOM     33  N   UNL     1       3.629 -12.278  -0.077  0.00  0.00    -0.191 NA
ENDBRANCH  24  32
ENDBRANCH  21  23
ENDBRANCH  18  19
ENDBRANCH   1  18
TORSDOF 8
