REMARK  Name = ZINC08958548
REMARK  9 active torsions:
REMARK  status: ('A' for Active; 'I' for Inactive)
REMARK    1  A    between atoms: C_1  and  C_2
REMARK    2  A    between atoms: N_8  and  C_33
REMARK    3  A    between atoms: N_10  and  C_11
REMARK    4  A    between atoms: C_11  and  C_13
REMARK    5  A    between atoms: C_16  and  S_19
REMARK    6  A    between atoms: S_19  and  N_22
REMARK    7  A    between atoms: C_33  and  C_34
REMARK    8  A    between atoms: C_34  and  O_35
REMARK    9  A    between atoms: O_35  and  C_36
REMARK                            x       y       z     vdW  Elec       q    Type
REMARK                         _______ _______ _______ _____ _____    ______ ____
ROOT
ATOM      1  C   UNL     1      -4.520   1.175  -1.511  0.00  0.00    +0.039 A 
ATOM      2  C   UNL     1      -4.949  -0.147  -1.630  0.00  0.00    +0.015 A 
ATOM      3  C   UNL     1      -6.266  -0.416  -1.945  0.00  0.00    +0.029 A 
ATOM      4  C   UNL     1      -7.157   0.622  -2.152  0.00  0.00    +0.109 A 
ATOM      5  C   UNL     1      -6.736   1.935  -2.040  0.00  0.00    +0.029 A 
ATOM      6  C   UNL     1      -5.424   2.217  -1.721  0.00  0.00    +0.015 A 
ENDROOT
BRANCH   4   7
ATOM      7  S   UNL     1      -8.834   0.269  -2.559  0.00  0.00    +0.075 S 
ATOM      8  O   UNL     1      -9.106  -1.036  -2.068  0.00  0.00    -0.150 OA
ATOM      9  O   UNL     1      -9.594   1.404  -2.168  0.00  0.00    -0.150 OA
BRANCH   7  10
ATOM     10  N   UNL     1      -8.929   0.183  -4.210  0.00  0.00    -0.203 N 
ATOM     11  C   UNL     1      -9.351   1.351  -4.996  0.00  0.00    +0.132 C 
ATOM     12  C   UNL     1     -10.355   0.868  -6.051  0.00  0.00    +0.025 C 
ATOM     13  C   UNL     1      -9.650  -0.104  -6.996  0.00  0.00    +0.038 C 
ATOM     14  C   UNL     1      -8.941  -1.178  -6.214  0.00  0.00    -0.025 A 
ATOM     15  C   UNL     1      -8.604  -1.002  -4.880  0.00  0.00    +0.054 A 
ATOM     16  C   UNL     1      -7.950  -2.014  -4.189  0.00  0.00    +0.025 A 
ATOM     17  C   UNL     1      -7.629  -3.194  -4.830  0.00  0.00    +0.002 A 
ATOM     18  C   UNL     1      -7.962  -3.368  -6.160  0.00  0.00    +0.000 A 
ATOM     19  C   UNL     1      -8.615  -2.365  -6.850  0.00  0.00    +0.005 A 
ENDBRANCH   7  10
ENDBRANCH   4   7
BRANCH   1  20
ATOM     20  C   UNL     1      -3.110   1.471  -1.168  0.00  0.00    +0.269 C 
ATOM     21  O   UNL     1      -2.737   2.627  -1.069  0.00  0.00    -0.268 OA
BRANCH  20  31
ATOM     22  C   UNL     1       2.402  -1.919   0.125  0.00  0.00    +0.046 C 
ATOM     23  C   UNL     1       2.457  -0.414   0.149  0.00  0.00    -0.026 A 
ATOM     24  C   UNL     1       3.644   0.219   0.434  0.00  0.00    +0.005 A 
ATOM     25  C   UNL     1       3.732   1.600   0.465  0.00  0.00    +0.001 A 
ATOM     26  C   UNL     1       2.603   2.356   0.204  0.00  0.00    +0.017 A 
ATOM     27  C   UNL     1       1.415   1.725  -0.080  0.00  0.00    +0.039 A 
ATOM     28  C   UNL     1       1.296   0.327  -0.119  0.00  0.00    +0.061 A 
ATOM     29  N   UNL     1       0.031  -0.140  -0.422  0.00  0.00    -0.319 N 
ATOM     30  C   UNL     1      -0.982   0.737  -0.660  0.00  0.00    +0.167 A 
ATOM     31  N   UNL     1      -2.247   0.471  -0.967  0.00  0.00    -0.152 NA
ATOM     32  S   UNL     1      -0.225   2.284  -0.464  0.00  0.00    -0.052 S 
BRANCH  29  33
ATOM     33  C   UNL     1      -0.219  -1.582  -0.492  0.00  0.00    +0.152 C 
BRANCH  33  34
ATOM     34  C   UNL     1      -0.535  -2.114   0.907  0.00  0.00    +0.181 C 
BRANCH  34  35
ATOM     35  O   UNL     1      -0.779  -3.521   0.838  0.00  0.00    -0.381 OA
ATOM     36  C   UNL     1      -1.086  -4.120   2.099  0.00  0.00    +0.194 C 
ENDBRANCH  34  35
ENDBRANCH  33  34
ENDBRANCH  29  33
ENDBRANCH  20  31
ENDBRANCH   1  20
TORSDOF 7
