REMARK  Name = ZINC09013183
REMARK  9 active torsions:
REMARK  status: ('A' for Active; 'I' for Inactive)
REMARK    1  A    between atoms: C_1  and  C_2
REMARK    2  A    between atoms: C_8  and  C_9
REMARK    3  A    between atoms: C_8  and  N_73
REMARK    4  A    between atoms: C_9  and  N_10
REMARK    5  A    between atoms: N_10  and  C_11
REMARK    6  A    between atoms: C_32  and  C_36
REMARK    7  A    between atoms: C_36  and  C_37
REMARK    8  A    between atoms: C_36  and  C_38
REMARK    9  A    between atoms: C_36  and  C_39
REMARK                            x       y       z     vdW  Elec       q    Type
REMARK                         _______ _______ _______ _____ _____    ______ ____
ROOT
ATOM      1  C   UNL     1       1.144   7.486   0.028  0.00  0.00    +0.042 A 
ATOM      2  C   UNL     1       2.343   8.199  -0.009  0.00  0.00    +0.072 A 
ATOM      3  C   UNL     1       3.554   7.537  -0.024  0.00  0.00    +0.154 A 
ATOM      4  C   UNL     1       3.589   6.130  -0.002  0.00  0.00    +0.094 A 
ATOM      5  C   UNL     1       2.400   5.401   0.034  0.00  0.00    +0.062 A 
ATOM      6  C   UNL     1       1.162   6.085   0.049  0.00  0.00    +0.056 A 
ATOM      7  C   UNL     1      -0.095   5.330   0.087  0.00  0.00    +0.196 A 
ATOM      8  O   UNL     1      -1.159   5.920   0.100  0.00  0.00    -0.287 OA
ATOM      9  C   UNL     1      -0.067   3.854   0.109  0.00  0.00    +0.033 A 
ATOM     10  C   UNL     1      -1.256   3.129   0.145  0.00  0.00    +0.012 A 
ATOM     11  C   UNL     1      -1.221   1.748   0.160  0.00  0.00    +0.001 A 
ATOM     12  C   UNL     1      -0.011   1.077   0.150  0.00  0.00    +0.001 A 
ATOM     13  C   UNL     1       1.179   1.779   0.115  0.00  0.00    +0.012 A 
ATOM     14  C   UNL     1       1.163   3.172   0.094  0.00  0.00    +0.033 A 
ATOM     15  C   UNL     1       2.429   3.932   0.056  0.00  0.00    +0.197 A 
ATOM     16  O   UNL     1       3.493   3.342   0.043  0.00  0.00    -0.287 OA
ATOM     17  N   UNL     1       4.811   5.474  -0.017  0.00  0.00    -0.349 N 
ATOM     18  H   UNL     1       4.849   4.505  -0.002  0.00  0.00    +0.166 HD
ATOM     19  C   UNL     1       5.987   6.231  -0.054  0.00  0.00    +0.083 A 
ATOM     20  C   UNL     1       7.223   5.601  -0.069  0.00  0.00    +0.029 A 
ATOM     21  C   UNL     1       8.381   6.356  -0.105  0.00  0.00    +0.006 A 
ATOM     22  C   UNL     1       8.308   7.737  -0.125  0.00  0.00    -0.038 A 
ATOM     23  C   UNL     1       7.080   8.371  -0.111  0.00  0.00    +0.052 A 
ATOM     24  C   UNL     1       5.913   7.622  -0.074  0.00  0.00    +0.152 A 
ATOM     25  O   UNL     1       4.708   8.247  -0.059  0.00  0.00    -0.452 OA
ENDROOT
BRANCH  22  26
ATOM     26  C   UNL     1       9.574   8.554  -0.164  0.00  0.00    -0.013 C 
ATOM     27  C   UNL     1      10.785   7.619  -0.174  0.00  0.00    +0.015 C 
ATOM     28  C   UNL     1       9.586   9.417  -1.427  0.00  0.00    +0.015 C 
ATOM     29  C   UNL     1       9.637   9.456   1.070  0.00  0.00    +0.015 C 
ENDBRANCH  22  26
BRANCH   1  30
ATOM     30  N   UNL     1      -0.064   8.164   0.042  0.00  0.00    -0.345 N 
ATOM     31  H   UNL     1      -0.897   7.671  -0.025  0.00  0.00    +0.146 HD
BRANCH  30  32
ATOM     32  C   UNL     1      -0.083   9.624   0.158  0.00  0.00    +0.083 C 
BRANCH  32  33
ATOM     33  C   UNL     1      -1.532  10.117   0.149  0.00  0.00    -0.060 C 
BRANCH  33  40
ATOM     34  C   UNL     1      -0.316  13.995   2.921  0.00  0.00    +0.005 C 
ATOM     35  C   UNL     1      -1.040  13.533   1.654  0.00  0.00    -0.031 C 
ATOM     36  C   UNL     1      -0.440  14.241   0.436  0.00  0.00    -0.001 C 
ATOM     37  C   UNL     1      -1.129  13.730  -0.832  0.00  0.00    -0.018 C 
ATOM     38  C   UNL     1      -0.961  12.211  -0.922  0.00  0.00    -0.079 C 
ATOM     39  C   UNL     1      -0.874  12.021   1.492  0.00  0.00    -0.076 C 
ATOM     40  N   UNL     1      -1.580  11.589   0.268  0.00  0.00    +0.381 N 
ATOM     41  H   UNL     1      -2.561  11.886   0.326  0.00  0.00    -0.082 HD
ENDBRANCH  33  40
ENDBRANCH  32  33
ENDBRANCH  30  32
ENDBRANCH   1  30
TORSDOF 5
