REMARK  Name = ZINC02914774
REMARK  4 active torsions:
REMARK  status: ('A' for Active; 'I' for Inactive)
REMARK    1  A    between atoms: C_1  and  O_2
REMARK    2  A    between atoms: O_2  and  C_3
REMARK    3  A    between atoms: C_8  and  C_13
REMARK    4  A    between atoms: C_16  and  C_24
REMARK                            x       y       z     vdW  Elec       q    Type
REMARK                         _______ _______ _______ _____ _____    ______ ____
ROOT
ATOM      1  C   UNL     1       3.298  -4.510   5.452  0.00  0.00    +0.106 C 
ATOM      2  C   UNL     1       4.703  -4.948   5.023  0.00  0.00    +0.059 C 
ATOM      3  C   UNL     1       4.609  -5.872   3.802  0.00  0.00    +0.144 C 
ATOM      4  N   UNL     1       3.612  -6.905   4.070  0.00  0.00    -0.206 N 
ATOM      5  C   UNL     1       2.654  -6.816   5.028  0.00  0.00    +0.236 A 
ATOM      6  N   UNL     1       1.954  -7.915   4.979  0.00  0.00    -0.092 NA
ATOM      7  N   UNL     1       2.405  -8.690   4.053  0.00  0.00    -0.021 NA
ATOM      8  N   UNL     1       3.413  -8.142   3.457  0.00  0.00    -0.042 NA
ATOM      9  N   UNL     1       2.530  -5.705   5.855  0.00  0.00    -0.305 N 
ATOM     10  H   UNL     1       1.974  -5.713   6.651  0.00  0.00    +0.150 HD
ENDROOT
BRANCH   1  16
ATOM     11  C   UNL     1       0.626  -0.618   1.041  0.00  0.00    +0.121 A 
ATOM     12  C   UNL     1       1.203   0.154   2.054  0.00  0.00    +0.046 A 
ATOM     13  C   UNL     1       1.834  -0.431   3.106  0.00  0.00    +0.012 A 
ATOM     14  C   UNL     1       1.909  -1.833   3.183  0.00  0.00    -0.017 A 
ATOM     15  C   UNL     1       2.553  -2.471   4.256  0.00  0.00    +0.014 A 
ATOM     16  C   UNL     1       2.606  -3.830   4.299  0.00  0.00    -0.027 A 
ATOM     17  C   UNL     1       2.031  -4.603   3.291  0.00  0.00    +0.006 A 
ATOM     18  C   UNL     1       1.399  -4.020   2.236  0.00  0.00    +0.009 A 
ATOM     19  C   UNL     1       1.324  -2.618   2.158  0.00  0.00    -0.014 A 
ATOM     20  C   UNL     1       0.675  -1.982   1.087  0.00  0.00    +0.054 A 
BRANCH  11  22
ATOM     21  C   UNL     1      -0.017   1.425   0.010  0.00  0.00    +0.277 C 
ATOM     22  O   UNL     1       0.002  -0.004   0.002  0.00  0.00    -0.495 OA
ENDBRANCH  11  22
ENDBRANCH   1  16
BRANCH   3  23
ATOM     23  C   UNL     1       5.949  -6.513   3.550  0.00  0.00    -0.023 A 
ATOM     24  C   UNL     1       6.528  -7.310   4.520  0.00  0.00    +0.007 A 
ATOM     25  C   UNL     1       7.757  -7.898   4.289  0.00  0.00    +0.020 A 
ATOM     26  C   UNL     1       8.408  -7.690   3.087  0.00  0.00    +0.041 A 
ATOM     27  C   UNL     1       7.829  -6.893   2.116  0.00  0.00    +0.020 A 
ATOM     28  C   UNL     1       6.597  -6.309   2.346  0.00  0.00    +0.007 A 
ATOM     29 CL   UNL     1       9.952  -8.428   2.796  0.00  0.00    -0.084 Cl
ENDBRANCH   3  23
TORSDOF 3
