REMARK  Name = ZINC63008472
REMARK  2 active torsions:
REMARK  status: ('A' for Active; 'I' for Inactive)
REMARK    1  A    between atoms: C_6  and  C_7
REMARK    2  A    between atoms: C_7  and  C_9
REMARK                            x       y       z     vdW  Elec       q    Type
REMARK                         _______ _______ _______ _____ _____    ______ ____
ROOT
ATOM      1  C   UNL     1      -0.115   1.435   0.015  0.00  0.00    +0.007 A 
ATOM      2  C   UNL     1       1.034   2.201  -0.015  0.00  0.00    +0.028 A 
ATOM      3  C   UNL     1       2.273   1.583  -0.083  0.00  0.00    +0.067 A 
ATOM      4  C   UNL     1       2.354   0.190  -0.122  0.00  0.00    +0.067 A 
ATOM      5  C   UNL     1       1.196  -0.570  -0.092  0.00  0.00    +0.033 A 
ATOM      6  C   UNL     1      -0.035   0.054  -0.023  0.00  0.00    -0.023 A 
ATOM      7  N   UNL     1       3.708  -0.133  -0.187  0.00  0.00    -0.306 N 
ATOM      8  H   UNL     1       4.077  -1.029  -0.226  0.00  0.00    +0.170 HD
ATOM      9  C   UNL     1       4.417   1.012  -0.189  0.00  0.00    +0.325 A 
ATOM     10  O   UNL     1       5.631   1.084  -0.239  0.00  0.00    -0.247 OA
ATOM     11  N   UNL     1       3.580   2.064  -0.126  0.00  0.00    -0.306 N 
ATOM     12  H   UNL     1       3.842   2.998  -0.114  0.00  0.00    +0.170 HD
ENDROOT
BRANCH   6  13
ATOM     13  C   UNL     1      -1.294  -0.772   0.011  0.00  0.00    +0.140 C 
ATOM     14 CL   UNL     1      -2.416  -0.211  -1.285  0.00  0.00    -0.112 Cl
BRANCH  13  15
ATOM     15  C   UNL     1      -1.961  -0.617   1.353  0.00  0.00    -0.020 A 
ATOM     16  C   UNL     1      -2.504   0.601   1.718  0.00  0.00    +0.047 A 
ATOM     17  C   UNL     1      -3.117   0.745   2.951  0.00  0.00    +0.162 A 
ATOM     18  C   UNL     1      -3.185  -0.332   3.820  0.00  0.00    +0.193 A 
ATOM     19  C   UNL     1      -2.640  -1.553   3.453  0.00  0.00    +0.162 A 
ATOM     20  C   UNL     1      -2.034  -1.694   2.216  0.00  0.00    +0.047 A 
ATOM     21  F   UNL     1      -2.706  -2.604   4.298  0.00  0.00    -0.202 F 
ATOM     22  F   UNL     1      -3.782  -0.193   5.024  0.00  0.00    -0.199 F 
ATOM     23  F   UNL     1      -3.647   1.936   3.307  0.00  0.00    -0.202 F 
ENDBRANCH  13  15
ENDBRANCH   6  13
TORSDOF 2
