REMARK  Name = ZINC39232879
REMARK  8 active torsions:
REMARK  status: ('A' for Active; 'I' for Inactive)
REMARK    1  A    between atoms: C_1  and  C_2
REMARK    2  A    between atoms: N_6  and  C_7
REMARK    3  A    between atoms: C_7  and  C_9
REMARK    4  A    between atoms: C_9  and  C_10
REMARK    5  A    between atoms: C_10  and  C_11
REMARK    6  A    between atoms: C_13  and  C_29
REMARK    7  A    between atoms: C_18  and  C_28
REMARK    8  A    between atoms: C_19  and  C_27
REMARK                            x       y       z     vdW  Elec       q    Type
REMARK                         _______ _______ _______ _____ _____    ______ ____
ROOT
ATOM      1  C   UNL     1       0.090  -3.781   6.971  0.00  0.00    +0.106 C 
ATOM      2  C   UNL     1       0.190  -3.041   8.308  0.00  0.00    +0.033 C 
ATOM      3  C   UNL     1      -1.143  -2.426   8.655  0.00  0.00    -0.001 A 
ATOM      4  C   UNL     1      -1.166  -1.398   9.562  0.00  0.00    +0.019 A 
ATOM      5  C   UNL     1      -2.373  -0.804   9.918  0.00  0.00    +0.024 A 
ATOM      6  C   UNL     1      -2.756   0.283  10.828  0.00  0.00    -0.002 A 
ATOM      7  C   UNL     1      -4.088   0.394  10.739  0.00  0.00    +0.106 A 
ATOM      8  O   UNL     1      -4.571  -0.512   9.871  0.00  0.00    -0.460 OA
ATOM      9  C   UNL     1      -3.576  -1.257   9.349  0.00  0.00    +0.139 A 
ATOM     10  C   UNL     1      -3.539  -2.295   8.431  0.00  0.00    +0.093 A 
ATOM     11  C   UNL     1      -2.327  -2.876   8.083  0.00  0.00    +0.139 A 
ATOM     12  O   UNL     1      -2.341  -3.881   7.164  0.00  0.00    -0.425 OA
ATOM     13  C   UNL     1      -1.200  -4.576   6.981  0.00  0.00    +0.316 C 
ATOM     14  O   UNL     1      -1.205  -5.775   6.833  0.00  0.00    -0.250 OA
ATOM     15  C   UNL     1      -4.923   1.388  11.503  0.00  0.00    +0.086 C 
ATOM     16  C   UNL     1      -1.834   1.110  11.688  0.00  0.00    +0.048 C 
ATOM     17  C   UNL     1       0.594  -4.027   9.406  0.00  0.00    +0.013 C 
ENDROOT
BRANCH   1  18
ATOM     18  C   UNL     1       0.070  -2.773   5.820  0.00  0.00    +0.024 C 
BRANCH  18  19
ATOM     19  C   UNL     1       0.074  -3.522   4.486  0.00  0.00    +0.099 C 
BRANCH  19  20
ATOM     20  C   UNL     1       0.054  -2.529   3.353  0.00  0.00    +0.238 C 
ATOM     21  O   UNL     1       0.038  -1.335   3.589  0.00  0.00    -0.274 OA
BRANCH  20  27
ATOM     22  C   UNL     1      -0.018   1.503   0.010  0.00  0.00    +0.064 C 
ATOM     23  C   UNL     1       0.002  -0.004   0.002  0.00  0.00    +0.021 A 
ATOM     24  C   UNL     1       0.006  -0.694  -1.144  0.00  0.00    +0.069 A 
ATOM     25  S   UNL     1       0.033  -2.379  -0.561  0.00  0.00    -0.060 S 
ATOM     26  C   UNL     1       0.036  -2.076   1.093  0.00  0.00    +0.163 A 
ATOM     27  N   UNL     1       0.054  -2.955   2.096  0.00  0.00    -0.157 NA
ATOM     28  N   UNL     1       0.023  -0.718   1.159  0.00  0.00    -0.340 N 
ATOM     29  H   UNL     1       0.025  -0.266   2.018  0.00  0.00    +0.167 HD
ENDBRANCH  20  27
ENDBRANCH  19  20
ENDBRANCH  18  19
ENDBRANCH   1  18
TORSDOF 4
