REMARK  Name = ZINC39370637
REMARK  10 active torsions:
REMARK  status: ('A' for Active; 'I' for Inactive)
REMARK    1  A    between atoms: C_1  and  C_2
REMARK    2  A    between atoms: C_2  and  O_3
REMARK    3  A    between atoms: O_3  and  C_4
REMARK    4  A    between atoms: C_6  and  C_25
REMARK    5  A    between atoms: C_9  and  O_10
REMARK    6  A    between atoms: O_10  and  C_11
REMARK    7  A    between atoms: C_11  and  C_12
REMARK    8  A    between atoms: N_14  and  C_15
REMARK    9  A    between atoms: C_26  and  C_27
REMARK   10  A    between atoms: C_26  and  C_29
REMARK                            x       y       z     vdW  Elec       q    Type
REMARK                         _______ _______ _______ _____ _____    ______ ____
ROOT
ATOM      1  C   UNL     1      -2.236  -2.180  -0.035  0.00  0.00    +0.162 A 
ATOM      2  C   UNL     1      -1.068  -2.917  -0.043  0.00  0.00    +0.057 A 
ATOM      3  C   UNL     1      -1.127  -4.315  -0.023  0.00  0.00    -0.020 A 
ATOM      4  C   UNL     1      -2.369  -4.958   0.005  0.00  0.00    +0.012 A 
ATOM      5  C   UNL     1      -3.529  -4.216   0.013  0.00  0.00    +0.050 A 
ATOM      6  C   UNL     1      -3.470  -2.829  -0.002  0.00  0.00    +0.163 A 
ENDROOT
BRANCH   3   7
ATOM      7  C   UNL     1       0.113  -5.105  -0.032  0.00  0.00    +0.026 C 
ATOM      8  C   UNL     1       0.162  -6.291   0.610  0.00  0.00    +0.072 C 
BRANCH   8   9
ATOM      9  C   UNL     1       1.370  -7.180   0.460  0.00  0.00    +0.216 C 
ATOM     10  N   UNL     1       0.966  -8.498  -0.046  0.00  0.00    -0.359 N 
ATOM     11  C   UNL     1       1.306  -9.380   0.849  0.00  0.00    +0.060 A 
ATOM     12  C   UNL     1       1.167 -10.842   0.913  0.00  0.00    +0.027 A 
ATOM     13  C   UNL     1       1.624 -11.506   1.994  0.00  0.00    +0.002 A 
ATOM     14  C   UNL     1       2.237 -10.856   3.080  0.00  0.00    +0.002 A 
ATOM     15  C   UNL     1       2.414  -9.520   3.122  0.00  0.00    +0.027 A 
ATOM     16  C   UNL     1       1.955  -8.693   1.998  0.00  0.00    +0.060 A 
ATOM     17  N   UNL     1       1.991  -7.412   1.770  0.00  0.00    -0.359 N 
ATOM     18  H   UNL     1       0.526  -8.678  -0.891  0.00  0.00    +0.162 HD
ATOM     19  H   UNL     1       2.361  -6.734   2.357  0.00  0.00    +0.162 HD
ENDBRANCH   8   9
BRANCH   8  20
ATOM     20  C   UNL     1      -0.933  -6.705   1.434  0.00  0.00    +0.099 C 
ATOM     21  N   UNL     1      -1.803  -7.034   2.087  0.00  0.00    -0.191 NA
ENDBRANCH   8  20
ENDBRANCH   3   7
BRANCH   1  22
ATOM     22  O   UNL     1      -2.183  -0.821  -0.053  0.00  0.00    -0.489 OA
BRANCH  22  24
ATOM     23  C   UNL     1      -1.027   1.300  -0.104  0.00  0.00    +0.048 C 
ATOM     24  C   UNL     1      -0.886  -0.223  -0.087  0.00  0.00    +0.226 C 
ENDBRANCH  22  24
ENDBRANCH   1  22
BRANCH   6  25
ATOM     25  O   UNL     1      -4.617  -2.102   0.012  0.00  0.00    -0.479 OA
BRANCH  25  26
ATOM     26  C   UNL     1      -5.846  -2.830   0.046  0.00  0.00    +0.325 C 
BRANCH  26  27
ATOM     27  C   UNL     1      -7.003  -1.863   0.056  0.00  0.00    +0.255 C 
ATOM     28  O   UNL     1      -6.795  -0.668   0.036  0.00  0.00    -0.272 OA
ATOM     29  N   UNL     1      -8.268  -2.327   0.087  0.00  0.00    -0.283 N 
ATOM     30  H   UNL     1      -8.434  -3.278   0.181  0.00  0.00    +0.155 HD
BRANCH  29  31
ATOM     31  C   UNL     1      -9.343  -1.435  -0.016  0.00  0.00    +0.037 A 
ATOM     32  C   UNL     1     -10.520  -1.683   0.678  0.00  0.00    +0.027 A 
ATOM     33  C   UNL     1     -11.581  -0.804   0.576  0.00  0.00    +0.051 A 
ATOM     34  C   UNL     1     -11.474   0.329  -0.218  0.00  0.00    +0.162 A 
ATOM     35  C   UNL     1     -10.297   0.581  -0.912  0.00  0.00    +0.164 A 
ATOM     36  C   UNL     1      -9.231  -0.300  -0.806  0.00  0.00    +0.072 A 
ATOM     37  O   UNL     1     -10.170   1.691  -1.690  0.00  0.00    -0.485 OA
ATOM     38  C   UNL     1     -11.382   2.357  -2.063  0.00  0.00    +0.270 C 
ATOM     39  C   UNL     1     -12.259   2.494  -0.811  0.00  0.00    +0.270 C 
ATOM     40  O   UNL     1     -12.532   1.181  -0.309  0.00  0.00    -0.485 OA
ENDBRANCH  29  31
ENDBRANCH  26  27
ENDBRANCH  25  26
ENDBRANCH   6  25
TORSDOF 9
