REMARK  Name = ZINC17218192
REMARK  12 active torsions:
REMARK  status: ('A' for Active; 'I' for Inactive)
REMARK    1  A    between atoms: C_1  and  C_2
REMARK    2  A    between atoms: C_2  and  O_3
REMARK    3  A    between atoms: O_3  and  C_4
REMARK    4  A    between atoms: C_4  and  C_6
REMARK    5  A    between atoms: C_6  and  C_32
REMARK    6  A    between atoms: N_8  and  C_26
REMARK    7  A    between atoms: C_9  and  N_25
REMARK    8  A    between atoms: C_10  and  C_12
REMARK    9  A    between atoms: N_14  and  N_15
REMARK   10  A    between atoms: C_16  and  C_17
REMARK   11  A    between atoms: C_20  and  O_23
REMARK   12  A    between atoms: O_23  and  C_24
REMARK                            x       y       z     vdW  Elec       q    Type
REMARK                         _______ _______ _______ _____ _____    ______ ____
ROOT
ATOM      1  C   UNL     1       1.405   9.281   1.325  0.00  0.00    +0.164 C 
ATOM      2  C   UNL     1       1.796   8.118   0.640  0.00  0.00    +0.103 C 
ATOM      3  N   UNL     1       2.921   7.909  -0.114  0.00  0.00    -0.249 N 
ATOM      4  C   UNL     1       3.112   6.707  -0.696  0.00  0.00    +0.112 C 
ATOM      5  C   UNL     1       2.147   5.736  -0.498  0.00  0.00    +0.113 C 
ATOM      6  S   UNL     1       0.970   6.597   0.532  0.00  0.00    -0.064 S 
ENDROOT
BRANCH   3   7
ATOM      7  C   UNL     1       3.863   8.932  -0.278  0.00  0.00    +0.040 A 
ATOM      8  C   UNL     1       3.689   9.885  -1.274  0.00  0.00    +0.024 A 
ATOM      9  C   UNL     1       4.617  10.896  -1.430  0.00  0.00    +0.002 A 
ATOM     10  C   UNL     1       5.723  10.954  -0.603  0.00  0.00    +0.000 A 
ATOM     11  C   UNL     1       5.903  10.004   0.385  0.00  0.00    +0.002 A 
ATOM     12  C   UNL     1       4.976   8.993   0.550  0.00  0.00    +0.024 A 
ENDBRANCH   3   7
BRANCH   5  13
ATOM     13  C   UNL     1       2.102   4.412  -0.988  0.00  0.00    +0.273 C 
ATOM     14  O   UNL     1       3.004   3.991  -1.691  0.00  0.00    -0.268 OA
ATOM     15  N   UNL     1       1.061   3.613  -0.677  0.00  0.00    -0.202 N 
ATOM     16  H   UNL     1       0.343   3.948  -0.117  0.00  0.00    +0.178 HD
BRANCH  15  17
ATOM     17  N   UNL     1       1.016   2.300  -1.162  0.00  0.00    -0.187 NA
ATOM     18  C   UNL     1       0.014   1.531  -0.863  0.00  0.00    +0.138 C 
BRANCH  18  19
ATOM     19  C   UNL     1      -0.033   0.149  -1.374  0.00  0.00    -0.005 A 
ATOM     20  C   UNL     1       0.997  -0.334  -2.185  0.00  0.00    +0.013 A 
ATOM     21  C   UNL     1       0.951  -1.628  -2.656  0.00  0.00    +0.046 A 
ATOM     22  C   UNL     1      -0.122  -2.449  -2.335  0.00  0.00    +0.120 A 
ATOM     23  C   UNL     1      -1.151  -1.971  -1.533  0.00  0.00    +0.046 A 
ATOM     24  C   UNL     1      -1.111  -0.680  -1.053  0.00  0.00    +0.013 A 
BRANCH  22  25
ATOM     25  O   UNL     1      -0.166  -3.722  -2.806  0.00  0.00    -0.495 OA
ATOM     26  C   UNL     1       0.925  -4.149  -3.625  0.00  0.00    +0.277 C 
ENDBRANCH  22  25
ENDBRANCH  18  19
ENDBRANCH  15  17
ENDBRANCH   5  13
BRANCH   4  27
ATOM     27  N   UNL     1       4.230   6.455  -1.461  0.00  0.00    -0.345 N 
ATOM     28  H   UNL     1       4.392   5.563  -1.804  0.00  0.00    +0.144 HD
ATOM     29  H   UNL     1       4.855   7.171  -1.656  0.00  0.00    +0.144 HD
ENDBRANCH   4  27
BRANCH   1  30
ATOM     30  C   UNL     1       0.139   9.339   1.953  0.00  0.00    +0.352 C 
ATOM     31  O   UNL     1      -0.611   8.382   1.900  0.00  0.00    -0.244 OA
BRANCH  30  32
ATOM     32  O   UNL     1      -0.237  10.456   2.611  0.00  0.00    -0.461 OA
BRANCH  32  34
ATOM     33  C   UNL     1      -1.776  11.786   3.916  0.00  0.00    +0.048 C 
ATOM     34  C   UNL     1      -1.528  10.445   3.222  0.00  0.00    +0.229 C 
ENDBRANCH  32  34
ENDBRANCH  30  32
ENDBRANCH   1  30
BRANCH   1  35
ATOM     35  C   UNL     1       2.288  10.406   1.387  0.00  0.00    +0.109 C 
ATOM     36  N   UNL     1       2.988  11.299   1.437  0.00  0.00    -0.191 NA
ENDBRANCH   1  35
TORSDOF 10
