REMARK  Name = ZINC39943226
REMARK  7 active torsions:
REMARK  status: ('A' for Active; 'I' for Inactive)
REMARK    1  A    between atoms: C_4  and  N_7
REMARK    2  A    between atoms: C_9  and  C_19
REMARK    3  A    between atoms: C_10  and  C_12
REMARK    4  A    between atoms: C_19  and  O_21
REMARK    5  A    between atoms: O_21  and  C_22
REMARK    6  A    between atoms: C_22  and  C_23
REMARK    7  A    between atoms: C_23  and  C_25
REMARK                            x       y       z     vdW  Elec       q    Type
REMARK                         _______ _______ _______ _____ _____    ______ ____
ROOT
ATOM      1  N   UNL     1       3.624  -0.642  -0.012  0.00  0.00    -0.248 N 
ATOM      2  C   UNL     1       3.838  -2.071   0.273  0.00  0.00    +0.172 C 
ATOM      3  C   UNL     1       5.325  -2.278   0.081  0.00  0.00    +0.078 C 
ATOM      4  C   UNL     1       5.848  -1.070  -0.272  0.00  0.00    +0.063 C 
ATOM      5  N   UNL     1       4.877  -0.110  -0.337  0.00  0.00    -0.263 N 
ATOM      6  H   UNL     1       5.036   0.817  -0.574  0.00  0.00    +0.170 HD
ENDROOT
BRANCH   4   7
ATOM      7  C   UNL     1       7.278  -0.831  -0.554  0.00  0.00    -0.002 A 
ATOM      8  C   UNL     1       7.953  -1.630  -1.479  0.00  0.00    +0.011 A 
ATOM      9  C   UNL     1       9.288  -1.402  -1.737  0.00  0.00    +0.020 A 
ATOM     10  C   UNL     1       9.959  -0.383  -1.083  0.00  0.00    +0.041 A 
ATOM     11  C   UNL     1       9.295   0.414  -0.164  0.00  0.00    +0.020 A 
ATOM     12  C   UNL     1       7.958   0.199   0.099  0.00  0.00    +0.011 A 
ATOM     13 CL   UNL     1      11.640  -0.102  -1.413  0.00  0.00    -0.084 Cl
ENDBRANCH   4   7
BRANCH   1  17
ATOM     14  C   UNL     1       0.001   1.406   0.107  0.00  0.00    +0.000 A 
ATOM     15  C   UNL     1       1.161   2.076  -0.234  0.00  0.00    +0.002 A 
ATOM     16  C   UNL     1       2.365   1.400  -0.274  0.00  0.00    +0.025 A 
ATOM     17  C   UNL     1       2.409   0.045   0.028  0.00  0.00    +0.048 A 
ATOM     18  C   UNL     1       1.241  -0.626   0.369  0.00  0.00    +0.025 A 
ATOM     19  C   UNL     1       0.041   0.057   0.408  0.00  0.00    +0.002 A 
ENDBRANCH   1  17
BRANCH   3  20
ATOM     20  C   UNL     1       6.031  -3.484   0.238  0.00  0.00    +0.339 C 
ATOM     21  O   UNL     1       7.246  -3.492   0.163  0.00  0.00    -0.245 OA
BRANCH  20  22
ATOM     22  O   UNL     1       5.360  -4.633   0.471  0.00  0.00    -0.453 OA
BRANCH  22  23
ATOM     23  C   UNL     1       6.141  -5.821   0.620  0.00  0.00    +0.311 C 
BRANCH  23  24
ATOM     24  C   UNL     1       5.229  -6.993   0.872  0.00  0.00    +0.199 C 
ATOM     25  O   UNL     1       4.027  -6.828   0.920  0.00  0.00    -0.289 OA
BRANCH  24  26
ATOM     26  C   UNL     1       5.771  -8.283   1.053  0.00  0.00    +0.026 C 
ATOM     27  C   UNL     1       5.078  -9.457   1.286  0.00  0.00    +0.006 A 
ATOM     28  C   UNL     1       3.700  -9.752   1.414  0.00  0.00    +0.010 A 
ATOM     29  C   UNL     1       3.293 -11.020   1.647  0.00  0.00    +0.001 A 
ATOM     30  C   UNL     1       4.194 -12.090   1.770  0.00  0.00    +0.002 A 
ATOM     31  C   UNL     1       5.529 -11.916   1.664  0.00  0.00    +0.026 A 
ATOM     32  C   UNL     1       6.057 -10.565   1.411  0.00  0.00    +0.043 A 
ATOM     33  N   UNL     1       7.272 -10.119   1.267  0.00  0.00    -0.380 N 
ATOM     34  C   UNL     1       7.233  -8.673   1.026  0.00  0.00    +0.152 C 
ATOM     35  H   UNL     1       8.076 -10.659   1.309  0.00  0.00    +0.160 HD
ENDBRANCH  24  26
ENDBRANCH  23  24
ENDBRANCH  22  23
ENDBRANCH  20  22
ENDBRANCH   3  20
TORSDOF 7
