REMARK  Name = ZINC33583268
REMARK  7 active torsions:
REMARK  status: ('A' for Active; 'I' for Inactive)
REMARK    1  A    between atoms: C_5  and  C_7
REMARK    2  A    between atoms: C_10  and  C_12
REMARK    3  A    between atoms: C_12  and  C_14
REMARK    4  A    between atoms: C_12  and  N_27
REMARK    5  A    between atoms: C_14  and  C_16
REMARK    6  A    between atoms: C_14  and  C_18
REMARK    7  A    between atoms: C_28  and  N_29
REMARK                            x       y       z     vdW  Elec       q    Type
REMARK                         _______ _______ _______ _____ _____    ______ ____
ROOT
ATOM      1  C   UNL     1       0.271  -5.455   1.219  0.00  0.00    +0.196 C 
ENDROOT
BRANCH   1   2
ATOM      2  N   UNL     1       0.230  -5.201   2.661  0.00  0.00    -0.258 N 
ATOM      3  C   UNL     1       0.886  -5.954   3.598  0.00  0.00    +0.117 A 
ATOM      4  C   UNL     1       0.562  -5.329   4.939  0.00  0.00    +0.114 A 
ATOM      5  C   UNL     1      -0.346  -4.168   4.596  0.00  0.00    +0.266 A 
ATOM      6  O   UNL     1      -0.852  -3.389   5.377  0.00  0.00    -0.266 OA
ATOM      7  N   UNL     1      -0.486  -4.167   3.258  0.00  0.00    -0.261 N 
ATOM      8  H   UNL     1      -1.072  -3.473   2.636  0.00  0.00    +0.190 HD
BRANCH   3   9
ATOM      9  N   UNL     1       1.631  -6.989   3.382  0.00  0.00    -0.343 N 
ATOM     10  H   UNL     1       1.789  -7.348   2.354  0.00  0.00    +0.144 HD
ATOM     11  H   UNL     1       2.106  -7.511   4.226  0.00  0.00    +0.144 HD
ENDBRANCH   3   9
ENDBRANCH   1   2
BRANCH   1  15
ATOM     12  C   UNL     1       1.249  -2.160  -0.022  0.00  0.00    +0.138 A 
ATOM     13  C   UNL     1       1.959  -2.940  -0.880  0.00  0.00    +0.050 A 
ATOM     14  C   UNL     1       1.694  -4.279  -0.526  0.00  0.00    +0.047 A 
ATOM     15  C   UNL     1       0.837  -4.250   0.513  0.00  0.00    +0.132 A 
ATOM     16  O   UNL     1       0.570  -2.968   0.815  0.00  0.00    -0.457 OA
BRANCH  12  21
ATOM     17  C   UNL     1      -0.017   1.375   0.010  0.00  0.00    +0.001 A 
ATOM     18  C   UNL     1       1.170   2.087   0.002  0.00  0.00    +0.003 A 
ATOM     19  C   UNL     1       2.383   1.423  -0.013  0.00  0.00    +0.039 A 
ATOM     20  C   UNL     1       2.417   0.042  -0.021  0.00  0.00    +0.134 A 
ATOM     21  C   UNL     1       1.222  -0.683  -0.013  0.00  0.00    +0.052 A 
ATOM     22  C   UNL     1       0.002  -0.004   0.002  0.00  0.00    +0.014 A 
ATOM     23  F   UNL     1       3.602  -0.607  -0.035  0.00  0.00    -0.205 F 
ENDBRANCH  12  21
ENDBRANCH   1  15
BRANCH   1  24
ATOM     24  C   UNL     1      -1.145  -5.727   0.708  0.00  0.00    +0.179 C 
BRANCH  24  25
ATOM     25  C   UNL     1      -1.711  -6.932   1.415  0.00  0.00    +0.099 A 
ATOM     26  N   UNL     1      -2.777  -7.006   2.160  0.00  0.00    -0.243 NA
ATOM     27  C   UNL     1      -3.178  -8.156   2.740  0.00  0.00    +0.079 A 
ATOM     28  C   UNL     1      -4.299  -8.393   3.566  0.00  0.00    +0.029 A 
ATOM     29  C   UNL     1      -4.545  -9.636   4.064  0.00  0.00    +0.002 A 
ATOM     30  C   UNL     1      -3.712 -10.710   3.783  0.00  0.00    +0.001 A 
ATOM     31  C   UNL     1      -2.605 -10.519   2.978  0.00  0.00    +0.017 A 
ATOM     32  C   UNL     1      -2.349  -9.268   2.471  0.00  0.00    +0.039 A 
ATOM     33  S   UNL     1      -1.103  -8.559   1.424  0.00  0.00    -0.071 S 
ENDBRANCH  24  25
BRANCH  24  34
ATOM     34  C   UNL     1      -1.104  -5.982  -0.741  0.00  0.00    +0.075 C 
ATOM     35  N   UNL     1      -1.072  -6.178  -1.859  0.00  0.00    -0.196 NA
ENDBRANCH  24  34
ENDBRANCH   1  24
TORSDOF 7
