REMARK  Name = ZINC13149631
REMARK  14 active torsions:
REMARK  status: ('A' for Active; 'I' for Inactive)
REMARK    1  A    between atoms: C_1  and  C_2
REMARK    2  A    between atoms: C_5  and  C_34
REMARK    3  A    between atoms: C_6  and  O_8
REMARK    4  A    between atoms: O_8  and  C_9
REMARK    5  A    between atoms: C_9  and  C_10
REMARK    6  A    between atoms: C_13  and  S_16
REMARK    7  A    between atoms: N_14  and  N_15
REMARK    8  A    between atoms: S_16  and  C_17
REMARK    9  A    between atoms: C_17  and  C_18
REMARK   10  A    between atoms: N_20  and  C_21
REMARK   11  A    between atoms: C_21  and  C_23
REMARK   12  A    between atoms: C_21  and  C_24
REMARK   13  A    between atoms: C_34  and  C_35
REMARK   14  A    between atoms: C_34  and  C_36
REMARK                            x       y       z     vdW  Elec       q    Type
REMARK                         _______ _______ _______ _____ _____    ______ ____
ROOT
ATOM      1  C   UNL     1      -9.250   1.419  -5.282  0.00  0.00    +0.189 A 
ATOM      2  N   UNL     1      -8.610   0.540  -4.565  0.00  0.00    -0.128 NA
ATOM      3  N   UNL     1      -7.366   0.855  -4.487  0.00  0.00    -0.121 NA
ATOM      4  C   UNL     1      -7.146   1.967  -5.149  0.00  0.00    +0.209 A 
ATOM      5  N   UNL     1      -8.341   2.360  -5.680  0.00  0.00    -0.225 N 
ENDROOT
BRANCH   5   6
ATOM      6  N   UNL     1      -8.579   3.463  -6.449  0.00  0.00    -0.295 N 
ATOM      7  H   UNL     1      -8.462   3.253  -7.429  0.00  0.00    +0.163 HD
ATOM      8  H   UNL     1      -9.498   3.840  -6.268  0.00  0.00    +0.163 HD
ENDBRANCH   5   6
BRANCH   1   9
ATOM      9  C   UNL     1     -10.721   1.402  -5.612  0.00  0.00    +0.306 C 
BRANCH   9  10
ATOM     10  O   UNL     1     -10.928   0.679  -6.827  0.00  0.00    -0.484 OA
BRANCH  10  16
ATOM     11  C   UNL     1     -15.670   1.659  -6.216  0.00  0.00    +0.044 C 
ATOM     12  C   UNL     1     -14.545   1.033  -6.998  0.00  0.00    -0.047 A 
ATOM     13  C   UNL     1     -14.815   0.345  -8.168  0.00  0.00    +0.004 A 
ATOM     14  C   UNL     1     -13.785  -0.231  -8.887  0.00  0.00    +0.008 A 
ATOM     15  C   UNL     1     -12.482  -0.115  -8.444  0.00  0.00    -0.003 A 
ATOM     16  C   UNL     1     -12.209   0.569  -7.268  0.00  0.00    +0.125 A 
ATOM     17  C   UNL     1     -13.244   1.146  -6.547  0.00  0.00    +0.049 A 
BRANCH  15  18
ATOM     18  C   UNL     1     -11.359  -0.738  -9.232  0.00  0.00    +0.016 C 
ATOM     19  C   UNL     1     -11.586  -2.247  -9.339  0.00  0.00    +0.012 C 
ATOM     20  C   UNL     1     -11.321  -0.127 -10.635  0.00  0.00    +0.012 C 
ENDBRANCH  15  18
ENDBRANCH  10  16
ENDBRANCH   9  10
ENDBRANCH   1   9
BRANCH   4  21
ATOM     21  S   UNL     1      -5.599   2.792  -5.326  0.00  0.00    -0.075 S 
BRANCH  21  22
ATOM     22  C   UNL     1      -4.540   1.685  -4.363  0.00  0.00    +0.173 C 
BRANCH  22  23
ATOM     23  C   UNL     1      -3.126   2.206  -4.374  0.00  0.00    +0.224 C 
ATOM     24  O   UNL     1      -2.861   3.227  -4.973  0.00  0.00    -0.275 OA
ATOM     25  N   UNL     1      -2.157   1.539  -3.717  0.00  0.00    -0.312 N 
ATOM     26  H   UNL     1      -2.369   0.723  -3.237  0.00  0.00    +0.149 HD
BRANCH  25  27
ATOM     27  C   UNL     1      -0.782   2.046  -3.727  0.00  0.00    +0.076 C 
ATOM     28  C   UNL     1      -0.066   1.553  -4.986  0.00  0.00    +0.028 C 
BRANCH  27  29
ATOM     29  C   UNL     1      -0.043   1.539  -2.488  0.00  0.00    -0.010 C 
ATOM     30  C   UNL     1      -0.759   2.033  -1.229  0.00  0.00    +0.012 C 
ATOM     31  C   UNL     1      -0.019   1.526   0.010  0.00  0.00    -0.010 C 
ATOM     32  C   UNL     1       1.417   2.055  -0.000  0.00  0.00    +0.007 C 
ATOM     33  C   UNL     1       2.133   1.562  -1.259  0.00  0.00    -0.010 C 
ATOM     34  C   UNL     1       1.393   2.069  -2.499  0.00  0.00    +0.012 C 
ATOM     35  C   UNL     1       2.154   0.032  -1.268  0.00  0.00    +0.007 C 
ATOM     36  C   UNL     1       0.718  -0.497  -1.257  0.00  0.00    -0.010 C 
ATOM     37  C   UNL     1       0.002  -0.004   0.002  0.00  0.00    +0.007 C 
ATOM     38  C   UNL     1      -0.022   0.009  -2.496  0.00  0.00    +0.012 C 
ENDBRANCH  27  29
ENDBRANCH  25  27
ENDBRANCH  22  23
ENDBRANCH  21  22
ENDBRANCH   4  21
TORSDOF 10
