REMARK  Name = ZINC01946248
REMARK  8 active torsions:
REMARK  status: ('A' for Active; 'I' for Inactive)
REMARK    1  A    between atoms: C_1  and  O_2
REMARK    2  A    between atoms: O_2  and  C_3
REMARK    3  A    between atoms: C_8  and  N_9
REMARK    4  A    between atoms: N_9  and  N_10
REMARK    5  A    between atoms: C_11  and  S_12
REMARK    6  A    between atoms: C_11  and  S_21
REMARK    7  A    between atoms: S_12  and  C_15
REMARK    8  A    between atoms: S_21  and  C_24
REMARK                            x       y       z     vdW  Elec       q    Type
REMARK                         _______ _______ _______ _____ _____    ______ ____
ROOT
ATOM      1  N   UNL     1      -1.034   6.351  -2.327  0.00  0.00    -0.144 NA
ATOM      2  C   UNL     1      -0.064   6.083  -1.537  0.00  0.00    +0.316 C 
ENDROOT
BRANCH   2   3
ATOM      3  S   UNL     1      -0.385   5.377   0.045  0.00  0.00    +0.061 S 
ATOM      4  O   UNL     1      -1.753   5.631   0.333  0.00  0.00    -0.161 OA
ATOM      5  O   UNL     1       0.665   5.804   0.901  0.00  0.00    -0.161 OA
BRANCH   3   6
ATOM      6  C   UNL     1      -0.221   3.630  -0.121  0.00  0.00    +0.097 A 
ATOM      7  C   UNL     1       1.006   3.029   0.087  0.00  0.00    +0.027 A 
ATOM      8  C   UNL     1       1.134   1.658  -0.043  0.00  0.00    +0.002 A 
ATOM      9  C   UNL     1       0.036   0.890  -0.381  0.00  0.00    +0.000 A 
ATOM     10  C   UNL     1      -1.190   1.493  -0.595  0.00  0.00    +0.002 A 
ATOM     11  C   UNL     1      -1.319   2.862  -0.460  0.00  0.00    +0.027 A 
ENDBRANCH   3   6
ENDBRANCH   2   3
BRANCH   2  12
ATOM     12  S   UNL     1       1.594   6.421  -2.031  0.00  0.00    +0.061 S 
ATOM     13  O   UNL     1       1.548   7.594  -2.830  0.00  0.00    -0.161 OA
ATOM     14  O   UNL     1       2.393   6.327  -0.860  0.00  0.00    -0.161 OA
BRANCH  12  15
ATOM     15  C   UNL     1       2.099   5.107  -3.091  0.00  0.00    +0.097 A 
ATOM     16  C   UNL     1       2.708   3.986  -2.561  0.00  0.00    +0.027 A 
ATOM     17  C   UNL     1       3.100   2.954  -3.393  0.00  0.00    +0.002 A 
ATOM     18  C   UNL     1       2.892   3.047  -4.756  0.00  0.00    +0.000 A 
ATOM     19  C   UNL     1       2.287   4.171  -5.287  0.00  0.00    +0.002 A 
ATOM     20  C   UNL     1       1.891   5.202  -4.455  0.00  0.00    +0.027 A 
ENDBRANCH  12  15
ENDBRANCH   2  12
BRANCH   1  21
ATOM     21  N   UNL     1      -0.774   6.780  -3.636  0.00  0.00    -0.231 N 
ATOM     22  H   UNL     1       0.137   6.802  -3.967  0.00  0.00    +0.175 HD
BRANCH  21  28
ATOM     23  C   UNL     1      -1.572   7.602  -5.766  0.00  0.00    +0.143 A 
ATOM     24  C   UNL     1      -2.621   7.993  -6.582  0.00  0.00    +0.047 A 
ATOM     25  C   UNL     1      -3.919   7.960  -6.105  0.00  0.00    +0.004 A 
ATOM     26  C   UNL     1      -4.174   7.537  -4.814  0.00  0.00    +0.002 A 
ATOM     27  C   UNL     1      -3.134   7.140  -3.994  0.00  0.00    +0.028 A 
ATOM     28  C   UNL     1      -1.829   7.176  -4.464  0.00  0.00    +0.090 A 
BRANCH  23  30
ATOM     29  C   UNL     1      -0.109   8.082  -7.578  0.00  0.00    +0.277 C 
ATOM     30  O   UNL     1      -0.296   7.634  -6.234  0.00  0.00    -0.493 OA
ENDBRANCH  23  30
ENDBRANCH  21  28
ENDBRANCH   1  21
TORSDOF 7
