REMARK  Name = ZINC20567651
REMARK  5 active torsions:
REMARK  status: ('A' for Active; 'I' for Inactive)
REMARK    1  A    between atoms: C_1  and  C_2
REMARK    2  A    between atoms: C_2  and  N_3
REMARK    3  A    between atoms: C_16  and  C_18
REMARK    4  A    between atoms: N_22  and  C_25
REMARK    5  A    between atoms: C_29  and  C_31
REMARK                            x       y       z     vdW  Elec       q    Type
REMARK                         _______ _______ _______ _____ _____    ______ ____
ROOT
ATOM      1  C   UNL     1      -0.276  -1.958   1.585  0.00  0.00    +0.074 A 
ATOM      2  C   UNL     1       0.231  -3.224   1.582  0.00  0.00    +0.260 A 
ATOM      3  N   UNL     1       0.148  -3.987   2.720  0.00  0.00    -0.274 N 
ATOM      4  C   UNL     1      -0.428  -3.493   3.831  0.00  0.00    +0.337 A 
ATOM      5  N   UNL     1      -0.934  -2.246   3.853  0.00  0.00    -0.229 N 
ATOM      6  C   UNL     1      -0.868  -1.462   2.759  0.00  0.00    +0.267 A 
ATOM      7  O   UNL     1      -1.323  -0.331   2.786  0.00  0.00    -0.267 OA
ATOM      8  O   UNL     1      -0.493  -4.183   4.830  0.00  0.00    -0.246 OA
ATOM      9  O   UNL     1       0.808  -3.724   0.469  0.00  0.00    -0.267 OA
ATOM     10  H   UNL     1       0.507  -4.888   2.723  0.00  0.00    +0.173 HD
ENDROOT
BRANCH   1  24
ATOM     11  N   UNL     1       0.473   0.168   0.668  0.00  0.00    +0.388 N 
ATOM     12  C   UNL     1       0.401   1.084  -0.478  0.00  0.00    -0.073 C 
ATOM     13  C   UNL     1      -1.033   1.610  -0.624  0.00  0.00    +0.019 C 
ATOM     14  C   UNL     1      -1.965   0.425  -0.585  0.00  0.00    -0.022 A 
ATOM     15  C   UNL     1      -3.355   0.335  -0.973  0.00  0.00    +0.003 A 
ATOM     16  C   UNL     1      -4.262   1.266  -1.488  0.00  0.00    +0.010 A 
ATOM     17  C   UNL     1      -5.533   0.818  -1.747  0.00  0.00    +0.001 A 
ATOM     18  C   UNL     1      -5.913  -0.494  -1.512  0.00  0.00    +0.002 A 
ATOM     19  C   UNL     1      -5.037  -1.437  -1.003  0.00  0.00    +0.026 A 
ATOM     20  C   UNL     1      -3.739  -1.010  -0.731  0.00  0.00    +0.047 A 
ATOM     21  N   UNL     1      -2.647  -1.664  -0.236  0.00  0.00    -0.359 N 
ATOM     22  H   UNL     1      -2.624  -2.600   0.017  0.00  0.00    +0.166 HD
ATOM     23  C   UNL     1      -1.590  -0.799  -0.150  0.00  0.00    +0.011 A 
ATOM     24  C   UNL     1      -0.196  -1.101   0.347  0.00  0.00    +0.021 C 
ATOM     25  H   UNL     1       0.020   0.594   1.463  0.00  0.00    -0.080 HD
BRANCH  11  27
ATOM     26  C   UNL     1       2.550   1.206   1.449  0.00  0.00    -0.017 C 
ATOM     27  C   UNL     1       1.882  -0.093   0.995  0.00  0.00    -0.081 C 
ENDBRANCH  11  27
ENDBRANCH   1  24
BRANCH   5  28
ATOM     28  C   UNL     1      -1.529  -1.758   5.024  0.00  0.00    +0.055 A 
ATOM     29  C   UNL     1      -2.888  -1.940   5.242  0.00  0.00    +0.026 A 
ATOM     30  C   UNL     1      -3.472  -1.458   6.397  0.00  0.00    +0.003 A 
ATOM     31  C   UNL     1      -2.704  -0.793   7.336  0.00  0.00    +0.012 A 
ATOM     32  C   UNL     1      -1.351  -0.609   7.121  0.00  0.00    +0.057 A 
ATOM     33  C   UNL     1      -0.760  -1.095   5.971  0.00  0.00    +0.038 A 
BRANCH  32  34
ATOM     34  C   UNL     1      -0.518   0.117   8.146  0.00  0.00    +0.417 C 
ATOM     35  F   UNL     1      -1.330   0.505   9.217  0.00  0.00    -0.166 F 
ATOM     36  F   UNL     1       0.493  -0.732   8.611  0.00  0.00    -0.166 F 
ATOM     37  F   UNL     1       0.057   1.250   7.562  0.00  0.00    -0.166 F 
ENDBRANCH  32  34
ENDBRANCH   5  28
TORSDOF 4
