REMARK  Name = ZINC12974584
REMARK  10 active torsions:
REMARK  status: ('A' for Active; 'I' for Inactive)
REMARK    1  A    between atoms: C_1  and  O_2
REMARK    2  A    between atoms: O_2  and  C_3
REMARK    3  A    between atoms: C_3  and  C_5
REMARK    4  A    between atoms: C_9  and  N_10
REMARK    5  A    between atoms: C_11  and  C_13
REMARK    6  A    between atoms: C_13  and  N_58
REMARK    7  A    between atoms: C_18  and  C_20
REMARK    8  A    between atoms: C_20  and  N_21
REMARK    9  A    between atoms: N_21  and  S_22
REMARK   10  A    between atoms: S_22  and  C_25
REMARK                            x       y       z     vdW  Elec       q    Type
REMARK                         _______ _______ _______ _____ _____    ______ ____
ROOT
ATOM      1  N   UNL     1       0.098   0.316   4.726  0.00  0.00    -0.281 N 
ATOM      2  C   UNL     1      -0.422   0.897   3.626  0.00  0.00    +0.201 C 
ATOM      3  O   UNL     1      -1.466   1.510   3.701  0.00  0.00    -0.278 OA
ATOM      4  H   UNL     1       0.933  -0.174   4.666  0.00  0.00    +0.155 HD
ENDROOT
BRANCH   1   9
ATOM      5  C   UNL     1      -0.188  -0.109   7.171  0.00  0.00    +0.091 A 
ATOM      6  C   UNL     1      -1.061   0.151   8.304  0.00  0.00    -0.021 A 
ATOM      7  C   UNL     1      -2.161   0.883   8.026  0.00  0.00    -0.004 A 
ATOM      8  S   UNL     1      -2.047   1.234   6.295  0.00  0.00    -0.077 S 
ATOM      9  C   UNL     1      -0.559   0.420   5.941  0.00  0.00    +0.086 A 
ATOM     10  C   UNL     1      -3.235   1.299   8.984  0.00  0.00    +0.043 C 
ATOM     11  C   UNL     1      -3.099   0.454  10.259  0.00  0.00    +0.005 C 
ATOM     12  C   UNL     1      -1.632   0.460  10.700  0.00  0.00    +0.005 C 
ATOM     13  C   UNL     1      -0.790  -0.354   9.716  0.00  0.00    +0.037 C 
BRANCH   5  14
ATOM     14  C   UNL     1       1.038  -0.895   7.321  0.00  0.00    +0.342 C 
ATOM     15  O   UNL     1       2.085  -0.342   7.599  0.00  0.00    -0.245 OA
BRANCH  14  17
ATOM     16  C   UNL     1       2.259  -2.948   7.314  0.00  0.00    +0.280 C 
ATOM     17  O   UNL     1       1.006  -2.233   7.150  0.00  0.00    -0.464 OA
ENDBRANCH  14  17
ENDBRANCH   5  14
ENDBRANCH   1   9
BRANCH   2  18
ATOM     18  C   UNL     1       0.292   0.784   2.304  0.00  0.00    +0.019 C 
BRANCH  18  24
ATOM     19  C   UNL     1      -0.727   2.842   1.538  0.00  0.00    -0.078 C 
ATOM     20  C   UNL     1      -1.446   3.499   0.358  0.00  0.00    -0.019 C 
ATOM     21  C   UNL     1      -2.790   2.801   0.134  0.00  0.00    -0.003 C 
ATOM     22  C   UNL     1      -2.547   1.309  -0.112  0.00  0.00    -0.014 C 
ATOM     23  C   UNL     1      -1.796   0.716   1.082  0.00  0.00    -0.052 C 
ATOM     24  N   UNL     1      -0.501   1.414   1.229  0.00  0.00    +0.388 N 
ATOM     25  H   UNL     1       0.018   1.343   0.346  0.00  0.00    -0.081 HD
BRANCH  23  26
ATOM     26  C   UNL     1      -1.534  -0.770   0.832  0.00  0.00    +0.090 C 
BRANCH  26  27
ATOM     27  N   UNL     1      -0.635  -0.921  -0.315  0.00  0.00    -0.196 NA
ATOM     28  H   UNL     1      -0.492  -0.176  -0.920  0.00  0.00    +0.148 HD
BRANCH  27  29
ATOM     29  S   UNL     1       0.135  -2.363  -0.580  0.00  0.00    +0.026 S 
ATOM     30  O   UNL     1       0.926  -2.144  -1.740  0.00  0.00    -0.158 OA
ATOM     31  O   UNL     1       0.745  -2.681   0.663  0.00  0.00    -0.158 OA
ATOM     32  C   UNL     1      -1.194  -3.542  -0.944  0.00  0.00    +0.214 C 
ENDBRANCH  27  29
ENDBRANCH  26  27
ENDBRANCH  23  26
ENDBRANCH  18  24
ENDBRANCH   2  18
TORSDOF 8
