REMARK  Name = ZINC66668063
REMARK  11 active torsions:
REMARK  status: ('A' for Active; 'I' for Inactive)
REMARK    1  A    between atoms: C_1  and  C_2
REMARK    2  A    between atoms: C_5  and  C_9
REMARK    3  A    between atoms: C_6  and  C_8
REMARK    4  A    between atoms: C_9  and  C_10
REMARK    5  A    between atoms: C_10  and  C_12
REMARK    6  A    between atoms: C_10  and  N_13
REMARK    7  A    between atoms: N_16  and  C_17
REMARK    8  A    between atoms: C_20  and  N_25
REMARK    9  A    between atoms: C_21  and  O_23
REMARK   10  A    between atoms: O_23  and  C_24
REMARK   11  A    between atoms: C_26  and  C_28
REMARK                            x       y       z     vdW  Elec       q    Type
REMARK                         _______ _______ _______ _____ _____    ______ ____
ROOT
ATOM      1  N   UNL     1      -1.825  -4.241   1.927  0.00  0.00    -0.296 N 
ATOM      2  C   UNL     1      -3.087  -3.910   2.266  0.00  0.00    +0.304 C 
ATOM      3  O   UNL     1      -4.014  -4.236   1.550  0.00  0.00    -0.253 OA
ATOM      4  N   UNL     1      -3.321  -3.219   3.399  0.00  0.00    -0.269 N 
ATOM      5  H   UNL     1      -1.085  -3.981   2.499  0.00  0.00    +0.151 HD
ATOM      6  H   UNL     1      -2.578  -2.902   3.937  0.00  0.00    +0.156 HD
ENDROOT
BRANCH   4   7
ATOM      7  C   UNL     1      -4.637  -2.958   3.801  0.00  0.00    +0.038 A 
ATOM      8  C   UNL     1      -5.642  -3.877   3.527  0.00  0.00    +0.025 A 
ATOM      9  C   UNL     1      -6.941  -3.622   3.922  0.00  0.00    +0.029 A 
ATOM     10  C   UNL     1      -7.244  -2.447   4.594  0.00  0.00    +0.076 A 
ATOM     11  C   UNL     1      -6.239  -1.524   4.870  0.00  0.00    +0.143 A 
ATOM     12  C   UNL     1      -4.936  -1.783   4.478  0.00  0.00    +0.070 A 
BRANCH  10  13
ATOM     13  N   UNL     1      -8.564  -2.188   4.994  0.00  0.00    -0.283 N 
ATOM     14  C   UNL     1      -9.400  -3.211   5.262  0.00  0.00    +0.214 C 
ATOM     15  O   UNL     1      -8.986  -4.351   5.252  0.00  0.00    -0.276 OA
ATOM     16  C   UNL     1     -10.848  -2.938   5.574  0.00  0.00    +0.109 C 
ATOM     17  H   UNL     1      -8.875  -1.273   5.078  0.00  0.00    +0.155 HD
ENDBRANCH  10  13
BRANCH  11  18
ATOM     18  O   UNL     1      -6.534  -0.372   5.529  0.00  0.00    -0.493 OA
ATOM     19  C   UNL     1      -5.453   0.529   5.779  0.00  0.00    +0.277 C 
ENDBRANCH  11  18
ENDBRANCH   4   7
BRANCH   1  20
ATOM     20  C   UNL     1      -1.570  -4.992   0.696  0.00  0.00    +0.076 C 
ATOM     21  C   UNL     1      -1.661  -6.492   0.985  0.00  0.00    +0.028 C 
BRANCH  20  22
ATOM     22  C   UNL     1      -0.171  -4.658   0.174  0.00  0.00    +0.057 C 
BRANCH  22  27
ATOM     23  C   UNL     1      -0.012   0.866  -1.517  0.00  0.00    +0.044 C 
ATOM     24  C   UNL     1      -0.053  -0.575  -1.076  0.00  0.00    -0.050 A 
ATOM     25  C   UNL     1       0.399  -0.926   0.183  0.00  0.00    +0.003 A 
ATOM     26  C   UNL     1       0.361  -2.247   0.587  0.00  0.00    +0.004 A 
ATOM     27  C   UNL     1      -0.130  -3.217  -0.266  0.00  0.00    -0.043 A 
ATOM     28  C   UNL     1      -0.583  -2.866  -1.524  0.00  0.00    -0.047 A 
ATOM     29  C   UNL     1      -0.549  -1.544  -1.927  0.00  0.00    +0.007 A 
ATOM     30  C   UNL     1      -1.118  -3.924  -2.454  0.00  0.00    +0.044 C 
ENDBRANCH  22  27
ENDBRANCH  20  22
ENDBRANCH   1  20
TORSDOF 6
