REMARK  Name = ZINC14460962
REMARK  4 active torsions:
REMARK  status: ('A' for Active; 'I' for Inactive)
REMARK    1  A    between atoms: C_1  and  C_2
REMARK    2  A    between atoms: C_7  and  C_8
REMARK    3  A    between atoms: C_10  and  C_19
REMARK    4  A    between atoms: C_24  and  O_25
REMARK                            x       y       z     vdW  Elec       q    Type
REMARK                         _______ _______ _______ _____ _____    ______ ____
ROOT
ATOM      1  C   UNL     1      -1.964   1.770   0.041  0.00  0.00    +0.044 C 
ATOM      2  C   UNL     1      -2.217   2.128   1.483  0.00  0.00    -0.046 A 
ATOM      3  C   UNL     1      -3.504   2.385   1.919  0.00  0.00    +0.004 A 
ATOM      4  C   UNL     1      -3.734   2.705   3.240  0.00  0.00    +0.006 A 
ATOM      5  C   UNL     1      -2.682   2.787   4.143  0.00  0.00    -0.019 A 
ATOM      6  C   UNL     1      -1.393   2.539   3.705  0.00  0.00    +0.035 A 
ATOM      7  C   UNL     1      -1.165   2.208   2.370  0.00  0.00    -0.026 A 
ATOM      8  C   UNL     1       0.239   1.935   1.895  0.00  0.00    +0.046 C 
ATOM      9  N   UNL     1      -0.292   2.612   4.558  0.00  0.00    -0.336 N 
ATOM     10  C   UNL     1      -0.655   2.365   5.954  0.00  0.00    +0.108 C 
ATOM     11  C   UNL     1      -1.717   3.377   6.391  0.00  0.00    +0.029 C 
ATOM     12  C   UNL     1      -3.001   3.140   5.566  0.00  0.00    +0.049 C 
ATOM     13  C   UNL     1      -3.679   1.984   6.264  0.00  0.00    -0.023 C 
ATOM     14  C   UNL     1      -3.249   1.877   7.496  0.00  0.00    -0.030 C 
ATOM     15  C   UNL     1      -2.225   2.954   7.798  0.00  0.00    +0.033 C 
ATOM     16  H   UNL     1       0.440   1.986   4.259  0.00  0.00    +0.147 HD
ENDROOT
BRANCH  10  17
ATOM     17  C   UNL     1      -1.204   0.969   6.090  0.00  0.00    +0.015 A 
ATOM     18  C   UNL     1      -1.919   0.402   5.052  0.00  0.00    +0.024 A 
ATOM     19  C   UNL     1      -2.419  -0.881   5.175  0.00  0.00    +0.018 A 
ATOM     20  C   UNL     1      -2.214  -1.597   6.342  0.00  0.00    +0.019 A 
ATOM     21  C   UNL     1      -1.505  -1.032   7.384  0.00  0.00    +0.047 A 
ATOM     22  C   UNL     1      -0.998   0.253   7.261  0.00  0.00    +0.122 A 
ATOM     23 BR   UNL     1      -3.390  -1.657   3.750  0.00  0.00    -0.050 Br
BRANCH  22  24
ATOM     24  O   UNL     1      -0.300   0.811   8.285  0.00  0.00    -0.506 OA
ATOM     25  H   UNL     1      -0.856   1.207   8.970  0.00  0.00    +0.292 HD
ENDBRANCH  22  24
ENDBRANCH  10  17
TORSDOF 2
