REMARK  Name = ZINC39595373
REMARK  7 active torsions:
REMARK  status: ('A' for Active; 'I' for Inactive)
REMARK    1  A    between atoms: C_1  and  C_2
REMARK    2  A    between atoms: C_2  and  C_4
REMARK    3  A    between atoms: C_2  and  O_29
REMARK    4  A    between atoms: C_4  and  N_5
REMARK    5  A    between atoms: C_6  and  C_8
REMARK    6  A    between atoms: C_19  and  C_21
REMARK    7  A    between atoms: O_29  and  C_30
REMARK                            x       y       z     vdW  Elec       q    Type
REMARK                         _______ _______ _______ _____ _____    ______ ____
ROOT
ATOM      1  C   UNL     1       0.868  -2.801   2.096  0.00  0.00    +0.100 C 
ATOM      2  C   UNL     1       1.761  -3.357   0.964  0.00  0.00    +0.121 C 
ATOM      3  N   UNL     1       3.021  -3.749   1.639  0.00  0.00    -0.296 N 
ATOM      4  C   UNL     1       2.581  -4.342   2.924  0.00  0.00    +0.115 C 
ATOM      5  C   UNL     1       1.408  -3.453   3.380  0.00  0.00    -0.004 C 
ATOM      6  C   UNL     1       1.904  -2.382   4.348  0.00  0.00    -0.010 C 
ATOM      7  C   UNL     1       2.382  -3.051   5.640  0.00  0.00    -0.082 C 
ATOM      8  N   UNL     1       1.277  -3.808   6.240  0.00  0.00    +0.379 N 
ATOM      9  C   UNL     1       0.867  -4.894   5.342  0.00  0.00    -0.082 C 
ATOM     10  C   UNL     1       0.325  -4.303   4.037  0.00  0.00    -0.010 C 
ATOM     11  C   UNL     1       4.281  -3.600   1.186  0.00  0.00    +0.248 C 
ATOM     12  O   UNL     1       4.486  -3.013   0.141  0.00  0.00    -0.270 OA
ATOM     13  H   UNL     1       1.577  -4.197   7.121  0.00  0.00    -0.086 HD
ATOM     14  H   UNL     1       0.495  -3.190   6.397  0.00  0.00    -0.086 HD
ENDROOT
BRANCH  11  15
ATOM     15  C   UNL     1       5.413  -4.149   1.959  0.00  0.00    +0.055 A 
ATOM     16  C   UNL     1       5.276  -5.360   2.640  0.00  0.00    +0.016 A 
ATOM     17  C   UNL     1       6.336  -5.868   3.360  0.00  0.00    +0.021 A 
ATOM     18  C   UNL     1       7.537  -5.179   3.409  0.00  0.00    +0.042 A 
ATOM     19  C   UNL     1       7.681  -3.977   2.738  0.00  0.00    +0.040 A 
ATOM     20  C   UNL     1       6.629  -3.461   2.007  0.00  0.00    +0.054 A 
ATOM     21 CL   UNL     1       6.813  -1.958   1.159  0.00  0.00    -0.083 Cl
ATOM     22 CL   UNL     1       8.867  -5.825   4.319  0.00  0.00    -0.083 Cl
ENDBRANCH  11  15
BRANCH   1  24
ATOM     23  N   UNL     1      -0.005  -0.568   2.704  0.00  0.00    -0.312 N 
ATOM     24  C   UNL     1       0.995  -1.301   2.176  0.00  0.00    +0.218 C 
ATOM     25  O   UNL     1       1.996  -0.755   1.764  0.00  0.00    -0.275 OA
ATOM     26  H   UNL     1      -0.806  -1.005   3.033  0.00  0.00    +0.149 HD
BRANCH  23  27
ATOM     27  C   UNL     1       0.118   0.890   2.781  0.00  0.00    +0.148 C 
BRANCH  27  29
ATOM     28  C   UNL     1      -1.016   2.998   3.498  0.00  0.00    +0.053 C 
ATOM     29  C   UNL     1      -1.145   1.475   3.417  0.00  0.00    +0.187 C 
BRANCH  29  30
ATOM     30  O   UNL     1      -2.281   1.135   2.621  0.00  0.00    -0.488 OA
BRANCH  30  31
ATOM     31  C   UNL     1      -3.487   1.106   3.247  0.00  0.00    +0.121 A 
ATOM     32  C   UNL     1      -4.613   0.667   2.565  0.00  0.00    +0.048 A 
ATOM     33  C   UNL     1      -5.838   0.638   3.203  0.00  0.00    +0.042 A 
ATOM     34  C   UNL     1      -5.943   1.049   4.521  0.00  0.00    +0.124 A 
ATOM     35  C   UNL     1      -4.821   1.488   5.202  0.00  0.00    +0.042 A 
ATOM     36  C   UNL     1      -3.593   1.511   4.569  0.00  0.00    +0.048 A 
ATOM     37  F   UNL     1      -7.142   1.021   5.143  0.00  0.00    -0.205 F 
ENDBRANCH  30  31
ENDBRANCH  29  30
ENDBRANCH  27  29
ENDBRANCH  23  27
ENDBRANCH   1  24
TORSDOF 6
