REMARK  Name = ZINC06283359
REMARK  4 active torsions:
REMARK  status: ('A' for Active; 'I' for Inactive)
REMARK    1  A    between atoms: C_12  and  N_16
REMARK    2  A    between atoms: C_13  and  C_14
REMARK    3  A    between atoms: C_17  and  C_19
REMARK    4  A    between atoms: C_19  and  C_20
REMARK                            x       y       z     vdW  Elec       q    Type
REMARK                         _______ _______ _______ _____ _____    ______ ____
ROOT
ATOM      1  C   UNL     1      -1.221   3.569   0.064  0.00  0.00    +0.000 A 
ATOM      2  C   UNL     1      -0.033   4.279   0.080  0.00  0.00    +0.001 A 
ATOM      3  C   UNL     1       1.173   3.608   0.049  0.00  0.00    +0.009 A 
ATOM      4  C   UNL     1       1.186   2.219   0.003  0.00  0.00    -0.008 A 
ATOM      5  C   UNL     1      -0.018   1.498   0.010  0.00  0.00    -0.039 A 
ATOM      6  C   UNL     1      -1.213   2.186   0.031  0.00  0.00    +0.004 A 
ATOM      7  C   UNL     1       0.002  -0.004   0.002  0.00  0.00    +0.040 C 
ATOM      8  C   UNL     1       1.155  -0.581  -0.812  0.00  0.00    +0.042 C 
ATOM      9  C   UNL     1       2.456   0.112  -0.435  0.00  0.00    -0.013 A 
ATOM     10  C   UNL     1       2.418   1.437  -0.074  0.00  0.00    +0.026 A 
ATOM     11  S   UNL     1       4.098   1.856   0.255  0.00  0.00    -0.072 S 
ATOM     12  C   UNL     1       4.819   0.309  -0.066  0.00  0.00    +0.090 A 
ATOM     13  C   UNL     1       3.725  -0.477  -0.421  0.00  0.00    +0.084 A 
ENDROOT
BRANCH  12  14
ATOM     14  N   UNL     1       6.154  -0.054   0.013  0.00  0.00    -0.279 N 
ATOM     15  C   UNL     1       7.080   0.854   0.380  0.00  0.00    +0.219 C 
ATOM     16  O   UNL     1       6.744   1.990   0.641  0.00  0.00    -0.275 OA
ATOM     17  H   UNL     1       6.423  -0.963  -0.196  0.00  0.00    +0.155 HD
BRANCH  15  18
ATOM     18  C   UNL     1       8.531   0.459   0.466  0.00  0.00    +0.120 C 
BRANCH  18  19
ATOM     19  C   UNL     1       9.364   1.667   0.900  0.00  0.00    +0.150 C 
ATOM     20  C   UNL     1      10.830   1.295   1.086  0.00  0.00    +0.252 C 
ATOM     21  O   UNL     1      11.529   0.889   0.179  0.00  0.00    -0.272 OA
ATOM     22  N   UNL     1      11.268   1.450   2.307  0.00  0.00    -0.159 NA
ATOM     23  C   UNL     1      10.530   1.889   3.314  0.00  0.00    +0.145 C 
ATOM     24  S   UNL     1       8.963   2.173   2.620  0.00  0.00    -0.080 S 
ATOM     25  N   UNL     1      10.914   2.076   4.609  0.00  0.00    -0.340 N 
ATOM     26  H   UNL     1      10.275   2.405   5.261  0.00  0.00    +0.144 HD
ATOM     27  H   UNL     1      11.825   1.879   4.878  0.00  0.00    +0.144 HD
ENDBRANCH  18  19
ENDBRANCH  15  18
ENDBRANCH  12  14
BRANCH  13  28
ATOM     28  C   UNL     1       3.896  -1.857  -0.764  0.00  0.00    +0.102 C 
ATOM     29  N   UNL     1       4.032  -2.951  -1.036  0.00  0.00    -0.191 NA
ENDBRANCH  13  28
TORSDOF 4
