REMARK  Name = ZINC09432879
REMARK  12 active torsions:
REMARK  status: ('A' for Active; 'I' for Inactive)
REMARK    1  A    between atoms: C_1  and  O_2
REMARK    2  A    between atoms: O_2  and  C_3
REMARK    3  A    between atoms: C_3  and  C_4
REMARK    4  A    between atoms: C_4  and  N_5
REMARK    5  A    between atoms: C_6  and  C_34
REMARK    6  A    between atoms: C_8  and  C_18
REMARK    7  A    between atoms: N_20  and  C_21
REMARK    8  A    between atoms: C_21  and  C_22
REMARK    9  A    between atoms: C_22  and  N_72
REMARK   10  A    between atoms: C_23  and  C_24
REMARK   11  A    between atoms: C_23  and  N_72
REMARK   12  A    between atoms: C_29  and  N_72
REMARK                            x       y       z     vdW  Elec       q    Type
REMARK                         _______ _______ _______ _____ _____    ______ ____
ROOT
ATOM      1  N   UNL     1      -5.586   9.524  -6.109  0.00  0.00    -0.287 N 
ATOM      2  C   UNL     1      -6.599   9.080  -5.155  0.00  0.00    +0.129 C 
ATOM      3  C   UNL     1      -5.992   8.873  -3.769  0.00  0.00    +0.131 C 
ATOM      4  C   UNL     1      -5.200  10.087  -3.363  0.00  0.00    -0.021 A 
ATOM      5  C   UNL     1      -5.123  10.466  -2.040  0.00  0.00    +0.005 A 
ATOM      6  C   UNL     1      -4.379  11.576  -1.681  0.00  0.00    +0.000 A 
ATOM      7  C   UNL     1      -3.710  12.312  -2.643  0.00  0.00    +0.001 A 
ATOM      8  C   UNL     1      -3.784  11.946  -3.972  0.00  0.00    +0.013 A 
ATOM      9  C   UNL     1      -4.536  10.832  -4.338  0.00  0.00    +0.041 A 
ATOM     10  C   UNL     1      -4.647  10.424  -5.755  0.00  0.00    +0.247 C 
ATOM     11  O   UNL     1      -3.901  10.894  -6.591  0.00  0.00    -0.270 OA
ENDROOT
BRANCH   2  12
ATOM     12  C   UNL     1      -7.687  10.120  -5.068  0.00  0.00    +0.011 A 
ATOM     13  C   UNL     1      -9.030   9.947  -5.010  0.00  0.00    +0.013 A 
ATOM     14  C   UNL     1      -9.846  11.060  -4.930  0.00  0.00    +0.008 A 
ATOM     15  C   UNL     1      -9.280  12.291  -4.922  0.00  0.00    +0.045 A 
ATOM     16  S   UNL     1      -7.541  11.898  -5.022  0.00  0.00    -0.100 S 
ENDBRANCH   2  12
BRANCH   3  17
ATOM     17  C   UNL     1      -5.085   7.670  -3.797  0.00  0.00    +0.223 C 
ATOM     18  O   UNL     1      -4.940   7.043  -4.825  0.00  0.00    -0.275 OA
ATOM     19  N   UNL     1      -4.434   7.291  -2.679  0.00  0.00    -0.317 N 
ATOM     20  H   UNL     1      -4.550   7.793  -1.857  0.00  0.00    +0.149 HD
BRANCH  19  21
ATOM     21  C   UNL     1      -3.551   6.122  -2.706  0.00  0.00    +0.086 C 
BRANCH  21  22
ATOM     22  C   UNL     1      -2.941   5.912  -1.319  0.00  0.00    -0.059 C 
BRANCH  22  23
ATOM     23  N   UNL     1      -2.189   4.639  -1.315  0.00  0.00    +0.387 N 
ATOM     24  H   UNL     1      -2.820   3.879  -1.595  0.00  0.00    -0.081 HD
BRANCH  23  25
ATOM     25  C   UNL     1      -1.067   4.712  -2.274  0.00  0.00    -0.068 C 
ATOM     26  C   UNL     1      -0.686   6.179  -2.562  0.00  0.00    -0.015 C 
ATOM     27  C   UNL     1      -0.339   6.192  -4.072  0.00  0.00    -0.002 C 
ATOM     28  C   UNL     1      -1.385   5.220  -4.671  0.00  0.00    -0.002 C 
ATOM     29  C   UNL     1      -1.512   4.102  -3.615  0.00  0.00    -0.015 C 
ENDBRANCH  23  25
BRANCH  23  30
ATOM     30  C   UNL     1      -1.676   4.361   0.043  0.00  0.00    -0.003 C 
BRANCH  30  31
ATOM     31  C   UNL     1      -1.257   2.915   0.114  0.00  0.00    +0.089 A 
ATOM     32  C   UNL     1      -0.018   2.443  -0.111  0.00  0.00    +0.042 A 
ATOM     33  C   UNL     1      -0.075   1.041   0.064  0.00  0.00    +0.041 A 
ATOM     34  C   UNL     1      -1.346   0.740   0.385  0.00  0.00    +0.195 A 
ATOM     35  O   UNL     1      -2.059   1.878   0.409  0.00  0.00    -0.470 OA
ENDBRANCH  30  31
ENDBRANCH  23  30
ENDBRANCH  22  23
ENDBRANCH  21  22
ENDBRANCH  19  21
ENDBRANCH   3  17
BRANCH   1  36
ATOM     36  C   UNL     1      -5.590   8.984  -7.470  0.00  0.00    +0.137 C 
BRANCH  36  37
ATOM     37  C   UNL     1      -6.459   9.867  -8.367  0.00  0.00    +0.178 C 
BRANCH  37  39
ATOM     38  C   UNL     1      -6.604  12.071  -9.298  0.00  0.00    +0.194 C 
ATOM     39  O   UNL     1      -5.867  11.163  -8.477  0.00  0.00    -0.381 OA
ENDBRANCH  37  39
ENDBRANCH  36  37
ENDBRANCH   1  36
TORSDOF 11
