REMARK  Name = ZINC21256915
REMARK  10 active torsions:
REMARK  status: ('A' for Active; 'I' for Inactive)
REMARK    1  A    between atoms: C_1  and  C_2
REMARK    2  A    between atoms: C_2  and  C_3
REMARK    3  A    between atoms: C_2  and  O_4
REMARK    4  A    between atoms: O_4  and  C_5
REMARK    5  A    between atoms: C_8  and  C_11
REMARK    6  A    between atoms: C_16  and  C_26
REMARK    7  A    between atoms: C_29  and  O_32
REMARK    8  A    between atoms: O_32  and  C_33
REMARK    9  A    between atoms: C_33  and  C_34
REMARK   10  A    between atoms: C_33  and  C_35
REMARK                            x       y       z     vdW  Elec       q    Type
REMARK                         _______ _______ _______ _____ _____    ______ ____
ROOT
ATOM      1  C   UNL     1      -0.595   1.313  -0.082  0.00  0.00    +0.032 C 
ATOM      2  C   UNL     1      -1.200   0.527  -1.244  0.00  0.00    +0.059 C 
ATOM      3  C   UNL     1      -0.920  -0.956  -1.071  0.00  0.00    +0.017 C 
ATOM      4  C   UNL     1      -0.835  -1.496   0.158  0.00  0.00    +0.036 C 
ATOM      5  C   UNL     1      -0.575  -2.949   0.470  0.00  0.00    +0.136 C 
ATOM      6  N   UNL     1      -0.671  -3.837  -0.669  0.00  0.00    -0.331 N 
ATOM      7  C   UNL     1       0.222  -3.736  -1.734  0.00  0.00    +0.049 A 
ATOM      8  C   UNL     1       1.111  -4.755  -2.034  0.00  0.00    +0.025 A 
ATOM      9  C   UNL     1       2.012  -4.588  -3.072  0.00  0.00    +0.002 A 
ATOM     10  C   UNL     1       2.029  -3.414  -3.803  0.00  0.00    +0.002 A 
ATOM     11  C   UNL     1       1.130  -2.401  -3.517  0.00  0.00    +0.025 A 
ATOM     12  C   UNL     1       0.214  -2.576  -2.495  0.00  0.00    +0.052 A 
ATOM     13  N   UNL     1      -0.789  -1.650  -2.229  0.00  0.00    -0.316 N 
ATOM     14  C   UNL     1      -0.990  -0.682   1.305  0.00  0.00    +0.163 C 
ATOM     15  O   UNL     1      -0.925  -1.199   2.403  0.00  0.00    -0.292 OA
ATOM     16  C   UNL     1      -1.230   0.795   1.213  0.00  0.00    +0.088 C 
ATOM     17  H   UNL     1      -1.458  -4.605  -0.703  0.00  0.00    +0.147 HD
ATOM     18  H   UNL     1      -1.510  -1.498  -3.046  0.00  0.00    +0.152 HD
ENDROOT
BRANCH   1  22
ATOM     19  C   UNL     1      -1.445   5.475  -0.549  0.00  0.00    +0.121 A 
ATOM     20  C   UNL     1      -0.130   5.039  -0.468  0.00  0.00    +0.046 A 
ATOM     21  C   UNL     1       0.142   3.693  -0.318  0.00  0.00    +0.007 A 
ATOM     22  C   UNL     1      -0.895   2.781  -0.247  0.00  0.00    -0.043 A 
ATOM     23  C   UNL     1      -2.205   3.212  -0.333  0.00  0.00    +0.007 A 
ATOM     24  C   UNL     1      -2.483   4.557  -0.478  0.00  0.00    +0.046 A 
BRANCH  19  25
ATOM     25  O   UNL     1      -1.715   6.798  -0.698  0.00  0.00    -0.489 OA
BRANCH  25  27
ATOM     26  C   UNL     1      -0.981   8.986  -1.414  0.00  0.00    +0.051 C 
ATOM     27  C   UNL     1      -0.601   7.693  -0.691  0.00  0.00    +0.167 C 
ATOM     28  C   UNL     1      -0.211   8.012   0.754  0.00  0.00    +0.051 C 
ENDBRANCH  25  27
ENDBRANCH  19  25
ENDBRANCH   1  22
BRANCH   5  29
ATOM     29  C   UNL     1       0.809  -3.072   1.054  0.00  0.00    -0.023 A 
ATOM     30  C   UNL     1       1.913  -2.747   0.288  0.00  0.00    +0.009 A 
ATOM     31  C   UNL     1       3.182  -2.853   0.824  0.00  0.00    +0.046 A 
ATOM     32  C   UNL     1       3.349  -3.297   2.128  0.00  0.00    +0.121 A 
ATOM     33  C   UNL     1       2.240  -3.628   2.892  0.00  0.00    +0.046 A 
ATOM     34  C   UNL     1       0.972  -3.515   2.354  0.00  0.00    +0.009 A 
BRANCH  32  35
ATOM     35  O   UNL     1       4.596  -3.407   2.655  0.00  0.00    -0.489 OA
BRANCH  35  36
ATOM     36  C   UNL     1       4.701  -3.976   3.961  0.00  0.00    +0.167 C 
ATOM     37  C   UNL     1       6.092  -4.587   4.142  0.00  0.00    +0.051 C 
ATOM     38  C   UNL     1       4.482  -2.885   5.012  0.00  0.00    +0.051 C 
ENDBRANCH  35  36
ENDBRANCH  32  35
ENDBRANCH   5  29
TORSDOF 6
