REMARK  Name = ZINC16033905
REMARK  7 active torsions:
REMARK  status: ('A' for Active; 'I' for Inactive)
REMARK    1  A    between atoms: C_1  and  C_2
REMARK    2  A    between atoms: C_2  and  C_3
REMARK    3  A    between atoms: C_14  and  C_17
REMARK    4  A    between atoms: C_17  and  C_18
REMARK    5  A    between atoms: C_21  and  O_25
REMARK    6  A    between atoms: C_22  and  O_24
REMARK    7  A    between atoms: N_28  and  C_31
REMARK                            x       y       z     vdW  Elec       q    Type
REMARK                         _______ _______ _______ _____ _____    ______ ____
ROOT
ATOM      1  C   UNL     1      -1.645  -1.070   0.297  0.00  0.00    -0.047 A 
ATOM      2  C   UNL     1      -2.296  -1.597   1.398  0.00  0.00    +0.005 A 
ATOM      3  C   UNL     1      -3.574  -2.101   1.275  0.00  0.00    +0.024 A 
ATOM      4  C   UNL     1      -4.220  -2.082   0.041  0.00  0.00    +0.039 A 
ATOM      5  C   UNL     1      -3.555  -1.548  -1.059  0.00  0.00    +0.004 A 
ATOM      6  C   UNL     1      -2.281  -1.043  -0.931  0.00  0.00    +0.011 A 
ATOM      7  C   UNL     1      -4.508  -1.671  -2.214  0.00  0.00    +0.136 C 
ATOM      8  C   UNL     1      -3.915  -2.511  -3.350  0.00  0.00    +0.122 C 
ATOM      9  C   UNL     1      -3.384  -1.469  -4.373  0.00  0.00    +0.107 C 
ATOM     10  C   UNL     1      -3.705  -0.097  -3.742  0.00  0.00    +0.072 C 
ATOM     11  N   UNL     1      -4.819  -0.355  -2.802  0.00  0.00    -0.295 NA
ATOM     12  C   UNL     1      -1.889  -1.699  -4.361  0.00  0.00    +0.227 C 
ATOM     13  O   UNL     1      -1.081  -1.090  -5.029  0.00  0.00    -0.275 OA
ATOM     14  N   UNL     1      -1.597  -2.679  -3.498  0.00  0.00    -0.238 N 
ATOM     15  C   UNL     1      -2.667  -3.217  -2.870  0.00  0.00    +0.228 C 
ATOM     16  O   UNL     1      -2.640  -4.113  -2.054  0.00  0.00    -0.275 OA
ATOM     17  C   UNL     1      -5.739  -2.318  -1.638  0.00  0.00    +0.243 C 
ATOM     18  O   UNL     1      -6.756  -2.600  -2.236  0.00  0.00    -0.273 OA
ATOM     19  N   UNL     1      -5.491  -2.525  -0.331  0.00  0.00    -0.283 N 
ATOM     20  H   UNL     1      -5.698  -0.378  -3.296  0.00  0.00    +0.124 HD
ATOM     21  H   UNL     1      -6.122  -2.934   0.282  0.00  0.00    +0.155 HD
ENDROOT
BRANCH  14  22
ATOM     22  C   UNL     1      -0.228  -3.140  -3.257  0.00  0.00    +0.084 C 
ATOM     23  C   UNL     1       0.642  -1.955  -2.833  0.00  0.00    +0.023 C 
ATOM     24  C   UNL     1       2.072  -2.437  -2.580  0.00  0.00    +0.002 C 
ATOM     25  C   UNL     1       2.637  -3.051  -3.863  0.00  0.00    +0.000 C 
ATOM     26  C   UNL     1       1.767  -4.237  -4.286  0.00  0.00    +0.002 C 
ATOM     27  C   UNL     1       0.337  -3.755  -4.539  0.00  0.00    +0.023 C 
ENDBRANCH  14  22
BRANCH   1  29
ATOM     28  C   UNL     1      -0.317   0.927   0.928  0.00  0.00    +0.009 C 
ATOM     29  C   UNL     1      -0.249  -0.521   0.437  0.00  0.00    +0.032 C 
ENDBRANCH   1  29
BRANCH  10  30
ATOM     30  C   UNL     1      -4.117   0.903  -4.824  0.00  0.00    +0.054 C 
BRANCH  30  31
ATOM     31  C   UNL     1      -4.307   2.264  -4.204  0.00  0.00    -0.042 A 
ATOM     32  C   UNL     1      -5.545   2.630  -3.710  0.00  0.00    +0.007 A 
ATOM     33  C   UNL     1      -5.725   3.877  -3.140  0.00  0.00    +0.049 A 
ATOM     34  C   UNL     1      -4.662   4.762  -3.063  0.00  0.00    +0.158 A 
ATOM     35  C   UNL     1      -3.415   4.393  -3.559  0.00  0.00    +0.158 A 
ATOM     36  C   UNL     1      -3.241   3.140  -4.125  0.00  0.00    +0.052 A 
BRANCH  35  37
ATOM     37  O   UNL     1      -2.369   5.259  -3.486  0.00  0.00    -0.503 OA
ATOM     38  H   UNL     1      -1.849   5.179  -2.674  0.00  0.00    +0.292 HD
ENDBRANCH  35  37
BRANCH  34  39
ATOM     39  O   UNL     1      -4.836   5.989  -2.503  0.00  0.00    -0.503 OA
ATOM     40  H   UNL     1      -4.670   6.015  -1.551  0.00  0.00    +0.292 HD
ENDBRANCH  34  39
ENDBRANCH  30  31
ENDBRANCH  10  30
TORSDOF 6
