REMARK  Name = ZINC08791277
REMARK  6 active torsions:
REMARK  status: ('A' for Active; 'I' for Inactive)
REMARK    1  A    between atoms: C_1  and  C_2
REMARK    2  A    between atoms: C_18  and  C_20
REMARK    3  A    between atoms: C_20  and  N_69
REMARK    4  A    between atoms: C_23  and  C_26
REMARK    5  A    between atoms: C_23  and  O_33
REMARK    6  A    between atoms: C_26  and  C_27
REMARK                            x       y       z     vdW  Elec       q    Type
REMARK                         _______ _______ _______ _____ _____    ______ ____
ROOT
ATOM      1  C   UNL     1      -2.068  -0.475  -1.316  0.00  0.00    +0.011 C 
ATOM      2  C   UNL     1      -2.166   1.051  -1.270  0.00  0.00    -0.023 C 
ATOM      3  C   UNL     1      -0.763   1.655  -1.211  0.00  0.00    +0.007 C 
ATOM      4  C   UNL     1      -0.013   1.107   0.004  0.00  0.00    +0.003 C 
ATOM      5  C   UNL     1      -0.733   1.537   1.286  0.00  0.00    +0.037 C 
ATOM      6  C   UNL     1      -2.186   1.059   1.223  0.00  0.00    +0.096 C 
ATOM      7  C   UNL     1      -2.958   1.481  -0.028  0.00  0.00    +0.030 C 
ATOM      8  C   UNL     1      -4.315   0.781  -0.061  0.00  0.00    +0.014 C 
ATOM      9  C   UNL     1      -5.120   1.218  -1.287  0.00  0.00    +0.042 C 
ATOM     10  C   UNL     1      -4.306   1.023  -2.580  0.00  0.00    +0.181 C 
ATOM     11  C   UNL     1      -2.903   1.574  -2.503  0.00  0.00    +0.052 C 
ATOM     12  O   UNL     1      -4.349  -0.417  -2.796  0.00  0.00    -0.461 OA
ATOM     13  C   UNL     1      -5.603  -0.826  -2.501  0.00  0.00    +0.309 C 
ATOM     14  O   UNL     1      -6.148  -1.801  -2.962  0.00  0.00    -0.251 OA
ATOM     15  C   UNL     1      -6.219   0.135  -1.501  0.00  0.00    +0.088 C 
ATOM     16  C   UNL     1      -2.521  -0.293   1.850  0.00  0.00    +0.196 C 
ATOM     17  O   UNL     1      -2.906   0.946   2.449  0.00  0.00    -0.368 OA
ENDROOT
BRANCH  15  18
ATOM     18  C   UNL     1      -7.490   0.766  -2.073  0.00  0.00    -0.064 C 
BRANCH  18  24
ATOM     19  C   UNL     1      -8.712  -1.010  -0.973  0.00  0.00    -0.076 C 
ATOM     20  C   UNL     1      -9.687  -2.167  -1.207  0.00  0.00    +0.016 C 
ATOM     21  C   UNL     1     -11.026  -1.608  -1.696  0.00  0.00    +0.067 C 
ATOM     22  C   UNL     1     -10.795  -0.797  -2.974  0.00  0.00    +0.016 C 
ATOM     23  C   UNL     1      -9.788   0.320  -2.689  0.00  0.00    -0.076 C 
ATOM     24  N   UNL     1      -8.514  -0.285  -2.245  0.00  0.00    +0.380 N 
ATOM     25  H   UNL     1      -8.193  -0.948  -2.961  0.00  0.00    -0.082 HD
BRANCH  21  26
ATOM     26  O   UNL     1     -11.589  -0.764  -0.690  0.00  0.00    -0.388 OA
ATOM     27  H   UNL     1     -11.761  -1.214   0.149  0.00  0.00    +0.210 HD
ENDBRANCH  21  26
BRANCH  21  28
ATOM     28  C   UNL     1     -11.985  -2.763  -1.990  0.00  0.00    +0.069 C 
BRANCH  28  29
ATOM     29  C   UNL     1     -12.211  -3.561  -0.732  0.00  0.00    -0.045 A 
ATOM     30  C   UNL     1     -11.389  -4.632  -0.435  0.00  0.00    +0.004 A 
ATOM     31  C   UNL     1     -11.594  -5.361   0.721  0.00  0.00    +0.000 A 
ATOM     32  C   UNL     1     -12.627  -5.025   1.577  0.00  0.00    +0.000 A 
ATOM     33  C   UNL     1     -13.452  -3.957   1.277  0.00  0.00    +0.000 A 
ATOM     34  C   UNL     1     -13.245  -3.225   0.123  0.00  0.00    +0.004 A 
ENDBRANCH  28  29
ENDBRANCH  21  28
ENDBRANCH  18  24
ENDBRANCH  15  18
TORSDOF 5
