REMARK  Name = ZINC63270845
REMARK  4 active torsions:
REMARK  status: ('A' for Active; 'I' for Inactive)
REMARK    1  A    between atoms: C_5  and  C_7
REMARK    2  A    between atoms: C_7  and  N_8
REMARK    3  A    between atoms: C_9  and  C_11
REMARK    4  A    between atoms: C_11  and  N_12
REMARK                            x       y       z     vdW  Elec       q    Type
REMARK                         _______ _______ _______ _____ _____    ______ ____
ROOT
ATOM      1  N   UNL     1       1.834  -5.976   2.954  0.00  0.00    -0.291 N 
ATOM      2  C   UNL     1       2.062  -6.654   4.096  0.00  0.00    +0.303 C 
ATOM      3  O   UNL     1       2.342  -6.052   5.115  0.00  0.00    -0.253 OA
ATOM      4  N   UNL     1       1.981  -7.999   4.109  0.00  0.00    -0.283 N 
ATOM      5  C   UNL     1       1.764  -8.725   2.854  0.00  0.00    +0.114 C 
ATOM      6  C   UNL     1       2.912  -9.727   2.636  0.00  0.00    +0.052 C 
ATOM      7  C   UNL     1       3.127 -10.431   3.952  0.00  0.00    -0.036 C 
ATOM      8  C   UNL     1       3.185 -11.722   4.258  0.00  0.00    -0.001 A 
ATOM      9  C   UNL     1       3.171 -12.930   3.417  0.00  0.00    +0.010 A 
ATOM     10  C   UNL     1       3.227 -14.118   4.074  0.00  0.00    +0.001 A 
ATOM     11  C   UNL     1       3.295 -14.225   5.467  0.00  0.00    +0.002 A 
ATOM     12  C   UNL     1       3.320 -13.167   6.317  0.00  0.00    +0.026 A 
ATOM     13  C   UNL     1       3.275 -11.863   5.743  0.00  0.00    +0.043 A 
ATOM     14  N   UNL     1       3.309 -10.693   6.310  0.00  0.00    -0.376 N 
ATOM     15  C   UNL     1       3.308  -9.673   5.262  0.00  0.00    +0.124 C 
ATOM     16  C   UNL     1       2.117  -8.724   5.383  0.00  0.00    +0.138 C 
ATOM     17  H   UNL     1       1.682  -6.458   2.126  0.00  0.00    +0.151 HD
ATOM     18  H   UNL     1       3.332 -10.526   7.265  0.00  0.00    +0.160 HD
ENDROOT
BRANCH   1  19
ATOM     19  C   UNL     1       1.814  -4.511   2.963  0.00  0.00    +0.201 C 
BRANCH  19  21
ATOM     20  N   UNL     1       1.476  -2.678   1.337  0.00  0.00    -0.310 N 
ATOM     21  C   UNL     1       1.540  -4.004   1.571  0.00  0.00    +0.231 C 
ATOM     22  O   UNL     1       1.377  -4.788   0.660  0.00  0.00    -0.274 OA
ATOM     23  H   UNL     1       1.607  -2.050   2.065  0.00  0.00    +0.149 HD
BRANCH  20  24
ATOM     24  C   UNL     1       1.210  -2.185  -0.017  0.00  0.00    +0.141 C 
BRANCH  24  29
ATOM     25  C   UNL     1      -0.035   1.379   0.021  0.00  0.00    +0.000 A 
ATOM     26  C   UNL     1       1.153   2.087   0.009  0.00  0.00    +0.001 A 
ATOM     27  C   UNL     1       2.359   1.413  -0.013  0.00  0.00    +0.020 A 
ATOM     28  C   UNL     1       2.378   0.030  -0.021  0.00  0.00    +0.046 A 
ATOM     29  C   UNL     1       1.190  -0.678  -0.007  0.00  0.00    -0.012 A 
ATOM     30  C   UNL     1      -0.016  -0.003   0.013  0.00  0.00    +0.006 A 
ATOM     31 CL   UNL     1       3.893  -0.818  -0.048  0.00  0.00    -0.083 Cl
ENDBRANCH  24  29
ENDBRANCH  20  24
ENDBRANCH  19  21
ENDBRANCH   1  19
TORSDOF 4
