REMARK  Name = ZINC67184805
REMARK  8 active torsions:
REMARK  status: ('A' for Active; 'I' for Inactive)
REMARK    1  A    between atoms: C_4  and  O_23
REMARK    2  A    between atoms: C_5  and  C_7
REMARK    3  A    between atoms: C_7  and  N_8
REMARK    4  A    between atoms: N_8  and  C_9
REMARK    5  A    between atoms: C_9  and  C_10
REMARK    6  A    between atoms: C_10  and  C_11
REMARK    7  A    between atoms: C_11  and  N_12
REMARK    8  A    between atoms: O_23  and  C_24
REMARK                            x       y       z     vdW  Elec       q    Type
REMARK                         _______ _______ _______ _____ _____    ______ ____
ROOT
ATOM      1  N   UNL     1       1.624  -2.403   1.834  0.00  0.00    +0.382 N 
ATOM      2  H   UNL     1       2.536  -2.012   2.015  0.00  0.00    -0.085 HD
ATOM      3  H   UNL     1       0.947  -1.974   2.447  0.00  0.00    -0.085 HD
ENDROOT
BRANCH   1   4
ATOM      4  C   UNL     1       1.250  -2.149   0.437  0.00  0.00    -0.043 C 
BRANCH   4   9
ATOM      5  C   UNL     1      -0.019   1.374  -0.045  0.00  0.00    +0.000 A 
ATOM      6  C   UNL     1       1.156   2.066  -0.271  0.00  0.00    +0.004 A 
ATOM      7  C   UNL     1       2.364   1.397  -0.269  0.00  0.00    +0.046 A 
ATOM      8  C   UNL     1       2.398   0.029  -0.039  0.00  0.00    +0.122 A 
ATOM      9  C   UNL     1       1.217  -0.663   0.188  0.00  0.00    -0.023 A 
ATOM     10  C   UNL     1       0.011   0.011   0.184  0.00  0.00    +0.005 A 
BRANCH   8  11
ATOM     11  O   UNL     1       3.586  -0.632  -0.037  0.00  0.00    -0.489 OA
BRANCH  11  12
ATOM     12  C   UNL     1       4.769   0.160  -0.156  0.00  0.00    +0.173 C 
ATOM     13  C   UNL     1       5.100   0.396  -1.644  0.00  0.00    +0.044 C 
ATOM     14  C   UNL     1       6.646   0.340  -1.703  0.00  0.00    +0.004 C 
ATOM     15  C   UNL     1       6.987  -0.786  -0.695  0.00  0.00    +0.004 C 
ATOM     16  C   UNL     1       5.969  -0.591   0.448  0.00  0.00    +0.044 C 
ENDBRANCH  11  12
ENDBRANCH   8  11
ENDBRANCH   4   9
ENDBRANCH   1   4
BRANCH   1  17
ATOM     17  C   UNL     1       1.656  -3.852   2.077  0.00  0.00    -0.081 C 
BRANCH  17  18
ATOM     18  C   UNL     1       2.046  -4.116   3.533  0.00  0.00    +0.000 C 
BRANCH  18  19
ATOM     19  C   UNL     1       2.079  -5.625   3.786  0.00  0.00    +0.116 C 
BRANCH  19  20
ATOM     20  N   UNL     1       2.452  -5.878   5.180  0.00  0.00    -0.224 N 
ATOM     21  C   UNL     1       3.723  -6.030   5.610  0.00  0.00    +0.246 C 
ATOM     22  O   UNL     1       4.735  -5.984   4.944  0.00  0.00    -0.273 OA
ATOM     23  C   UNL     1       3.614  -6.267   7.095  0.00  0.00    +0.113 C 
ATOM     24  C   UNL     1       4.364  -5.184   7.883  0.00  0.00    +0.035 C 
ATOM     25  C   UNL     1       4.937  -5.942   9.108  0.00  0.00    +0.003 C 
ATOM     26  C   UNL     1       5.332  -7.316   8.511  0.00  0.00    +0.003 C 
ATOM     27  C   UNL     1       4.215  -7.619   7.487  0.00  0.00    +0.035 C 
ATOM     28  N   UNL     1       2.177  -6.221   7.369  0.00  0.00    -0.285 N 
ATOM     29  C   UNL     1       1.575  -5.983   6.187  0.00  0.00    +0.309 C 
ATOM     30  O   UNL     1       0.372  -5.878   6.049  0.00  0.00    -0.252 OA
ATOM     31  H   UNL     1       1.744  -6.335   8.230  0.00  0.00    +0.151 HD
ENDBRANCH  19  20
ENDBRANCH  18  19
ENDBRANCH  17  18
ENDBRANCH   1  17
TORSDOF 8
