REMARK  Name = ZINC63373517
REMARK  13 active torsions:
REMARK  status: ('A' for Active; 'I' for Inactive)
REMARK    1  A    between atoms: C_1  and  C_2
REMARK    2  A    between atoms: C_2  and  C_3
REMARK    3  A    between atoms: C_3  and  O_4
REMARK    4  A    between atoms: O_4  and  C_5
REMARK    5  A    between atoms: C_8  and  C_14
REMARK    6  A    between atoms: C_10  and  O_11
REMARK    7  A    between atoms: O_11  and  C_12
REMARK    8  A    between atoms: C_12  and  C_13
REMARK    9  A    between atoms: N_21  and  C_36
REMARK   10  A    between atoms: C_24  and  C_35
REMARK   11  A    between atoms: C_36  and  C_37
REMARK   12  A    between atoms: C_37  and  C_38
REMARK   13  A    between atoms: C_38  and  O_39
REMARK                            x       y       z     vdW  Elec       q    Type
REMARK                         _______ _______ _______ _____ _____    ______ ____
ROOT
ATOM      1  C   UNL     1      -6.407  -4.576  -0.018  0.00  0.00    +0.065 C 
ATOM      2  C   UNL     1      -7.256  -4.142  -1.216  0.00  0.00    +0.121 C 
ATOM      3  N   UNL     1      -8.679  -4.358  -1.026  0.00  0.00    -0.283 N 
ATOM      4  C   UNL     1      -9.475  -4.292  -2.146  0.00  0.00    +0.234 C 
ATOM      5  O   UNL     1      -9.000  -4.199  -3.258  0.00  0.00    -0.274 OA
ATOM      6  C   UNL     1     -10.972  -4.339  -1.924  0.00  0.00    +0.203 C 
ATOM      7  N   UNL     1     -11.305  -3.464  -0.784  0.00  0.00    -0.291 N 
ATOM      8  C   UNL     1     -10.525  -3.592   0.332  0.00  0.00    +0.242 C 
ATOM      9  O   UNL     1     -10.728  -2.953   1.342  0.00  0.00    -0.273 OA
ATOM     10  C   UNL     1      -9.395  -4.582   0.217  0.00  0.00    +0.135 C 
ATOM     11  C   UNL     1      -8.577  -4.720   1.463  0.00  0.00    +0.139 C 
ATOM     12  C   UNL     1      -7.180  -4.174   1.212  0.00  0.00    -0.027 C 
ATOM     13  C   UNL     1      -6.909  -3.358   2.219  0.00  0.00    -0.000 A 
ATOM     14  C   UNL     1      -5.691  -2.616   2.585  0.00  0.00    +0.010 A 
ATOM     15  C   UNL     1      -5.773  -1.838   3.696  0.00  0.00    +0.001 A 
ATOM     16  C   UNL     1      -6.931  -1.723   4.472  0.00  0.00    +0.002 A 
ATOM     17  C   UNL     1      -8.093  -2.376   4.215  0.00  0.00    +0.026 A 
ATOM     18  C   UNL     1      -8.128  -3.232   3.077  0.00  0.00    +0.043 A 
ATOM     19  N   UNL     1      -9.080  -3.966   2.611  0.00  0.00    -0.375 N 
ATOM     20  C   UNL     1     -10.075  -5.942   0.049  0.00  0.00    +0.044 C 
ATOM     21  H   UNL     1      -9.978  -4.014   2.973  0.00  0.00    +0.160 HD
ENDROOT
BRANCH   1  25
ATOM     22  C   UNL     1      -2.627  -2.578  -0.095  0.00  0.00    +0.162 A 
ATOM     23  C   UNL     1      -3.801  -1.844  -0.057  0.00  0.00    +0.050 A 
ATOM     24  C   UNL     1      -5.021  -2.493  -0.033  0.00  0.00    +0.008 A 
ATOM     25  C   UNL     1      -5.074  -3.874  -0.046  0.00  0.00    -0.035 A 
ATOM     26  C   UNL     1      -3.906  -4.613  -0.083  0.00  0.00    +0.053 A 
ATOM     27  C   UNL     1      -2.679  -3.969  -0.114  0.00  0.00    +0.162 A 
BRANCH  22  28
ATOM     28  O   UNL     1      -1.425  -1.941  -0.120  0.00  0.00    -0.488 OA
BRANCH  28  29
ATOM     29  C   UNL     1      -1.448  -0.513  -0.098  0.00  0.00    +0.229 C 
BRANCH  29  31
ATOM     30  C   UNL     1      -0.038   1.550  -0.108  0.00  0.00    +0.007 C 
ATOM     31  C   UNL     1      -0.014   0.020  -0.131  0.00  0.00    +0.038 C 
ENDBRANCH  29  31
ENDBRANCH  28  29
ENDBRANCH  22  28
BRANCH  27  32
ATOM     32  O   UNL     1      -1.530  -4.694  -0.158  0.00  0.00    -0.489 OA
BRANCH  32  33
ATOM     33  C   UNL     1      -1.660  -6.117  -0.175  0.00  0.00    +0.226 C 
ATOM     34  C   UNL     1      -0.271  -6.756  -0.224  0.00  0.00    +0.048 C 
ENDBRANCH  32  33
ENDBRANCH  27  32
ENDBRANCH   1  25
BRANCH   7  35
ATOM     35  C   UNL     1     -12.414  -2.509  -0.844  0.00  0.00    +0.110 C 
BRANCH  35  36
ATOM     36  C   UNL     1     -13.696  -3.184  -0.353  0.00  0.00    +0.047 C 
BRANCH  36  37
ATOM     37  C   UNL     1     -14.855  -2.187  -0.416  0.00  0.00    +0.157 C 
BRANCH  37  38
ATOM     38  O   UNL     1     -16.052  -2.817   0.042  0.00  0.00    -0.395 OA
ATOM     39  H   UNL     1     -16.829  -2.242   0.030  0.00  0.00    +0.209 HD
ENDBRANCH  37  38
ENDBRANCH  36  37
ENDBRANCH  35  36
ENDBRANCH   7  35
TORSDOF 10
