REMARK  Name = ZINC40735343
REMARK  6 active torsions:
REMARK  status: ('A' for Active; 'I' for Inactive)
REMARK    1  A    between atoms: C_1  and  C_2
REMARK    2  A    between atoms: C_7  and  C_9
REMARK    3  A    between atoms: C_7  and  C_10
REMARK    4  A    between atoms: C_14  and  N_28
REMARK    5  A    between atoms: C_15  and  N_19
REMARK    6  A    between atoms: N_19  and  C_20
REMARK                            x       y       z     vdW  Elec       q    Type
REMARK                         _______ _______ _______ _____ _____    ______ ____
ROOT
ATOM      1  C   UNL     1       0.132   1.724  -0.366  0.00  0.00    +0.013 C 
ATOM      2  C   UNL     1       0.116   0.189  -0.290  0.00  0.00    -0.014 C 
ATOM      3  C   UNL     1      -1.327  -0.387  -0.280  0.00  0.00    +0.030 C 
ATOM      4  C   UNL     1      -1.024  -1.848  -0.694  0.00  0.00    +0.076 C 
ATOM      5  C   UNL     1      -0.432  -2.551   0.525  0.00  0.00    +0.029 C 
ATOM      6  C   UNL     1       0.786  -1.855   1.106  0.00  0.00    -0.033 C 
ATOM      7  C   UNL     1       0.827  -0.347   0.951  0.00  0.00    +0.014 C 
ATOM      8  C   UNL     1       2.065  -2.479   0.526  0.00  0.00    +0.011 C 
ATOM      9  C   UNL     1       0.802  -2.159   2.625  0.00  0.00    +0.011 C 
ATOM     10  N   UNL     1       0.011  -1.740  -1.741  0.00  0.00    -0.310 N 
ATOM     11  C   UNL     1       0.723  -0.467  -1.550  0.00  0.00    +0.113 C 
ATOM     12  C   UNL     1       0.263  -2.672  -2.741  0.00  0.00    +0.147 A 
ATOM     13  C   UNL     1       1.198  -2.401  -3.742  0.00  0.00    +0.106 A 
ATOM     14  C   UNL     1       1.414  -3.372  -4.722  0.00  0.00    +0.149 A 
ATOM     15  N   UNL     1       0.725  -4.510  -4.665  0.00  0.00    -0.219 NA
ATOM     16  C   UNL     1      -0.149  -4.725  -3.702  0.00  0.00    +0.225 A 
ATOM     17  N   UNL     1      -0.378  -3.838  -2.756  0.00  0.00    -0.219 NA
ENDROOT
BRANCH  13  18
ATOM     18  N   UNL     1       1.902  -1.187  -3.763  0.00  0.00    -0.353 N 
ATOM     19  H   UNL     1       1.802  -0.556  -3.033  0.00  0.00    +0.143 HD
ATOM     20  H   UNL     1       2.487  -0.978  -4.508  0.00  0.00    +0.143 HD
ENDBRANCH  13  18
BRANCH  14  21
ATOM     21  N   UNL     1       2.333  -3.154  -5.742  0.00  0.00    -0.296 N 
ATOM     22  H   UNL     1       2.894  -2.363  -5.727  0.00  0.00    +0.154 HD
BRANCH  21  23
ATOM     23  C   UNL     1       2.448  -4.074  -6.788  0.00  0.00    +0.071 A 
ATOM     24  C   UNL     1       1.377  -4.896  -7.114  0.00  0.00    +0.064 A 
ATOM     25  C   UNL     1       1.494  -5.805  -8.150  0.00  0.00    +0.125 A 
ATOM     26  C   UNL     1       2.679  -5.896  -8.862  0.00  0.00    +0.041 A 
ATOM     27  C   UNL     1       3.747  -5.080  -8.540  0.00  0.00    +0.043 A 
ATOM     28  C   UNL     1       3.634  -4.165  -7.509  0.00  0.00    +0.145 A 
ATOM     29  F   UNL     1       4.677  -3.364  -7.199  0.00  0.00    -0.204 F 
ATOM     30  F   UNL     1       0.453  -6.605  -8.467  0.00  0.00    -0.205 F 
ENDBRANCH  21  23
ENDBRANCH  14  21
TORSDOF 3
