REMARK  Name = ZINC04096445
REMARK  6 active torsions:
REMARK  status: ('A' for Active; 'I' for Inactive)
REMARK    1  A    between atoms: C_1  and  C_2
REMARK    2  A    between atoms: C_2  and  C_4
REMARK    3  A    between atoms: C_2  and  O_28
REMARK    4  A    between atoms: C_4  and  O_27
REMARK    5  A    between atoms: C_9  and  C_26
REMARK    6  A    between atoms: C_24  and  C_25
REMARK                            x       y       z     vdW  Elec       q    Type
REMARK                         _______ _______ _______ _____ _____    ______ ____
ROOT
ATOM      1  C   UNL     1      -1.595   2.872  -0.681  0.00  0.00    +0.097 C 
ATOM      2  C   UNL     1      -0.826   1.631  -1.198  0.00  0.00    +0.038 C 
ATOM      3  C   UNL     1      -0.013   1.086   0.008  0.00  0.00    +0.007 C 
ATOM      4  C   UNL     1      -0.792   1.611   1.219  0.00  0.00    +0.001 C 
ATOM      5  C   UNL     1      -1.141   3.055   0.764  0.00  0.00    +0.002 C 
ATOM      6  C   UNL     1      -2.173   3.598   1.734  0.00  0.00    +0.010 C 
ATOM      7  C   UNL     1      -1.497   3.691   3.111  0.00  0.00    +0.005 C 
ATOM      8  C   UNL     1      -0.955   2.340   3.564  0.00  0.00    +0.002 C 
ATOM      9  C   UNL     1      -0.018   1.722   2.513  0.00  0.00    -0.003 C 
ATOM     10  C   UNL     1       0.437   0.336   2.971  0.00  0.00    +0.008 C 
ATOM     11  C   UNL     1       1.253   0.455   4.264  0.00  0.00    +0.032 C 
ATOM     12  C   UNL     1       0.400   1.194   5.282  0.00  0.00    -0.060 C 
ATOM     13  C   UNL     1       0.178   0.626   6.464  0.00  0.00    +0.046 C 
ATOM     14  C   UNL     1      -0.713   1.295   7.423  0.00  0.00    +0.156 C 
ATOM     15  O   UNL     1      -0.633   1.099   8.617  0.00  0.00    -0.293 OA
ATOM     16  C   UNL     1      -1.738   2.244   6.831  0.00  0.00    +0.080 C 
ATOM     17  C   UNL     1      -0.994   3.221   5.922  0.00  0.00    +0.019 C 
ATOM     18  C   UNL     1      -0.176   2.513   4.870  0.00  0.00    -0.007 C 
ATOM     19  C   UNL     1       1.007   3.431   4.554  0.00  0.00    +0.016 C 
ATOM     20  C   UNL     1       0.116   3.926   0.805  0.00  0.00    +0.014 C 
ENDROOT
BRANCH   1  22
ATOM     21  C   UNL     1      -1.641   3.873  -2.970  0.00  0.00    +0.040 C 
ATOM     22  C   UNL     1      -1.234   4.104  -1.513  0.00  0.00    +0.144 C 
BRANCH  22  23
ATOM     23  O   UNL     1       0.174   4.331  -1.441  0.00  0.00    -0.389 OA
ATOM     24  H   UNL     1       0.475   5.099  -1.946  0.00  0.00    +0.210 HD
ENDBRANCH  22  23
ENDBRANCH   1  22
BRANCH   1  25
ATOM     25  O   UNL     1      -3.004   2.637  -0.731  0.00  0.00    -0.385 OA
ATOM     26  H   UNL     1      -3.344   2.473  -1.621  0.00  0.00    +0.210 HD
ENDBRANCH   1  25
TORSDOF 3
