REMARK  Name = ZINC17186070
REMARK  9 active torsions:
REMARK  status: ('A' for Active; 'I' for Inactive)
REMARK    1  A    between atoms: C_1  and  O_2
REMARK    2  A    between atoms: O_2  and  C_3
REMARK    3  A    between atoms: C_6  and  N_9
REMARK    4  A    between atoms: N_9  and  S_10
REMARK    5  A    between atoms: S_10  and  C_13
REMARK    6  A    between atoms: C_16  and  C_19
REMARK    7  A    between atoms: N_21  and  N_22
REMARK    8  A    between atoms: C_23  and  C_25
REMARK    9  A    between atoms: C_25  and  C_26
REMARK                            x       y       z     vdW  Elec       q    Type
REMARK                         _______ _______ _______ _____ _____    ______ ____
ROOT
ATOM      1  C   UNL     1      -3.693   3.676  -0.108  0.00  0.00    +0.109 A 
ATOM      2  C   UNL     1      -3.438   2.317  -0.145  0.00  0.00    +0.029 A 
ATOM      3  C   UNL     1      -2.140   1.858  -0.247  0.00  0.00    +0.015 A 
ATOM      4  C   UNL     1      -1.085   2.769  -0.313  0.00  0.00    +0.038 A 
ATOM      5  C   UNL     1      -1.349   4.139  -0.270  0.00  0.00    +0.015 A 
ATOM      6  C   UNL     1      -2.651   4.584  -0.173  0.00  0.00    +0.029 A 
ENDROOT
BRANCH   4   7
ATOM      7  C   UNL     1       0.308   2.284  -0.421  0.00  0.00    +0.260 C 
ATOM      8  O   UNL     1       0.535   1.091  -0.454  0.00  0.00    -0.269 OA
ATOM      9  N   UNL     1       1.325   3.166  -0.490  0.00  0.00    -0.230 N 
ATOM     10  H   UNL     1       1.143   4.119  -0.464  0.00  0.00    +0.173 HD
BRANCH   9  11
ATOM     11  N   UNL     1       2.644   2.707  -0.599  0.00  0.00    -0.234 N 
ATOM     12  C   UNL     1       3.661   3.589  -0.667  0.00  0.00    +0.230 C 
ATOM     13  O   UNL     1       3.434   4.780  -0.635  0.00  0.00    -0.274 OA
ATOM     14  H   UNL     1       2.826   1.755  -0.625  0.00  0.00    +0.173 HD
BRANCH  12  15
ATOM     15  C   UNL     1       5.080   3.095  -0.784  0.00  0.00    +0.104 C 
BRANCH  15  16
ATOM     16  C   UNL     1       6.033   4.291  -0.844  0.00  0.00    -0.020 C 
ATOM     17  C   UNL     1       5.691   5.154  -2.060  0.00  0.00    +0.011 C 
ATOM     18  C   UNL     1       6.644   6.350  -2.120  0.00  0.00    -0.010 C 
ATOM     19  C   UNL     1       8.085   5.849  -2.239  0.00  0.00    +0.007 C 
ATOM     20  C   UNL     1       8.426   4.985  -1.023  0.00  0.00    -0.010 C 
ATOM     21  C   UNL     1       7.473   3.789  -0.963  0.00  0.00    +0.011 C 
ATOM     22  C   UNL     1       8.280   5.818   0.252  0.00  0.00    +0.007 C 
ATOM     23  C   UNL     1       6.839   6.320   0.371  0.00  0.00    -0.010 C 
ATOM     24  C   UNL     1       6.498   7.183  -0.845  0.00  0.00    +0.007 C 
ATOM     25  C   UNL     1       5.886   5.124   0.431  0.00  0.00    +0.011 C 
ENDBRANCH  15  16
ENDBRANCH  12  15
ENDBRANCH   9  11
ENDBRANCH   4   7
BRANCH   1  26
ATOM     26  S   UNL     1      -5.352   4.254   0.022  0.00  0.00    +0.072 S 
ATOM     27  O   UNL     1      -5.344   5.612  -0.395  0.00  0.00    -0.150 OA
ATOM     28  O   UNL     1      -6.174   3.273  -0.596  0.00  0.00    -0.150 OA
BRANCH  26  29
ATOM     29  N   UNL     1      -5.745   4.255   1.631  0.00  0.00    -0.216 N 
ATOM     30  H   UNL     1      -6.454   3.678   1.957  0.00  0.00    +0.174 HD
BRANCH  29  34
ATOM     31  C   UNL     1      -3.691   6.734   4.277  0.00  0.00    +0.120 A 
ATOM     32  C   UNL     1      -4.620   7.275   3.401  0.00  0.00    +0.047 A 
ATOM     33  C   UNL     1      -5.301   6.454   2.523  0.00  0.00    +0.028 A 
ATOM     34  C   UNL     1      -5.055   5.087   2.519  0.00  0.00    +0.048 A 
ATOM     35  C   UNL     1      -4.129   4.546   3.401  0.00  0.00    +0.028 A 
ATOM     36  C   UNL     1      -3.444   5.369   4.273  0.00  0.00    +0.047 A 
BRANCH  31  38
ATOM     37  C   UNL     1      -2.078   6.920   6.016  0.00  0.00    +0.277 C 
ATOM     38  O   UNL     1      -3.020   7.543   5.141  0.00  0.00    -0.495 OA
ENDBRANCH  31  38
ENDBRANCH  29  34
ENDBRANCH  26  29
ENDBRANCH   1  26
TORSDOF 8
