REMARK  Name = ZINC20718343
REMARK  6 active torsions:
REMARK  status: ('A' for Active; 'I' for Inactive)
REMARK    1  A    between atoms: C_1  and  O_2
REMARK    2  A    between atoms: O_2  and  C_3
REMARK    3  A    between atoms: C_12  and  C_13
REMARK    4  A    between atoms: C_24  and  S_29
REMARK    5  A    between atoms: S_29  and  N_32
REMARK    6  A    between atoms: N_32  and  C_33
REMARK                            x       y       z     vdW  Elec       q    Type
REMARK                         _______ _______ _______ _____ _____    ______ ____
ROOT
ATOM      1  C   UNL     1      -1.981   2.456   3.487  0.00  0.00    +0.109 C 
ATOM      2  C   UNL     1      -3.140   1.670   2.900  0.00  0.00    +0.029 C 
ATOM      3  C   UNL     1      -3.463   0.315   3.545  0.00  0.00    +0.033 C 
ATOM      4  C   UNL     1      -4.049  -0.457   2.361  0.00  0.00    -0.030 C 
ATOM      5  C   UNL     1      -3.576   0.032   1.221  0.00  0.00    -0.023 C 
ATOM      6  C   UNL     1      -2.624   1.128   1.534  0.00  0.00    +0.049 C 
ATOM      7  C   UNL     1      -2.431   2.281   0.629  0.00  0.00    -0.018 A 
ATOM      8  C   UNL     1      -2.654   2.203  -0.729  0.00  0.00    +0.034 A 
ATOM      9  C   UNL     1      -2.420   3.299  -1.539  0.00  0.00    +0.106 A 
ATOM     10  C   UNL     1      -1.962   4.481  -0.987  0.00  0.00    +0.030 A 
ATOM     11  C   UNL     1      -1.745   4.573   0.372  0.00  0.00    +0.025 A 
ATOM     12  C   UNL     1      -1.983   3.480   1.197  0.00  0.00    +0.031 A 
ATOM     13  N   UNL     1      -1.772   3.602   2.575  0.00  0.00    -0.336 N 
ATOM     14  H   UNL     1      -1.445   4.572   2.977  0.00  0.00    +0.147 HD
ENDROOT
BRANCH   1  24
ATOM     15  C   UNL     1       0.189   1.679   2.542  0.00  0.00    +0.126 A 
ATOM     16  C   UNL     1       1.346   0.894   2.576  0.00  0.00    +0.046 A 
ATOM     17  C   UNL     1       1.571   0.025   3.598  0.00  0.00    +0.012 A 
ATOM     18  C   UNL     1       0.630  -0.088   4.637  0.00  0.00    -0.017 A 
ATOM     19  C   UNL     1       0.831  -0.975   5.708  0.00  0.00    +0.008 A 
ATOM     20  C   UNL     1      -0.101  -1.059   6.697  0.00  0.00    +0.001 A 
ATOM     21  C   UNL     1      -1.254  -0.277   6.665  0.00  0.00    +0.001 A 
ATOM     22  C   UNL     1      -1.483   0.593   5.643  0.00  0.00    +0.009 A 
ATOM     23  C   UNL     1      -0.543   0.707   4.604  0.00  0.00    -0.009 A 
ATOM     24  C   UNL     1      -0.743   1.598   3.537  0.00  0.00    +0.022 A 
BRANCH  15  26
ATOM     25  C   UNL     1       1.005   2.583   0.499  0.00  0.00    +0.277 C 
ATOM     26  O   UNL     1      -0.008   2.538   1.507  0.00  0.00    -0.495 OA
ENDBRANCH  15  26
ENDBRANCH   1  24
BRANCH   9  27
ATOM     27  S   UNL     1      -2.706   3.188  -3.274  0.00  0.00    +0.059 S 
ATOM     28  O   UNL     1      -1.893   4.182  -3.883  0.00  0.00    -0.153 OA
ATOM     29  O   UNL     1      -2.611   1.812  -3.615  0.00  0.00    -0.153 OA
BRANCH  27  30
ATOM     30  N   UNL     1      -4.278   3.635  -3.541  0.00  0.00    -0.187 NA
ATOM     31  H   UNL     1      -5.025   2.861  -3.773  0.00  0.00    +0.148 HD
BRANCH  30  32
ATOM     32  C   UNL     1      -4.709   5.006  -3.257  0.00  0.00    +0.077 C 
ATOM     33  C   UNL     1      -5.312   5.071  -1.853  0.00  0.00    +0.020 C 
ATOM     34  C   UNL     1      -5.761   6.503  -1.556  0.00  0.00    +0.002 C 
ATOM     35  C   UNL     1      -6.812   6.930  -2.582  0.00  0.00    +0.000 C 
ATOM     36  C   UNL     1      -6.209   6.866  -3.987  0.00  0.00    +0.002 C 
ATOM     37  C   UNL     1      -5.759   5.434  -4.284  0.00  0.00    +0.020 C 
ENDBRANCH  30  32
ENDBRANCH  27  30
ENDBRANCH   9  27
TORSDOF 5
