REMARK  Name = ZINC35711576
REMARK  13 active torsions:
REMARK  status: ('A' for Active; 'I' for Inactive)
REMARK    1  A    between atoms: C_1  and  C_2
REMARK    2  A    between atoms: C_2  and  C_3
REMARK    3  A    between atoms: C_3  and  N_4
REMARK    4  A    between atoms: C_5  and  C_39
REMARK    5  A    between atoms: C_6  and  C_32
REMARK    6  A    between atoms: C_7  and  C_12
REMARK    7  A    between atoms: C_15  and  N_18
REMARK    8  A    between atoms: N_21  and  C_22
REMARK    9  A    between atoms: C_32  and  O_34
REMARK   10  A    between atoms: O_34  and  C_35
REMARK   11  A    between atoms: C_35  and  C_36
REMARK   12  A    between atoms: C_36  and  O_37
REMARK   13  A    between atoms: O_37  and  C_38
REMARK                            x       y       z     vdW  Elec       q    Type
REMARK                         _______ _______ _______ _____ _____    ______ ____
ROOT
ATOM      1  C   UNL     1       0.349  -5.775  -0.026  0.00  0.00    -0.022 A 
ATOM      2  C   UNL     1      -0.388  -5.224   1.006  0.00  0.00    +0.007 A 
ATOM      3  C   UNL     1      -0.832  -6.023   2.042  0.00  0.00    +0.024 A 
ATOM      4  C   UNL     1      -0.538  -7.380   2.045  0.00  0.00    +0.035 A 
ATOM      5  C   UNL     1       0.203  -7.930   1.007  0.00  0.00    +0.024 A 
ATOM      6  C   UNL     1       0.639  -7.127  -0.028  0.00  0.00    +0.007 A 
ENDROOT
BRANCH   1  10
ATOM      7  N   UNL     1       0.962  -2.138  -1.135  0.00  0.00    -0.259 N 
ATOM      8  C   UNL     1       2.061  -2.824  -0.704  0.00  0.00    +0.024 C 
ATOM      9  C   UNL     1       2.076  -4.174  -0.683  0.00  0.00    +0.078 C 
ATOM     10  C   UNL     1       0.832  -4.901  -1.155  0.00  0.00    +0.143 C 
ATOM     11  N   UNL     1      -0.298  -4.068  -1.599  0.00  0.00    -0.288 N 
ATOM     12  C   UNL     1      -0.164  -2.728  -1.557  0.00  0.00    +0.307 C 
ATOM     13  O   UNL     1      -1.093  -2.032  -1.918  0.00  0.00    -0.252 OA
ATOM     14  C   UNL     1       3.277  -2.062  -0.243  0.00  0.00    +0.061 C 
ATOM     15  H   UNL     1      -1.122  -4.475  -1.912  0.00  0.00    +0.151 HD
BRANCH   9  16
ATOM     16  C   UNL     1       3.214  -4.886  -0.238  0.00  0.00    +0.339 C 
ATOM     17  O   UNL     1       4.202  -4.282   0.136  0.00  0.00    -0.245 OA
BRANCH  16  18
ATOM     18  O   UNL     1       3.204  -6.236  -0.227  0.00  0.00    -0.459 OA
BRANCH  18  19
ATOM     19  C   UNL     1       4.388  -6.889   0.235  0.00  0.00    +0.260 C 
BRANCH  19  20
ATOM     20  C   UNL     1       4.189  -8.405   0.175  0.00  0.00    +0.200 C 
BRANCH  20  21
ATOM     21  O   UNL     1       4.040  -8.813  -1.186  0.00  0.00    -0.380 OA
ATOM     22  C   UNL     1       3.848 -10.219  -1.355  0.00  0.00    +0.194 C 
ENDBRANCH  20  21
ENDBRANCH  19  20
ENDBRANCH  18  19
ENDBRANCH  16  18
ENDBRANCH   9  16
BRANCH   7  23
ATOM     23  C   UNL     1       1.015  -0.674  -1.130  0.00  0.00    +0.114 C 
BRANCH  23  25
ATOM     24  C   UNL     1       1.739   1.345  -2.411  0.00  0.00    +0.005 C 
ATOM     25  C   UNL     1       1.684  -0.183  -2.416  0.00  0.00    +0.016 C 
ENDBRANCH  23  25
ENDBRANCH   7  23
ENDBRANCH   1  10
BRANCH   4  26
ATOM     26  N   UNL     1      -0.986  -8.192   3.094  0.00  0.00    -0.269 N 
ATOM     27  C   UNL     1      -2.180  -7.950   3.670  0.00  0.00    +0.304 C 
ATOM     28  O   UNL     1      -2.832  -6.980   3.334  0.00  0.00    -0.252 OA
ATOM     29  N   UNL     1      -2.651  -8.782   4.619  0.00  0.00    -0.294 N 
ATOM     30  H   UNL     1      -0.438  -8.929   3.405  0.00  0.00    +0.156 HD
ATOM     31  H   UNL     1      -2.131  -9.556   4.887  0.00  0.00    +0.151 HD
BRANCH  29  32
ATOM     32  C   UNL     1      -3.949  -8.519   5.246  0.00  0.00    +0.037 C 
ATOM     33  C   UNL     1      -5.042  -8.522   4.176  0.00  0.00    +0.029 C 
ATOM     34  C   UNL     1      -6.397  -8.247   4.831  0.00  0.00    -0.008 C 
ATOM     35  C   UNL     1      -6.694  -9.334   5.866  0.00  0.00    +0.007 C 
ATOM     36  C   UNL     1      -5.600  -9.332   6.936  0.00  0.00    -0.008 C 
ATOM     37  C   UNL     1      -4.245  -9.607   6.281  0.00  0.00    +0.029 C 
ATOM     38  C   UNL     1      -5.566  -7.966   7.626  0.00  0.00    +0.007 C 
ATOM     39  C   UNL     1      -5.269  -6.879   6.591  0.00  0.00    -0.008 C 
ATOM     40  C   UNL     1      -6.363  -6.882   5.521  0.00  0.00    +0.007 C 
ATOM     41  C   UNL     1      -3.914  -7.154   5.937  0.00  0.00    +0.029 C 
ENDBRANCH  29  32
ENDBRANCH   4  26
TORSDOF 10
