REMARK  Name = ZINC05237245
REMARK  4 active torsions:
REMARK  status: ('A' for Active; 'I' for Inactive)
REMARK    1  A    between atoms: C_4  and  C_7
REMARK    2  A    between atoms: C_8  and  C_21
REMARK    3  A    between atoms: C_14  and  C_15
REMARK    4  A    between atoms: N_23  and  N_24
REMARK                            x       y       z     vdW  Elec       q    Type
REMARK                         _______ _______ _______ _____ _____    ______ ____
ROOT
ATOM      1  C   UNL     1      -2.491   1.286  -0.139  0.00  0.00    +0.027 A 
ATOM      2  C   UNL     1      -1.262   1.963  -0.208  0.00  0.00    +0.114 A 
ATOM      3  C   UNL     1      -1.282   3.373  -0.022  0.00  0.00    +0.278 A 
ATOM      4  O   UNL     1      -0.245   4.013  -0.065  0.00  0.00    -0.266 OA
ATOM      5  N   UNL     1      -2.455   3.994   0.198  0.00  0.00    -0.242 N 
ATOM      6  H   UNL     1      -2.459   4.986   0.320  0.00  0.00    +0.192 HD
ATOM      7  N   UNL     1      -3.568   3.360   0.258  0.00  0.00    -0.170 NA
ATOM      8  C   UNL     1      -3.659   2.061   0.105  0.00  0.00    +0.100 A 
ENDROOT
BRANCH   1  12
ATOM      9  C   UNL     1      -2.713  -2.925  -0.644  0.00  0.00    +0.000 A 
ATOM     10  C   UNL     1      -2.107  -2.397   0.483  0.00  0.00    +0.001 A 
ATOM     11  C   UNL     1      -2.031  -1.030   0.653  0.00  0.00    +0.008 A 
ATOM     12  C   UNL     1      -2.568  -0.179  -0.315  0.00  0.00    -0.015 A 
ATOM     13  C   UNL     1      -3.184  -0.718  -1.446  0.00  0.00    +0.008 A 
ATOM     14  C   UNL     1      -3.247  -2.087  -1.607  0.00  0.00    +0.001 A 
ENDBRANCH   1  12
BRANCH   8  15
ATOM     15  C   UNL     1      -4.982   1.397   0.187  0.00  0.00    +0.003 A 
ATOM     16  C   UNL     1      -6.113   2.026  -0.331  0.00  0.00    +0.010 A 
ATOM     17  C   UNL     1      -7.342   1.401  -0.257  0.00  0.00    +0.001 A 
ATOM     18  C   UNL     1      -7.454   0.159   0.341  0.00  0.00    +0.000 A 
ATOM     19  C   UNL     1      -6.335  -0.467   0.862  0.00  0.00    +0.001 A 
ATOM     20  C   UNL     1      -5.101   0.145   0.788  0.00  0.00    +0.010 A 
ENDBRANCH   8  15
BRANCH   2  21
ATOM     21  C   UNL     1      -0.005   1.242  -0.457  0.00  0.00    +0.269 C 
ATOM     22  O   UNL     1      -0.026   0.054  -0.716  0.00  0.00    -0.268 OA
ATOM     23  N   UNL     1       1.171   1.899  -0.403  0.00  0.00    -0.203 N 
ATOM     24  H   UNL     1       1.184   2.860  -0.267  0.00  0.00    +0.178 HD
BRANCH  23  25
ATOM     25  N   UNL     1       2.374   1.195  -0.542  0.00  0.00    -0.189 NA
ATOM     26  C   UNL     1       3.490   1.819  -0.491  0.00  0.00    +0.037 C 
ATOM     27  C   UNL     1       3.678   3.308  -0.293  0.00  0.00    +0.052 C 
ATOM     28  C   UNL     1       5.198   3.574  -0.309  0.00  0.00    +0.006 C 
ATOM     29  C   UNL     1       5.771   2.371  -1.100  0.00  0.00    +0.006 C 
ATOM     30  C   UNL     1       4.872   1.203  -0.624  0.00  0.00    +0.052 C 
ENDBRANCH  23  25
ENDBRANCH   2  21
TORSDOF 4
