REMARK  Name = ZINC50115817
REMARK  4 active torsions:
REMARK  status: ('A' for Active; 'I' for Inactive)
REMARK    1  A    between atoms: C_5  and  C_13
REMARK    2  A    between atoms: C_13  and  N_14
REMARK    3  A    between atoms: C_18  and  C_20
REMARK    4  A    between atoms: C_20  and  O_21
REMARK                            x       y       z     vdW  Elec       q    Type
REMARK                         _______ _______ _______ _____ _____    ______ ____
ROOT
ATOM      1  C   UNL     1      -0.017   1.398   0.010  0.00  0.00    +0.020 A 
ATOM      2  C   UNL     1       1.159   2.087   0.002  0.00  0.00    +0.048 A 
ATOM      3  C   UNL     1       2.375   1.379  -0.013  0.00  0.00    +0.140 A 
ATOM      4  N   UNL     1       3.525   2.050  -0.020  0.00  0.00    -0.236 NA
ATOM      5  C   UNL     1       4.690   1.421  -0.035  0.00  0.00    +0.032 A 
ATOM      6  C   UNL     1       4.730   0.041  -0.043  0.00  0.00    +0.092 A 
ATOM      7  C   UNL     1       3.526  -0.672  -0.035  0.00  0.00    +0.258 A 
ATOM      8  O   UNL     1       3.527  -1.893  -0.042  0.00  0.00    -0.267 OA
ATOM      9  N   UNL     1       2.362   0.012  -0.020  0.00  0.00    -0.267 N 
ATOM     10  C   UNL     1       1.181  -0.667  -0.011  0.00  0.00    +0.111 A 
ATOM     11  C   UNL     1       0.002  -0.004   0.002  0.00  0.00    +0.035 A 
ATOM     12 BR   UNL     1      -1.624  -0.970   0.012  0.00  0.00    -0.049 Br
ENDROOT
BRANCH   5  13
ATOM     13  C   UNL     1       5.973   2.212  -0.043  0.00  0.00    -0.022 C 
BRANCH  13  14
ATOM     14  N   UNL     1       6.070   2.974  -1.296  0.00  0.00    +0.387 N 
ATOM     15  C   UNL     1       6.202   2.042  -2.436  0.00  0.00    -0.078 C 
ATOM     16  C   UNL     1       7.162   2.755  -3.420  0.00  0.00    -0.020 C 
ATOM     17  C   UNL     1       8.159   3.437  -2.447  0.00  0.00    -0.015 C 
ATOM     18  C   UNL     1       7.262   3.841  -1.258  0.00  0.00    -0.042 C 
ATOM     19  H   UNL     1       5.243   3.539  -1.415  0.00  0.00    -0.081 HD
BRANCH  18  20
ATOM     20  C   UNL     1       6.845   5.306  -1.394  0.00  0.00    +0.140 C 
BRANCH  20  21
ATOM     21  O   UNL     1       6.269   5.519  -2.684  0.00  0.00    -0.397 OA
ATOM     22  H   UNL     1       5.981   6.429  -2.841  0.00  0.00    +0.209 HD
ENDBRANCH  20  21
ENDBRANCH  18  20
ENDBRANCH  13  14
ENDBRANCH   5  13
TORSDOF 4
