REMARK  Name = ZINC09209441
REMARK  2 active torsions:
REMARK  status: ('A' for Active; 'I' for Inactive)
REMARK    1  A    between atoms: C_6  and  C_7
REMARK    2  A    between atoms: C_10  and  C_31
REMARK                            x       y       z     vdW  Elec       q    Type
REMARK                         _______ _______ _______ _____ _____    ______ ____
ROOT
ATOM      1  C   UNL     1      -1.293  -0.775   0.011  0.00  0.00    +0.106 C 
ATOM      2  C   UNL     1      -1.588  -1.269   1.431  0.00  0.00    +0.058 C 
ATOM      3  C   UNL     1      -0.421  -2.127   1.935  0.00  0.00    +0.143 C 
ATOM      4  N   UNL     1      -0.088  -3.118   0.912  0.00  0.00    -0.224 N 
ATOM      5  C   UNL     1      -0.449  -3.021  -0.391  0.00  0.00    +0.216 A 
ATOM      6  N   UNL     1       0.007  -4.072  -1.018  0.00  0.00    -0.179 NA
ATOM      7  C   UNL     1       0.664  -4.858  -0.153  0.00  0.00    +0.251 A 
ATOM      8  N   UNL     1       0.628  -4.308   1.039  0.00  0.00    -0.131 NA
ATOM      9  N   UNL     1       1.288  -6.072  -0.471  0.00  0.00    -0.176 N 
ATOM     10  C   UNL     1       1.931  -6.828   0.440  0.00  0.00    +0.233 C 
ATOM     11  O   UNL     1       1.892  -6.692   1.644  0.00  0.00    -0.274 OA
ATOM     12  C   UNL     1       2.722  -7.897  -0.332  0.00  0.00    +0.092 C 
ATOM     13  C   UNL     1       4.072  -7.242  -0.635  0.00  0.00    +0.040 C 
ATOM     14  C   UNL     1       4.645  -7.651  -1.948  0.00  0.00    -0.030 C 
ATOM     15  C   UNL     1       3.976  -8.199  -2.907  0.00  0.00    -0.030 C 
ATOM     16  C   UNL     1       2.525  -8.546  -2.803  0.00  0.00    +0.040 C 
ATOM     17  C   UNL     1       1.841  -7.987  -1.590  0.00  0.00    +0.092 C 
ATOM     18  C   UNL     1       1.294  -6.594  -1.718  0.00  0.00    +0.233 C 
ATOM     19  O   UNL     1       0.933  -6.047  -2.737  0.00  0.00    -0.274 OA
ATOM     20  N   UNL     1      -1.180  -1.943  -0.884  0.00  0.00    -0.307 N 
ATOM     21  H   UNL     1      -1.593  -1.958  -1.761  0.00  0.00    +0.149 HD
ENDROOT
BRANCH   1  27
ATOM     22  C   UNL     1      -0.017   1.378   0.010  0.00  0.00    +0.007 A 
ATOM     23  C   UNL     1       1.171   2.086   0.002  0.00  0.00    +0.020 A 
ATOM     24  C   UNL     1       2.378   1.410  -0.013  0.00  0.00    +0.041 A 
ATOM     25  C   UNL     1       2.396   0.027  -0.021  0.00  0.00    +0.020 A 
ATOM     26  C   UNL     1       1.208  -0.679  -0.013  0.00  0.00    +0.007 A 
ATOM     27  C   UNL     1       0.002  -0.004   0.002  0.00  0.00    -0.027 A 
ATOM     28 CL   UNL     1       3.870   2.298  -0.023  0.00  0.00    -0.084 Cl
ENDBRANCH   1  27
BRANCH   3  29
ATOM     29  C   UNL     1      -0.820  -2.826   3.208  0.00  0.00    -0.023 A 
ATOM     30  C   UNL     1      -1.893  -3.698   3.211  0.00  0.00    +0.007 A 
ATOM     31  C   UNL     1      -2.260  -4.340   4.378  0.00  0.00    +0.020 A 
ATOM     32  C   UNL     1      -1.553  -4.109   5.545  0.00  0.00    +0.041 A 
ATOM     33  C   UNL     1      -0.480  -3.236   5.543  0.00  0.00    +0.020 A 
ATOM     34  C   UNL     1      -0.111  -2.599   4.373  0.00  0.00    +0.007 A 
ATOM     35 CL   UNL     1      -2.014  -4.915   7.013  0.00  0.00    -0.084 Cl
ENDBRANCH   3  29
TORSDOF 2
