REMARK  Name = ZINC36093625
REMARK  6 active torsions:
REMARK  status: ('A' for Active; 'I' for Inactive)
REMARK    1  A    between atoms: C_1  and  N_2
REMARK    2  A    between atoms: C_10  and  O_30
REMARK    3  A    between atoms: C_12  and  C_15
REMARK    4  A    between atoms: C_19  and  O_21
REMARK    5  A    between atoms: O_21  and  C_22
REMARK    6  A    between atoms: C_22  and  C_24
REMARK                            x       y       z     vdW  Elec       q    Type
REMARK                         _______ _______ _______ _____ _____    ______ ____
ROOT
ATOM      1  C   UNL     1      -0.593   1.268   0.221  0.00  0.00    -0.096 C 
ATOM      2  N   UNL     1      -0.466  -0.195   0.187  0.00  0.00    +0.381 N 
ATOM      3  C   UNL     1      -1.802  -0.803   0.230  0.00  0.00    -0.074 C 
ATOM      4  C   UNL     1      -1.717  -2.293  -0.116  0.00  0.00    +0.018 C 
ATOM      5  C   UNL     1      -0.660  -2.923   0.781  0.00  0.00    -0.027 A 
ATOM      6  C   UNL     1       0.237  -2.138   1.425  0.00  0.00    -0.021 A 
ATOM      7  S   UNL     1       1.251  -3.268   2.336  0.00  0.00    -0.080 S 
ATOM      8  C   UNL     1       0.537  -4.697   1.891  0.00  0.00    +0.080 A 
ATOM      9  C   UNL     1      -0.510  -4.342   1.031  0.00  0.00    +0.067 A 
ATOM     10  C   UNL     1      -1.346  -5.441   0.481  0.00  0.00    +0.220 C 
ATOM     11  N   UNL     1      -0.912  -6.663   0.625  0.00  0.00    -0.223 NA
ATOM     12  C   UNL     1       0.365  -7.021   1.229  0.00  0.00    +0.224 C 
ATOM     13  N   UNL     1       0.805  -6.010   2.208  0.00  0.00    -0.313 N 
ATOM     14  C   UNL     1       0.320  -0.647   1.350  0.00  0.00    -0.036 C 
ATOM     15  H   UNL     1       1.259  -6.255   3.029  0.00  0.00    +0.149 HD
ATOM     16  H   UNL     1       0.002  -0.473  -0.662  0.00  0.00    -0.082 HD
ENDROOT
BRANCH  12  17
ATOM     17  C   UNL     1       1.406  -7.140   0.146  0.00  0.00    -0.002 A 
ATOM     18  C   UNL     1       2.731  -6.860   0.426  0.00  0.00    +0.007 A 
ATOM     19  C   UNL     1       3.688  -6.969  -0.565  0.00  0.00    +0.004 A 
ATOM     20  C   UNL     1       3.323  -7.358  -1.840  0.00  0.00    +0.046 A 
ATOM     21  C   UNL     1       1.995  -7.639  -2.124  0.00  0.00    +0.132 A 
ATOM     22  C   UNL     1       1.037  -7.534  -1.125  0.00  0.00    +0.053 A 
BRANCH  21  23
ATOM     23  O   UNL     1       1.633  -8.022  -3.377  0.00  0.00    -0.422 OA
BRANCH  23  24
ATOM     24  C   UNL     1       2.031  -9.235  -3.807  0.00  0.00    +0.344 C 
ATOM     25  O   UNL     1       2.603  -9.992  -3.048  0.00  0.00    -0.245 OA
BRANCH  24  26
ATOM     26  C   UNL     1       1.774  -9.645  -5.203  0.00  0.00    +0.059 A 
ATOM     27  C   UNL     1       1.122  -8.775  -6.080  0.00  0.00    +0.015 A 
ATOM     28  C   UNL     1       0.884  -9.164  -7.382  0.00  0.00    +0.001 A 
ATOM     29  C   UNL     1       1.290 -10.412  -7.819  0.00  0.00    +0.000 A 
ATOM     30  C   UNL     1       1.937 -11.279  -6.956  0.00  0.00    +0.001 A 
ATOM     31  C   UNL     1       2.185 -10.901  -5.653  0.00  0.00    +0.015 A 
ENDBRANCH  24  26
ENDBRANCH  23  24
ENDBRANCH  21  23
ENDBRANCH  12  17
BRANCH  10  32
ATOM     32  O   UNL     1      -2.517  -5.183  -0.145  0.00  0.00    -0.492 OA
ATOM     33  H   UNL     1      -2.976  -5.973  -0.462  0.00  0.00    +0.294 HD
ENDBRANCH  10  32
TORSDOF 5
