REMARK  Name = ZINC09570754
REMARK  9 active torsions:
REMARK  status: ('A' for Active; 'I' for Inactive)
REMARK    1  A    between atoms: C_1  and  C_2
REMARK    2  A    between atoms: C_2  and  C_3
REMARK    3  A    between atoms: C_2  and  C_4
REMARK    4  A    between atoms: C_4  and  C_6
REMARK    5  A    between atoms: C_4  and  S_12
REMARK    6  A    between atoms: S_12  and  C_13
REMARK    7  A    between atoms: C_16  and  C_25
REMARK    8  A    between atoms: N_17  and  C_18
REMARK    9  A    between atoms: C_25  and  C_26
REMARK                            x       y       z     vdW  Elec       q    Type
REMARK                         _______ _______ _______ _____ _____    ______ ____
ROOT
ATOM      1  C   UNL     1      -4.021   0.979   3.193  0.00  0.00    +0.197 A 
ATOM      2  N   UNL     1      -3.237  -0.069   3.300  0.00  0.00    -0.122 NA
ATOM      3  N   UNL     1      -2.753  -0.372   2.149  0.00  0.00    -0.133 NA
ATOM      4  C   UNL     1      -3.187   0.461   1.246  0.00  0.00    +0.143 A 
ATOM      5  N   UNL     1      -4.014   1.351   1.877  0.00  0.00    -0.274 N 
ENDROOT
BRANCH   5   6
ATOM      6  C   UNL     1      -4.710   2.422   1.295  0.00  0.00    +0.050 A 
ATOM      7  C   UNL     1      -4.012   3.503   0.775  0.00  0.00    +0.028 A 
ATOM      8  C   UNL     1      -4.698   4.554   0.198  0.00  0.00    +0.022 A 
ATOM      9  C   UNL     1      -6.081   4.534   0.148  0.00  0.00    +0.041 A 
ATOM     10  C   UNL     1      -6.779   3.460   0.671  0.00  0.00    +0.022 A 
ATOM     11  C   UNL     1      -6.097   2.405   1.244  0.00  0.00    +0.028 A 
ATOM     12 CL   UNL     1      -6.941   5.860  -0.571  0.00  0.00    -0.084 Cl
ENDBRANCH   5   6
BRANCH   1  13
ATOM     13  S   UNL     1      -4.913   1.758   4.498  0.00  0.00    -0.073 S 
BRANCH  13  14
ATOM     14  C   UNL     1      -4.477   0.664   5.873  0.00  0.00    +0.143 C 
BRANCH  14  15
ATOM     15  C   UNL     1      -3.015   0.829   6.201  0.00  0.00    +0.234 C 
ATOM     16  O   UNL     1      -2.445   1.864   5.928  0.00  0.00    -0.274 OA
ATOM     17  N   UNL     1      -2.342  -0.174   6.799  0.00  0.00    -0.239 N 
ATOM     18  C   UNL     1      -1.034  -0.027   7.092  0.00  0.00    +0.303 C 
ATOM     19  O   UNL     1      -0.463   1.010   6.818  0.00  0.00    -0.253 OA
ATOM     20  N   UNL     1      -0.361  -1.030   7.690  0.00  0.00    -0.313 N 
ATOM     21  H   UNL     1      -2.798  -1.002   7.018  0.00  0.00    +0.159 HD
ATOM     22  H   UNL     1      -0.817  -1.857   7.909  0.00  0.00    +0.146 HD
ATOM     23  H   UNL     1       0.580  -0.924   7.901  0.00  0.00    +0.146 HD
ENDBRANCH  14  15
BRANCH  14  25
ATOM     24  C   UNL     1      -6.802   0.849   6.769  0.00  0.00    +0.009 C 
ATOM     25  C   UNL     1      -5.318   1.026   7.099  0.00  0.00    +0.005 C 
ATOM     26  C   UNL     1      -4.942   0.108   8.264  0.00  0.00    +0.009 C 
ENDBRANCH  14  25
ENDBRANCH  13  14
ENDBRANCH   1  13
BRANCH   4  27
ATOM     27  C   UNL     1      -2.847   0.444  -0.223  0.00  0.00    +0.111 C 
BRANCH  27  28
ATOM     28  C   UNL     1      -3.753  -0.526  -0.937  0.00  0.00    -0.040 A 
ATOM     29  C   UNL     1      -4.919  -0.075  -1.528  0.00  0.00    +0.004 A 
ATOM     30  C   UNL     1      -5.747  -0.964  -2.188  0.00  0.00    +0.000 A 
ATOM     31  C   UNL     1      -5.413  -2.303  -2.252  0.00  0.00    +0.000 A 
ATOM     32  C   UNL     1      -4.250  -2.755  -1.657  0.00  0.00    +0.000 A 
ATOM     33  C   UNL     1      -3.421  -1.866  -0.997  0.00  0.00    +0.004 A 
ENDBRANCH  27  28
ENDBRANCH   4  27
TORSDOF 7
