REMARK  Name = ZINC09264114
REMARK  8 active torsions:
REMARK  status: ('A' for Active; 'I' for Inactive)
REMARK    1  A    between atoms: C_1  and  C_2
REMARK    2  A    between atoms: C_2  and  C_3
REMARK    3  A    between atoms: C_9  and  C_28
REMARK    4  A    between atoms: C_10  and  C_13
REMARK    5  A    between atoms: N_11  and  C_12
REMARK    6  A    between atoms: N_15  and  C_16
REMARK    7  A    between atoms: C_16  and  C_17
REMARK    8  A    between atoms: C_17  and  C_18
REMARK                            x       y       z     vdW  Elec       q    Type
REMARK                         _______ _______ _______ _____ _____    ______ ____
ROOT
ATOM      1  C   UNL     1       4.019   1.192   6.985  0.00  0.00    +0.261 C 
ATOM      2  O   UNL     1       5.147   0.776   6.801  0.00  0.00    -0.269 OA
ATOM      3  N   UNL     1       3.708   1.807   8.144  0.00  0.00    -0.310 N 
ATOM      4  H   UNL     1       2.792   2.071   8.322  0.00  0.00    +0.149 HD
ENDROOT
BRANCH   1  12
ATOM      5  C   UNL     1       0.028   1.064   2.460  0.00  0.00    -0.047 A 
ATOM      6  C   UNL     1      -0.372  -0.121   3.066  0.00  0.00    +0.005 A 
ATOM      7  C   UNL     1       0.261  -0.578   4.200  0.00  0.00    +0.027 A 
ATOM      8  C   UNL     1       1.304   0.158   4.755  0.00  0.00    +0.050 A 
ATOM      9  C   UNL     1       1.704   1.362   4.142  0.00  0.00    +0.004 A 
ATOM     10  C   UNL     1       1.048   1.803   2.985  0.00  0.00    +0.014 A 
ATOM     11  C   UNL     1       2.770   1.884   4.915  0.00  0.00    -0.013 A 
ATOM     12  C   UNL     1       2.994   1.025   5.944  0.00  0.00    +0.108 A 
ATOM     13  N   UNL     1       2.106  -0.029   5.855  0.00  0.00    -0.339 N 
ATOM     14  C   UNL     1       2.032  -1.161   6.782  0.00  0.00    +0.149 C 
ATOM     15  C   UNL     1       3.521   3.162   4.644  0.00  0.00    +0.047 C 
BRANCH   5  17
ATOM     16  C   UNL     1       0.032   0.975  -0.018  0.00  0.00    +0.009 C 
ATOM     17  C   UNL     1      -0.675   1.541   1.216  0.00  0.00    +0.032 C 
ENDBRANCH   5  17
ENDBRANCH   1  12
BRANCH   3  18
ATOM     18  C   UNL     1       4.754   2.077   9.133  0.00  0.00    +0.109 C 
BRANCH  18  19
ATOM     19  C   UNL     1       4.139   2.777  10.347  0.00  0.00    +0.056 C 
BRANCH  19  20
ATOM     20  C   UNL     1       5.215   3.055  11.365  0.00  0.00    -0.021 A 
ATOM     21  C   UNL     1       5.532   2.289  12.421  0.00  0.00    +0.087 A 
ATOM     22  N   UNL     1       6.561   2.860  13.119  0.00  0.00    -0.360 N 
ATOM     23  H   UNL     1       6.965   2.490  13.920  0.00  0.00    +0.165 HD
ATOM     24  C   UNL     1       6.937   4.041  12.518  0.00  0.00    +0.047 A 
ATOM     25  C   UNL     1       6.110   4.215  11.393  0.00  0.00    +0.003 A 
ATOM     26  C   UNL     1       6.265   5.340  10.582  0.00  0.00    +0.010 A 
ATOM     27  C   UNL     1       7.221   6.268  10.885  0.00  0.00    +0.001 A 
ATOM     28  C   UNL     1       8.039   6.102  11.994  0.00  0.00    +0.002 A 
ATOM     29  C   UNL     1       7.903   4.998  12.808  0.00  0.00    +0.026 A 
ENDBRANCH  19  20
ENDBRANCH  18  19
ENDBRANCH   3  18
TORSDOF 5
