REMARK  Name = ZINC16498436
REMARK  5 active torsions:
REMARK  status: ('A' for Active; 'I' for Inactive)
REMARK    1  A    between atoms: C_1  and  C_2
REMARK    2  A    between atoms: C_10  and  C_11
REMARK    3  A    between atoms: N_13  and  N_14
REMARK    4  A    between atoms: C_15  and  C_17
REMARK    5  A    between atoms: N_19  and  C_26
REMARK                            x       y       z     vdW  Elec       q    Type
REMARK                         _______ _______ _______ _____ _____    ______ ____
ROOT
ATOM      1  C   UNL     1       2.995   5.447   0.002  0.00  0.00    +0.267 C 
ATOM      2  O   UNL     1       2.139   6.312   0.015  0.00  0.00    -0.268 OA
ATOM      3  N   UNL     1       4.298   5.788  -0.009  0.00  0.00    -0.230 N 
ATOM      4  H   UNL     1       4.980   5.099  -0.019  0.00  0.00    +0.173 HD
ENDROOT
BRANCH   1  14
ATOM      5  C   UNL     1       0.150   4.394   0.025  0.00  0.00    +0.046 C 
ATOM      6  C   UNL     1       1.357   3.493   0.008  0.00  0.00    -0.023 A 
ATOM      7  C   UNL     1       1.193   2.096   0.002  0.00  0.00    -0.007 A 
ATOM      8  C   UNL     1      -0.016   1.353   0.009  0.00  0.00    +0.009 A 
ATOM      9  C   UNL     1       0.002  -0.004   0.002  0.00  0.00    +0.001 A 
ATOM     10  C   UNL     1       1.195  -0.717  -0.014  0.00  0.00    +0.001 A 
ATOM     11  C   UNL     1       2.394  -0.034  -0.021  0.00  0.00    +0.015 A 
ATOM     12  C   UNL     1       2.392   1.344  -0.013  0.00  0.00    +0.020 A 
ATOM     13  S   UNL     1       3.659   2.588  -0.019  0.00  0.00    -0.083 S 
ATOM     14  C   UNL     1       2.606   4.029  -0.001  0.00  0.00    +0.079 A 
ENDBRANCH   1  14
BRANCH   3  15
ATOM     15  N   UNL     1       4.668   7.140  -0.005  0.00  0.00    -0.230 N 
ATOM     16  C   UNL     1       5.972   7.481  -0.016  0.00  0.00    +0.262 C 
ATOM     17  O   UNL     1       6.828   6.616  -0.029  0.00  0.00    -0.269 OA
ATOM     18  H   UNL     1       3.986   7.829   0.005  0.00  0.00    +0.173 HD
BRANCH  16  19
ATOM     19  C   UNL     1       6.360   8.898  -0.013  0.00  0.00    +0.063 A 
ATOM     20  C   UNL     1       5.522   9.974   0.001  0.00  0.00    +0.099 A 
ATOM     21  N   UNL     1       6.246  11.119   0.000  0.00  0.00    -0.349 N 
ATOM     22  C   UNL     1       7.596  10.835  -0.015  0.00  0.00    +0.050 A 
ATOM     23  C   UNL     1       7.732   9.438  -0.018  0.00  0.00    +0.012 A 
ATOM     24  C   UNL     1       8.999   8.859  -0.039  0.00  0.00    +0.011 A 
ATOM     25  C   UNL     1      10.117   9.665  -0.046  0.00  0.00    +0.001 A 
ATOM     26  C   UNL     1       9.984  11.046  -0.037  0.00  0.00    +0.002 A 
ATOM     27  C   UNL     1       8.736  11.632  -0.021  0.00  0.00    +0.026 A 
ATOM     28  C   UNL     1       5.676  12.469   0.013  0.00  0.00    +0.149 C 
ENDBRANCH  16  19
ENDBRANCH   3  15
TORSDOF 3
