REMARK  Name = ZINC30819191
REMARK  11 active torsions:
REMARK  status: ('A' for Active; 'I' for Inactive)
REMARK    1  A    between atoms: C_1  and  C_2
REMARK    2  A    between atoms: C_9  and  C_34
REMARK    3  A    between atoms: C_10  and  C_17
REMARK    4  A    between atoms: C_15  and  C_16
REMARK    5  A    between atoms: C_17  and  C_18
REMARK    6  A    between atoms: C_18  and  C_19
REMARK    7  A    between atoms: N_21  and  C_22
REMARK    8  A    between atoms: C_22  and  C_23
REMARK    9  A    between atoms: C_23  and  C_24
REMARK   10  A    between atoms: C_27  and  S_30
REMARK   11  A    between atoms: S_30  and  N_33
REMARK                            x       y       z     vdW  Elec       q    Type
REMARK                         _______ _______ _______ _____ _____    ______ ____
ROOT
ATOM      1  C   UNL     1      -0.013   1.086   0.008  0.00  0.00    +0.100 C 
ENDROOT
BRANCH   1   2
ATOM      2  C   UNL     1      -0.742   1.585  -1.213  0.00  0.00    +0.213 C 
ATOM      3  O   UNL     1      -1.736   2.268  -1.088  0.00  0.00    -0.276 OA
ATOM      4  N   UNL     1      -0.288   1.272  -2.443  0.00  0.00    -0.315 N 
ATOM      5  H   UNL     1       0.614   0.653  -2.556  0.00  0.00    +0.149 HD
BRANCH   4   6
ATOM      6  C   UNL     1      -0.997   1.758  -3.630  0.00  0.00    +0.109 C 
BRANCH   6   7
ATOM      7  C   UNL     1      -0.281   1.264  -4.889  0.00  0.00    +0.054 C 
BRANCH   7   8
ATOM      8  C   UNL     1      -1.010   1.763  -6.110  0.00  0.00    -0.046 A 
ATOM      9  C   UNL     1      -2.018   1.003  -6.672  0.00  0.00    +0.005 A 
ATOM     10  C   UNL     1      -2.690   1.463  -7.789  0.00  0.00    +0.029 A 
ATOM     11  C   UNL     1      -2.347   2.679  -8.350  0.00  0.00    +0.105 A 
ATOM     12  C   UNL     1      -1.335   3.437  -7.791  0.00  0.00    +0.029 A 
ATOM     13  C   UNL     1      -0.666   2.979  -6.671  0.00  0.00    +0.005 A 
BRANCH  11  14
ATOM     14  S   UNL     1      -3.200   3.263  -9.776  0.00  0.00    +0.056 S 
ATOM     15  O   UNL     1      -4.468   2.624  -9.781  0.00  0.00    -0.153 OA
ATOM     16  O   UNL     1      -3.059   4.677  -9.783  0.00  0.00    -0.153 OA
BRANCH  14  17
ATOM     17  N   UNL     1      -2.381   2.701 -11.101  0.00  0.00    -0.204 NA
ATOM     18  H   UNL     1      -2.884   3.045 -12.017  0.00  0.00    +0.144 HD
ATOM     19  H   UNL     1      -2.365   1.601 -11.083  0.00  0.00    +0.144 HD
ENDBRANCH  14  17
ENDBRANCH  11  14
ENDBRANCH   7   8
ENDBRANCH   6   7
ENDBRANCH   4   6
ENDBRANCH   1   2
BRANCH   1  20
ATOM     20  C   UNL     1      -0.729   1.579   1.267  0.00  0.00    +0.052 C 
BRANCH  20  30
ATOM     21  C   UNL     1      -0.151  -4.531   6.723  0.00  0.00    +0.047 C 
ATOM     22  C   UNL     1       0.771  -3.344   6.842  0.00  0.00    -0.005 A 
ATOM     23  C   UNL     1       1.716  -3.151   7.769  0.00  0.00    +0.199 A 
ATOM     24  O   UNL     1       2.341  -1.978   7.560  0.00  0.00    -0.462 OA
ATOM     25  C   UNL     1       1.833  -1.345   6.483  0.00  0.00    +0.141 A 
ATOM     26  C   UNL     1       0.812  -2.167   5.963  0.00  0.00    +0.024 A 
ATOM     27  C   UNL     1       0.097  -1.775   4.840  0.00  0.00    +0.023 A 
ATOM     28  C   UNL     1       0.400  -0.559   4.228  0.00  0.00    +0.022 A 
ATOM     29  C   UNL     1      -0.340  -0.111   3.043  0.00  0.00    -0.030 A 
ATOM     30  C   UNL     1       0.000   1.080   2.488  0.00  0.00    +0.041 A 
ATOM     31  C   UNL     1       1.033   1.852   3.060  0.00  0.00    +0.341 A 
ATOM     32  O   UNL     1       1.325   2.921   2.553  0.00  0.00    -0.245 OA
ATOM     33  O   UNL     1       1.704   1.441   4.147  0.00  0.00    -0.422 OA
ATOM     34  C   UNL     1       1.421   0.263   4.748  0.00  0.00    +0.146 A 
ATOM     35  C   UNL     1       2.127  -0.137   5.869  0.00  0.00    +0.035 A 
ATOM     36  C   UNL     1       3.219   0.742   6.423  0.00  0.00    +0.051 C 
ATOM     37  C   UNL     1      -1.443  -0.952   2.456  0.00  0.00    +0.045 C 
ENDBRANCH  20  30
ENDBRANCH   1  20
TORSDOF 8
