REMARK  Name = ZINC40051412
REMARK  7 active torsions:
REMARK  status: ('A' for Active; 'I' for Inactive)
REMARK    1  A    between atoms: C_1  and  C_2
REMARK    2  A    between atoms: C_2  and  C_3
REMARK    3  A    between atoms: C_8  and  N_9
REMARK    4  A    between atoms: C_12  and  C_17
REMARK    5  A    between atoms: C_17  and  S_18
REMARK    6  A    between atoms: S_18  and  C_19
REMARK    7  A    between atoms: C_19  and  C_20
REMARK                            x       y       z     vdW  Elec       q    Type
REMARK                         _______ _______ _______ _____ _____    ______ ____
ROOT
ATOM      1  N   UNL     1      -1.506  -0.315  -2.391  0.00  0.00    -0.283 N 
ATOM      2  C   UNL     1      -2.164  -0.547  -3.583  0.00  0.00    +0.224 A 
ATOM      3  N   UNL     1      -1.548  -0.315  -4.740  0.00  0.00    -0.198 NA
ATOM      4  C   UNL     1      -2.176  -0.536  -5.881  0.00  0.00    +0.146 A 
ATOM      5  N   UNL     1      -3.418  -0.988  -5.879  0.00  0.00    -0.199 NA
ATOM      6  C   UNL     1      -4.041  -1.222  -4.726  0.00  0.00    +0.217 A 
ATOM      7  N   UNL     1      -3.410  -1.006  -3.576  0.00  0.00    -0.181 NA
ATOM      8  N   UNL     1      -5.338  -1.694  -4.724  0.00  0.00    -0.327 N 
ATOM      9  H   UNL     1      -0.569  -0.065  -2.395  0.00  0.00    +0.155 HD
ATOM     10  H   UNL     1      -5.796  -1.856  -5.564  0.00  0.00    +0.145 HD
ATOM     11  H   UNL     1      -5.791  -1.865  -3.884  0.00  0.00    +0.145 HD
ENDROOT
BRANCH   1  17
ATOM     12  C   UNL     1      -1.509  -0.816  -0.029  0.00  0.00    -0.026 A 
ATOM     13  C   UNL     1      -2.188  -0.933   1.169  0.00  0.00    +0.005 A 
ATOM     14  C   UNL     1      -3.546  -0.681   1.222  0.00  0.00    +0.000 A 
ATOM     15  C   UNL     1      -4.230  -0.312   0.078  0.00  0.00    +0.002 A 
ATOM     16  C   UNL     1      -3.557  -0.193  -1.122  0.00  0.00    +0.023 A 
ATOM     17  C   UNL     1      -2.191  -0.440  -1.178  0.00  0.00    +0.037 A 
BRANCH  12  19
ATOM     18  C   UNL     1       0.740   0.224   0.065  0.00  0.00    +0.009 C 
ATOM     19  C   UNL     1      -0.028  -1.090  -0.086  0.00  0.00    +0.033 C 
ENDBRANCH  12  19
ENDBRANCH   1  17
BRANCH   4  20
ATOM     20  C   UNL     1      -1.475  -0.273  -7.189  0.00  0.00    +0.145 C 
BRANCH  20  21
ATOM     21  S   UNL     1      -0.609  -1.774  -7.724  0.00  0.00    -0.144 S 
BRANCH  21  22
ATOM     22  C   UNL     1       0.172  -1.295  -9.290  0.00  0.00    +0.165 C 
BRANCH  22  23
ATOM     23  C   UNL     1       0.936  -2.468  -9.849  0.00  0.00    +0.226 C 
ATOM     24  O   UNL     1       0.951  -3.523  -9.251  0.00  0.00    -0.275 OA
ATOM     25  N   UNL     1       1.601  -2.345 -11.015  0.00  0.00    -0.296 N 
ATOM     26  C   UNL     1       2.344  -3.484 -11.573  0.00  0.00    +0.113 C 
ATOM     27  C   UNL     1       1.680  -3.891 -12.898  0.00  0.00    +0.061 C 
ATOM     28  C   UNL     1       1.354  -2.654 -13.670  0.00  0.00    -0.004 A 
ATOM     29  C   UNL     1       1.294  -1.374 -13.212  0.00  0.00    -0.020 A 
ATOM     30  C   UNL     1       0.956  -0.392 -14.142  0.00  0.00    +0.013 A 
ATOM     31  C   UNL     1       0.713  -0.733 -15.428  0.00  0.00    +0.046 A 
ATOM     32  S   UNL     1       0.954  -2.503 -15.391  0.00  0.00    -0.101 S 
ATOM     33  C   UNL     1       1.589  -1.072 -11.748  0.00  0.00    +0.143 C 
ENDBRANCH  22  23
ENDBRANCH  21  22
ENDBRANCH  20  21
ENDBRANCH   4  20
TORSDOF 6
