REMARK  Name = ZINC03090272
REMARK  9 active torsions:
REMARK  status: ('A' for Active; 'I' for Inactive)
REMARK    1  A    between atoms: C_6  and  N_11
REMARK    2  A    between atoms: N_11  and  C_12
REMARK    3  A    between atoms: C_12  and  C_13
REMARK    4  A    between atoms: N_15  and  N_16
REMARK    5  A    between atoms: C_17  and  C_18
REMARK    6  A    between atoms: C_22  and  O_24
REMARK    7  A    between atoms: O_24  and  C_25
REMARK    8  A    between atoms: C_25  and  C_27
REMARK    9  A    between atoms: C_30  and  N_33
REMARK                            x       y       z     vdW  Elec       q    Type
REMARK                         _______ _______ _______ _____ _____    ______ ____
ROOT
ATOM      1  N   UNL     1       2.840  11.805   0.249  0.00  0.00    -0.188 NA
ATOM      2  C   UNL     1       3.808  12.668   0.238  0.00  0.00    +0.138 C 
ENDROOT
BRANCH   2   3
ATOM      3  C   UNL     1       3.510  14.110   0.146  0.00  0.00    -0.002 A 
ATOM      4  C   UNL     1       2.186  14.549   0.070  0.00  0.00    +0.010 A 
ATOM      5  C   UNL     1       1.911  15.898  -0.015  0.00  0.00    +0.004 A 
ATOM      6  C   UNL     1       2.943  16.819  -0.027  0.00  0.00    +0.046 A 
ATOM      7  C   UNL     1       4.262  16.392   0.048  0.00  0.00    +0.133 A 
ATOM      8  C   UNL     1       4.550  15.041   0.139  0.00  0.00    +0.055 A 
BRANCH   7   9
ATOM      9  O   UNL     1       5.272  17.302   0.036  0.00  0.00    -0.422 OA
BRANCH   9  10
ATOM     10  C   UNL     1       6.056  17.332  -1.059  0.00  0.00    +0.344 C 
ATOM     11  O   UNL     1       5.782  16.642  -2.021  0.00  0.00    -0.245 OA
BRANCH  10  12
ATOM     12  C   UNL     1       7.248  18.204  -1.091  0.00  0.00    +0.060 A 
ATOM     13  C   UNL     1       7.561  19.003   0.010  0.00  0.00    +0.017 A 
ATOM     14  C   UNL     1       8.678  19.812  -0.025  0.00  0.00    +0.033 A 
ATOM     15  C   UNL     1       9.481  19.840  -1.151  0.00  0.00    +0.126 A 
ATOM     16  C   UNL     1       9.174  19.054  -2.248  0.00  0.00    +0.033 A 
ATOM     17  C   UNL     1       8.062  18.237  -2.225  0.00  0.00    +0.017 A 
BRANCH  15  18
ATOM     18  N   UNL     1      10.675  20.714  -1.183  0.00  0.00    +0.056 N 
ATOM     19  O   UNL     1      11.384  20.741  -2.173  0.00  0.00    -0.126 OA
ATOM     20  O   UNL     1      10.949  21.407  -0.220  0.00  0.00    -0.126 OA
ENDBRANCH  15  18
ENDBRANCH  10  12
ENDBRANCH   9  10
ENDBRANCH   7   9
ENDBRANCH   2   3
BRANCH   1  23
ATOM     21  C   UNL     1       2.117   9.539   0.348  0.00  0.00    +0.249 C 
ATOM     22  O   UNL     1       0.966   9.917   0.283  0.00  0.00    -0.272 OA
ATOM     23  N   UNL     1       3.123  10.435   0.337  0.00  0.00    -0.206 N 
ATOM     24  H   UNL     1       4.043  10.133   0.389  0.00  0.00    +0.177 HD
BRANCH  21  25
ATOM     25  C   UNL     1       2.421   8.066   0.443  0.00  0.00    +0.199 C 
BRANCH  25  26
ATOM     26  N   UNL     1       1.168   7.307   0.437  0.00  0.00    -0.335 N 
ATOM     27  H   UNL     1       0.320   7.772   0.378  0.00  0.00    +0.147 HD
BRANCH  26  33
ATOM     28  C   UNL     1       0.156   1.038   0.749  0.00  0.00    +0.001 A 
ATOM     29  C   UNL     1      -1.072   1.691   0.659  0.00  0.00    +0.001 A 
ATOM     30  C   UNL     1      -1.139   3.048   0.587  0.00  0.00    +0.008 A 
ATOM     31  C   UNL     1       0.046   3.805   0.590  0.00  0.00    -0.016 A 
ATOM     32  C   UNL     1       0.014   5.206   0.510  0.00  0.00    +0.031 A 
ATOM     33  C   UNL     1       1.196   5.913   0.516  0.00  0.00    +0.028 A 
ATOM     34  C   UNL     1       2.425   5.248   0.600  0.00  0.00    +0.023 A 
ATOM     35  C   UNL     1       2.482   3.893   0.679  0.00  0.00    +0.010 A 
ATOM     36  C   UNL     1       1.295   3.140   0.675  0.00  0.00    -0.018 A 
ATOM     37  C   UNL     1       1.323   1.737   0.754  0.00  0.00    +0.008 A 
ENDBRANCH  26  33
ENDBRANCH  25  26
ENDBRANCH  21  25
ENDBRANCH   1  23
TORSDOF 9
