REMARK  Name = ZINC66887792
REMARK  8 active torsions:
REMARK  status: ('A' for Active; 'I' for Inactive)
REMARK    1  A    between atoms: C_6  and  O_7
REMARK    2  A    between atoms: O_7  and  C_8
REMARK    3  A    between atoms: C_8  and  C_9
REMARK    4  A    between atoms: C_9  and  C_11
REMARK    5  A    between atoms: C_9  and  O_23
REMARK    6  A    between atoms: C_11  and  N_12
REMARK    7  A    between atoms: C_13  and  C_14
REMARK    8  A    between atoms: C_19  and  O_20
REMARK                            x       y       z     vdW  Elec       q    Type
REMARK                         _______ _______ _______ _____ _____    ______ ____
ROOT
ATOM      1  C   UNL     1      -2.370  -4.263   0.133  0.00  0.00    +0.147 C 
ENDROOT
BRANCH   1   2
ATOM      2  N   UNL     1      -3.716  -4.841   0.144  0.00  0.00    -0.387 N 
ATOM      3  C   UNL     1      -4.104  -5.598  -0.832  0.00  0.00    +0.090 C 
ATOM      4  H   UNL     1      -4.317  -4.656   0.882  0.00  0.00    +0.159 HD
BRANCH   3   5
ATOM      5  C   UNL     1      -5.415  -6.268  -0.769  0.00  0.00    +0.035 A 
ATOM      6  C   UNL     1      -5.787  -7.176  -1.764  0.00  0.00    +0.033 A 
ATOM      7  C   UNL     1      -7.016  -7.801  -1.700  0.00  0.00    +0.043 A 
ATOM      8  C   UNL     1      -7.882  -7.532  -0.652  0.00  0.00    +0.043 A 
ATOM      9  C   UNL     1      -7.525  -6.636   0.338  0.00  0.00    +0.084 A 
ATOM     10  C   UNL     1      -6.291  -6.003   0.291  0.00  0.00    +0.144 A 
ATOM     11 CL   UNL     1      -8.619  -6.306   1.645  0.00  0.00    -0.080 Cl
ATOM     12 CL   UNL     1      -7.478  -8.928  -2.936  0.00  0.00    -0.083 Cl
BRANCH  10  13
ATOM     13  O   UNL     1      -5.937  -5.128   1.266  0.00  0.00    -0.505 OA
ATOM     14  H   UNL     1      -6.194  -4.213   1.085  0.00  0.00    +0.292 HD
ENDBRANCH  10  13
ENDBRANCH   3   5
ENDBRANCH   1   2
BRANCH   1  15
ATOM     15  C   UNL     1      -2.470  -2.739   0.030  0.00  0.00    +0.171 C 
BRANCH  15  16
ATOM     16  O   UNL     1      -3.150  -2.387  -1.177  0.00  0.00    -0.387 OA
ATOM     17  H   UNL     1      -2.712  -2.700  -1.981  0.00  0.00    +0.210 HD
ENDBRANCH  15  16
BRANCH  15  18
ATOM     18  C   UNL     1      -1.065  -2.135   0.018  0.00  0.00    +0.262 C 
BRANCH  18  19
ATOM     19  O   UNL     1      -1.159  -0.710   0.039  0.00  0.00    -0.489 OA
BRANCH  19  25
ATOM     20  C   UNL     1      -0.008   1.373   0.052  0.00  0.00    +0.048 A 
ATOM     21  C   UNL     1       1.179   2.078   0.045  0.00  0.00    +0.042 A 
ATOM     22  C   UNL     1       2.387   1.402   0.019  0.00  0.00    +0.124 A 
ATOM     23  C   UNL     1       2.406   0.017  -0.001  0.00  0.00    +0.042 A 
ATOM     24  C   UNL     1       1.220  -0.691   0.005  0.00  0.00    +0.048 A 
ATOM     25  C   UNL     1       0.009  -0.014   0.032  0.00  0.00    +0.121 A 
ATOM     26  F   UNL     1       3.548   2.093   0.013  0.00  0.00    -0.205 F 
ENDBRANCH  19  25
ENDBRANCH  18  19
ENDBRANCH  15  18
ENDBRANCH   1  15
TORSDOF 8
