REMARK  Name = ZINC39912222
REMARK  10 active torsions:
REMARK  status: ('A' for Active; 'I' for Inactive)
REMARK    1  A    between atoms: C_1  and  C_2
REMARK    2  A    between atoms: C_4  and  C_40
REMARK    3  A    between atoms: C_5  and  O_39
REMARK    4  A    between atoms: C_6  and  C_8
REMARK    5  A    between atoms: N_16  and  C_33
REMARK    6  A    between atoms: C_17  and  C_19
REMARK    7  A    between atoms: C_23  and  O_25
REMARK    8  A    between atoms: O_25  and  C_26
REMARK    9  A    between atoms: C_26  and  C_27
REMARK   10  A    between atoms: C_33  and  C_34
REMARK                            x       y       z     vdW  Elec       q    Type
REMARK                         _______ _______ _______ _____ _____    ______ ____
ROOT
ATOM      1  C   UNL     1       0.206  -3.032   2.635  0.00  0.00    +0.102 A 
ATOM      2  C   UNL     1       0.215  -2.364   3.864  0.00  0.00    +0.035 A 
ATOM      3  C   UNL     1       0.168  -3.352   4.829  0.00  0.00    +0.126 A 
ATOM      4  N   UNL     1       0.133  -4.540   4.155  0.00  0.00    -0.272 N 
ATOM      5  H   UNL     1       0.097  -5.415   4.571  0.00  0.00    +0.189 HD
ATOM      6  N   UNL     1       0.152  -4.324   2.888  0.00  0.00    -0.173 NA
ATOM      7  C   UNL     1       0.174  -2.714   6.150  0.00  0.00    +0.266 C 
ATOM      8  O   UNL     1       0.141  -3.311   7.209  0.00  0.00    -0.268 OA
ATOM      9  N   UNL     1       0.224  -1.376   6.024  0.00  0.00    -0.278 N 
ATOM     10  C   UNL     1       0.253  -1.049   4.593  0.00  0.00    +0.142 C 
ENDROOT
BRANCH   1  16
ATOM     11  C   UNL     1      -1.442   0.435  -0.557  0.00  0.00    +0.044 C 
ATOM     12  C   UNL     1      -0.545  -0.735  -0.246  0.00  0.00    -0.049 A 
ATOM     13  C   UNL     1       0.314  -1.221  -1.216  0.00  0.00    +0.010 A 
ATOM     14  C   UNL     1       1.141  -2.294  -0.940  0.00  0.00    -0.008 A 
ATOM     15  C   UNL     1       1.111  -2.889   0.311  0.00  0.00    +0.129 A 
ATOM     16  C   UNL     1       0.244  -2.400   1.292  0.00  0.00    +0.044 A 
ATOM     17  C   UNL     1      -0.580  -1.315   1.006  0.00  0.00    +0.017 A 
ATOM     18  C   UNL     1       2.074  -2.817  -2.001  0.00  0.00    +0.047 C 
BRANCH  15  19
ATOM     19  O   UNL     1       1.923  -3.944   0.583  0.00  0.00    -0.506 OA
ATOM     20  H   UNL     1       2.786  -3.695   0.940  0.00  0.00    +0.292 HD
ENDBRANCH  15  19
ENDBRANCH   1  16
BRANCH  10  21
ATOM     21  C   UNL     1       1.520  -0.306   4.256  0.00  0.00    -0.019 A 
ATOM     22  C   UNL     1       2.740  -0.785   4.698  0.00  0.00    +0.006 A 
ATOM     23  C   UNL     1       3.904  -0.106   4.391  0.00  0.00    +0.004 A 
ATOM     24  C   UNL     1       3.852   1.054   3.643  0.00  0.00    +0.045 A 
ATOM     25  C   UNL     1       2.630   1.537   3.198  0.00  0.00    +0.121 A 
ATOM     26  C   UNL     1       1.463   0.850   3.503  0.00  0.00    +0.051 A 
BRANCH  25  27
ATOM     27  O   UNL     1       2.575   2.678   2.462  0.00  0.00    -0.487 OA
BRANCH  27  28
ATOM     28  C   UNL     1       3.816   3.329   2.182  0.00  0.00    +0.264 C 
BRANCH  28  29
ATOM     29  C   UNL     1       3.560   4.566   1.361  0.00  0.00    -0.010 A 
ATOM     30  C   UNL     1       3.548   4.490  -0.019  0.00  0.00    +0.007 A 
ATOM     31  C   UNL     1       3.313   5.625  -0.772  0.00  0.00    +0.000 A 
ATOM     32  C   UNL     1       3.090   6.837  -0.144  0.00  0.00    +0.000 A 
ATOM     33  C   UNL     1       3.102   6.913   1.236  0.00  0.00    +0.000 A 
ATOM     34  C   UNL     1       3.332   5.777   1.989  0.00  0.00    +0.007 A 
ENDBRANCH  28  29
ENDBRANCH  27  28
ENDBRANCH  25  27
ENDBRANCH  10  21
BRANCH   9  35
ATOM     35  C   UNL     1       0.246  -0.410   7.126  0.00  0.00    +0.183 C 
BRANCH  35  36
ATOM     36  C   UNL     1       1.673  -0.130   7.520  0.00  0.00    +0.122 A 
ATOM     37  C   UNL     1       2.454   0.840   7.011  0.00  0.00    +0.046 A 
ATOM     38  C   UNL     1       3.705   0.742   7.661  0.00  0.00    +0.041 A 
ATOM     39  C   UNL     1       3.614  -0.281   8.530  0.00  0.00    +0.195 A 
ATOM     40  O   UNL     1       2.379  -0.802   8.444  0.00  0.00    -0.466 OA
ENDBRANCH  35  36
ENDBRANCH   9  35
TORSDOF 8
