REMARK  Name = ZINC28467717
REMARK  7 active torsions:
REMARK  status: ('A' for Active; 'I' for Inactive)
REMARK    1  A    between atoms: C_1  and  C_2
REMARK    2  A    between atoms: C_5  and  C_8
REMARK    3  A    between atoms: C_10  and  C_28
REMARK    4  A    between atoms: C_11  and  N_13
REMARK    5  A    between atoms: N_13  and  N_14
REMARK    6  A    between atoms: C_15  and  C_16
REMARK    7  A    between atoms: C_22  and  C_27
REMARK                            x       y       z     vdW  Elec       q    Type
REMARK                         _______ _______ _______ _____ _____    ______ ____
ROOT
ATOM      1  N   UNL     1      -6.008   0.705   0.034  0.00  0.00    -0.205 N 
ATOM      2  H   UNL     1      -6.651  -0.187   0.032  0.00  0.00    +0.177 HD
ENDROOT
BRANCH   1   6
ATOM      3  C   UNL     1      -2.502   1.008   0.019  0.00  0.00    +0.231 A 
ATOM      4  N   UNL     1      -2.609  -0.296   0.013  0.00  0.00    -0.196 NA
ATOM      5  C   UNL     1      -3.927  -0.624   0.017  0.00  0.00    +0.203 A 
ATOM      6  C   UNL     1      -4.640   0.567   0.027  0.00  0.00    +0.244 A 
ATOM      7  O   UNL     1      -3.731   1.560   0.034  0.00  0.00    -0.419 OA
BRANCH   3  12
ATOM      8  C   UNL     1       2.452   3.933  -0.001  0.00  0.00    +0.044 C 
ATOM      9  C   UNL     1       1.155   3.167   0.008  0.00  0.00    -0.050 A 
ATOM     10  C   UNL     1       1.172   1.783   0.000  0.00  0.00    +0.004 A 
ATOM     11  C   UNL     1      -0.013   1.076   0.008  0.00  0.00    +0.013 A 
ATOM     12  C   UNL     1      -1.230   1.759   0.017  0.00  0.00    +0.037 A 
ATOM     13  C   UNL     1      -1.240   3.155   0.030  0.00  0.00    +0.013 A 
ATOM     14  C   UNL     1      -0.048   3.850   0.022  0.00  0.00    +0.004 A 
ENDBRANCH   3  12
BRANCH   5  15
ATOM     15  C   UNL     1      -4.476  -1.947   0.013  0.00  0.00    +0.124 C 
ATOM     16  N   UNL     1      -4.912  -2.996   0.009  0.00  0.00    -0.189 NA
ENDBRANCH   5  15
ENDBRANCH   1   6
BRANCH   1  17
ATOM     17  N   UNL     1      -6.583   1.983   0.043  0.00  0.00    -0.187 NA
ATOM     18  C   UNL     1      -7.875   2.114   0.049  0.00  0.00    +0.145 C 
BRANCH  18  19
ATOM     19  C   UNL     1      -8.480   3.458   0.059  0.00  0.00    +0.077 A 
ATOM     20  C   UNL     1      -9.834   3.611   0.060  0.00  0.00    +0.209 A 
ATOM     21  O   UNL     1     -10.419   4.811   0.075  0.00  0.00    -0.462 OA
ATOM     22  C   UNL     1      -9.733   5.971   0.077  0.00  0.00    +0.138 A 
ATOM     23  C   UNL     1     -10.405   7.189   0.086  0.00  0.00    +0.047 A 
ATOM     24  C   UNL     1      -9.694   8.368   0.089  0.00  0.00    +0.007 A 
ATOM     25  C   UNL     1      -8.306   8.360   0.083  0.00  0.00    -0.050 A 
ATOM     26  C   UNL     1      -7.620   7.166   0.074  0.00  0.00    +0.018 A 
ATOM     27  C   UNL     1      -8.329   5.965   0.071  0.00  0.00    +0.065 A 
ATOM     28  C   UNL     1      -7.632   4.664   0.061  0.00  0.00    +0.201 A 
ATOM     29  O   UNL     1      -6.416   4.591   0.056  0.00  0.00    -0.286 OA
ATOM     30  C   UNL     1      -7.547   9.662   0.086  0.00  0.00    +0.044 C 
ENDBRANCH  18  19
ENDBRANCH   1  17
TORSDOF 5
