REMARK  Name = ZINC66499951
REMARK  11 active torsions:
REMARK  status: ('A' for Active; 'I' for Inactive)
REMARK    1  A    between atoms: C_1  and  C_2
REMARK    2  A    between atoms: C_2  and  C_3
REMARK    3  A    between atoms: C_3  and  C_4
REMARK    4  A    between atoms: C_6  and  C_9
REMARK    5  A    between atoms: C_9  and  S_10
REMARK    6  A    between atoms: S_10  and  C_13
REMARK    7  A    between atoms: C_13  and  C_14
REMARK    8  A    between atoms: C_14  and  C_16
REMARK    9  A    between atoms: C_14  and  O_28
REMARK   10  A    between atoms: C_16  and  O_17
REMARK   11  A    between atoms: O_17  and  C_18
REMARK                            x       y       z     vdW  Elec       q    Type
REMARK                         _______ _______ _______ _____ _____    ______ ____
ROOT
ATOM      1  C   UNL     1      -3.723  -7.693   0.540  0.00  0.00    +0.173 C 
ENDROOT
BRANCH   1   2
ATOM      2  O   UNL     1      -3.072  -8.206  -0.625  0.00  0.00    -0.387 OA
ATOM      3  H   UNL     1      -2.454  -8.928  -0.444  0.00  0.00    +0.210 HD
ENDBRANCH   1   2
BRANCH   1   4
ATOM      4  C   UNL     1      -2.674  -7.157   1.516  0.00  0.00    +0.201 C 
BRANCH   4   5
ATOM      5  S   UNL     1      -1.828  -5.735   0.774  0.00  0.00    -0.020 S 
ATOM      6  O   UNL     1      -2.771  -4.684   0.614  0.00  0.00    -0.174 OA
ATOM      7  O   UNL     1      -1.098  -6.186  -0.359  0.00  0.00    -0.174 OA
BRANCH   5   8
ATOM      8  C   UNL     1      -0.646  -5.253   2.063  0.00  0.00    +0.264 C 
BRANCH   8  11
ATOM      9  C   UNL     1       0.762  -2.018   1.233  0.00  0.00    +0.172 A 
ATOM     10  N   UNL     1      -0.167  -2.811   1.778  0.00  0.00    -0.195 NA
ATOM     11  C   UNL     1       0.151  -4.063   1.595  0.00  0.00    +0.248 A 
ATOM     12  O   UNL     1       1.306  -4.108   0.921  0.00  0.00    -0.336 OA
ATOM     13  N   UNL     1       1.685  -2.759   0.690  0.00  0.00    -0.061 NA
BRANCH   9  14
ATOM     14  C   UNL     1       0.742  -0.511   1.242  0.00  0.00    +0.079 C 
BRANCH  14  16
ATOM     15  C   UNL     1      -0.019   1.526   0.010  0.00  0.00    +0.004 C 
ATOM     16  C   UNL     1       0.002  -0.004   0.002  0.00  0.00    +0.004 C 
ENDBRANCH  14  16
ENDBRANCH   9  14
ENDBRANCH   8  11
ENDBRANCH   5   8
ENDBRANCH   4   5
ENDBRANCH   1   4
BRANCH   1  17
ATOM     17  C   UNL     1      -4.521  -8.812   1.212  0.00  0.00    +0.262 C 
BRANCH  17  18
ATOM     18  O   UNL     1      -5.575  -9.233   0.344  0.00  0.00    -0.489 OA
BRANCH  18  19
ATOM     19  C   UNL     1      -6.384 -10.228   0.794  0.00  0.00    +0.121 A 
ATOM     20  C   UNL     1      -6.160 -10.781   2.059  0.00  0.00    +0.046 A 
ATOM     21  C   UNL     1      -6.953 -11.777   2.536  0.00  0.00    +0.012 A 
ATOM     22  C   UNL     1      -8.013 -12.262   1.751  0.00  0.00    -0.018 A 
ATOM     23  C   UNL     1      -8.852 -13.290   2.213  0.00  0.00    +0.008 A 
ATOM     24  C   UNL     1      -9.870 -13.735   1.427  0.00  0.00    +0.001 A 
ATOM     25  C   UNL     1     -10.095 -13.185   0.166  0.00  0.00    +0.001 A 
ATOM     26  C   UNL     1      -9.304 -12.188  -0.315  0.00  0.00    +0.008 A 
ATOM     27  C   UNL     1      -8.242 -11.703   0.469  0.00  0.00    -0.014 A 
ATOM     28  C   UNL     1      -7.408 -10.671   0.007  0.00  0.00    +0.054 A 
ENDBRANCH  18  19
ENDBRANCH  17  18
ENDBRANCH   1  17
TORSDOF 10
