REMARK  Name = ZINC39634667
REMARK  11 active torsions:
REMARK  status: ('A' for Active; 'I' for Inactive)
REMARK    1  A    between atoms: C_1  and  C_2
REMARK    2  A    between atoms: C_2  and  C_3
REMARK    3  A    between atoms: C_2  and  N_4
REMARK    4  A    between atoms: N_4  and  C_5
REMARK    5  A    between atoms: N_4  and  C_31
REMARK    6  A    between atoms: C_5  and  C_6
REMARK    7  A    between atoms: C_6  and  N_7
REMARK    8  A    between atoms: C_8  and  C_10
REMARK    9  A    between atoms: C_21  and  C_23
REMARK   10  A    between atoms: C_31  and  C_32
REMARK   11  A    between atoms: C_31  and  C_33
REMARK                            x       y       z     vdW  Elec       q    Type
REMARK                         _______ _______ _______ _____ _____    ______ ____
ROOT
ATOM      1  C   UNL     1       6.094   0.716  -1.109  0.00  0.00    +0.100 C 
ATOM      2  C   UNL     1       6.196   1.667   0.104  0.00  0.00    +0.121 C 
ATOM      3  N   UNL     1       6.972   2.827  -0.395  0.00  0.00    -0.296 N 
ATOM      4  C   UNL     1       6.469   3.043  -1.773  0.00  0.00    +0.115 C 
ATOM      5  C   UNL     1       6.272   1.622  -2.339  0.00  0.00    -0.004 C 
ATOM      6  C   UNL     1       5.026   1.572  -3.217  0.00  0.00    -0.010 C 
ATOM      7  C   UNL     1       5.250   2.435  -4.462  0.00  0.00    -0.082 C 
ATOM      8  N   UNL     1       6.415   1.937  -5.202  0.00  0.00    +0.379 N 
ATOM      9  C   UNL     1       7.626   2.075  -4.383  0.00  0.00    -0.082 C 
ATOM     10  C   UNL     1       7.502   1.197  -3.135  0.00  0.00    -0.010 C 
ATOM     11  C   UNL     1       7.921   3.528   0.257  0.00  0.00    +0.248 C 
ATOM     12  O   UNL     1       8.294   3.169   1.357  0.00  0.00    -0.270 OA
ATOM     13  H   UNL     1       6.276   0.964  -5.432  0.00  0.00    -0.086 HD
ATOM     14  H   UNL     1       6.524   2.468  -6.053  0.00  0.00    -0.086 HD
ENDROOT
BRANCH  11  15
ATOM     15  C   UNL     1       8.508   4.732  -0.365  0.00  0.00    +0.055 A 
ATOM     16  C   UNL     1       7.710   5.587  -1.129  0.00  0.00    +0.016 A 
ATOM     17  C   UNL     1       8.263   6.709  -1.708  0.00  0.00    +0.021 A 
ATOM     18  C   UNL     1       9.608   6.991  -1.533  0.00  0.00    +0.042 A 
ATOM     19  C   UNL     1      10.406   6.149  -0.777  0.00  0.00    +0.040 A 
ATOM     20  C   UNL     1       9.862   5.025  -0.187  0.00  0.00    +0.054 A 
ATOM     21 CL   UNL     1      10.861   3.974   0.767  0.00  0.00    -0.083 Cl
ATOM     22 CL   UNL     1      10.297   8.407  -2.265  0.00  0.00    -0.083 Cl
ENDBRANCH  11  15
BRANCH   1  24
ATOM     23  N   UNL     1       4.610  -1.178  -1.682  0.00  0.00    -0.317 N 
ATOM     24  C   UNL     1       4.743   0.049  -1.141  0.00  0.00    +0.218 C 
ATOM     25  O   UNL     1       3.776   0.616  -0.679  0.00  0.00    -0.275 OA
ATOM     26  H   UNL     1       5.383  -1.632  -2.051  0.00  0.00    +0.149 HD
BRANCH  23  27
ATOM     27  C   UNL     1       3.296  -1.827  -1.713  0.00  0.00    +0.085 C 
BRANCH  27  28
ATOM     28  C   UNL     1       3.421  -3.200  -2.375  0.00  0.00    -0.059 C 
BRANCH  28  29
ATOM     29  N   UNL     1       2.095  -3.829  -2.451  0.00  0.00    +0.384 N 
ATOM     30  H   UNL     1       1.686  -3.862  -1.530  0.00  0.00    -0.081 HD
BRANCH  29  32
ATOM     31  C   UNL     1       3.150  -6.005  -2.059  0.00  0.00    -0.014 C 
ATOM     32  C   UNL     1       2.231  -5.194  -2.976  0.00  0.00    -0.074 C 
ATOM     33  C   UNL     1       0.853  -5.858  -3.033  0.00  0.00    -0.014 C 
ENDBRANCH  29  32
BRANCH  29  34
ATOM     34  C   UNL     1       1.232  -3.045  -3.344  0.00  0.00    -0.074 C 
ATOM     35  C   UNL     1       1.491  -3.455  -4.795  0.00  0.00    -0.014 C 
ATOM     36  C   UNL     1      -0.235  -3.306  -2.994  0.00  0.00    -0.014 C 
ENDBRANCH  29  34
ENDBRANCH  28  29
ENDBRANCH  27  28
ENDBRANCH  23  27
ENDBRANCH   1  24
TORSDOF 7
