REMARK  Name = ZINC63613222
REMARK  5 active torsions:
REMARK  status: ('A' for Active; 'I' for Inactive)
REMARK    1  A    between atoms: C_5  and  C_7
REMARK    2  A    between atoms: C_14  and  C_19
REMARK    3  A    between atoms: N_21  and  C_22
REMARK    4  A    between atoms: C_22  and  C_23
REMARK    5  A    between atoms: C_23  and  C_24
REMARK                            x       y       z     vdW  Elec       q    Type
REMARK                         _______ _______ _______ _____ _____    ______ ____
ROOT
ATOM      1  C   UNL     1       1.253  -2.154  -0.022  0.00  0.00    +0.061 C 
ATOM      2  C   UNL     1       0.102  -2.853   0.087  0.00  0.00    +0.191 C 
ATOM      3  C   UNL     1      -1.212  -2.177   0.102  0.00  0.00    +0.284 C 
ATOM      4  O   UNL     1      -1.325  -1.023   0.470  0.00  0.00    -0.266 OA
ATOM      5  N   UNL     1      -2.287  -2.892  -0.311  0.00  0.00    -0.276 N 
ATOM      6  C   UNL     1      -2.096  -4.213  -0.738  0.00  0.00    +0.077 A 
ATOM      7  C   UNL     1      -3.106  -4.872  -1.415  0.00  0.00    +0.040 A 
ATOM      8  C   UNL     1      -2.914  -6.188  -1.841  0.00  0.00    +0.039 A 
ATOM      9  C   UNL     1      -1.702  -6.835  -1.580  0.00  0.00    +0.017 A 
ATOM     10  C   UNL     1      -0.700  -6.174  -0.904  0.00  0.00    +0.049 A 
ATOM     11  C   UNL     1      -0.889  -4.866  -0.480  0.00  0.00    +0.150 A 
ATOM     12  O   UNL     1       0.102  -4.218   0.184  0.00  0.00    -0.449 OA
ATOM     13  H   UNL     1      -3.173  -2.496  -0.310  0.00  0.00    +0.155 HD
ENDROOT
BRANCH   1  18
ATOM     14  C   UNL     1       0.272   1.157  -1.485  0.00  0.00    +0.001 A 
ATOM     15  C   UNL     1       1.139   2.010  -0.824  0.00  0.00    +0.001 A 
ATOM     16  C   UNL     1       2.043   1.512   0.097  0.00  0.00    +0.020 A 
ATOM     17  C   UNL     1       2.087   0.158   0.363  0.00  0.00    +0.048 A 
ATOM     18  C   UNL     1       1.214  -0.710  -0.300  0.00  0.00    -0.003 A 
ATOM     19  C   UNL     1       0.302  -0.198  -1.230  0.00  0.00    +0.009 A 
ATOM     20 CL   UNL     1       3.224  -0.465   1.518  0.00  0.00    -0.083 Cl
ENDBRANCH   1  18
BRANCH   8  21
ATOM     21  C   UNL     1      -3.988  -6.896  -2.564  0.00  0.00    +0.244 C 
ATOM     22  O   UNL     1      -5.042  -6.333  -2.790  0.00  0.00    -0.270 OA
ATOM     23  N   UNL     1      -3.801  -8.166  -2.974  0.00  0.00    -0.311 N 
ATOM     24  H   UNL     1      -2.961  -8.616  -2.794  0.00  0.00    +0.149 HD
BRANCH  23  25
ATOM     25  C   UNL     1      -4.868  -8.869  -3.692  0.00  0.00    +0.109 C 
BRANCH  25  26
ATOM     26  C   UNL     1      -4.402 -10.284  -4.040  0.00  0.00    +0.052 C 
BRANCH  26  27
ATOM     27  C   UNL     1      -5.499 -11.006  -4.779  0.00  0.00    -0.040 C 
ATOM     28  C   UNL     1      -5.641 -11.118  -6.119  0.00  0.00    -0.001 A 
ATOM     29  C   UNL     1      -4.847 -10.617  -7.248  0.00  0.00    +0.010 A 
ATOM     30  C   UNL     1      -5.250 -10.897  -8.508  0.00  0.00    +0.001 A 
ATOM     31  C   UNL     1      -6.404 -11.649  -8.763  0.00  0.00    +0.002 A 
ATOM     32  C   UNL     1      -7.185 -12.143  -7.779  0.00  0.00    +0.026 A 
ATOM     33  C   UNL     1      -6.855 -11.911  -6.415  0.00  0.00    +0.043 A 
ATOM     34  N   UNL     1      -7.442 -12.275  -5.301  0.00  0.00    -0.380 N 
ATOM     35  C   UNL     1      -6.662 -11.759  -4.171  0.00  0.00    +0.144 C 
ATOM     36  H   UNL     1      -8.254 -12.802  -5.235  0.00  0.00    +0.160 HD
ENDBRANCH  26  27
ENDBRANCH  25  26
ENDBRANCH  23  25
ENDBRANCH   8  21
TORSDOF 5
