REMARK  Name = ZINC09670589
REMARK  8 active torsions:
REMARK  status: ('A' for Active; 'I' for Inactive)
REMARK    1  A    between atoms: C_1  and  S_2
REMARK    2  A    between atoms: S_2  and  C_3
REMARK    3  A    between atoms: C_3  and  C_4
REMARK    4  A    between atoms: C_4  and  C_5
REMARK    5  A    between atoms: C_5  and  C_7
REMARK    6  A    between atoms: C_5  and  N_17
REMARK    7  A    between atoms: C_18  and  C_20
REMARK    8  A    between atoms: C_20  and  N_21
REMARK                            x       y       z     vdW  Elec       q    Type
REMARK                         _______ _______ _______ _____ _____    ______ ____
ROOT
ATOM      1  N   UNL     1       5.295   1.306  -0.162  0.00  0.00    -0.304 N 
ATOM      2  C   UNL     1       6.535   1.037   0.292  0.00  0.00    +0.232 C 
ATOM      3  O   UNL     1       7.194   1.914   0.810  0.00  0.00    -0.274 OA
ATOM      4  H   UNL     1       4.768   0.605  -0.576  0.00  0.00    +0.149 HD
ENDROOT
BRANCH   1   5
ATOM      5  C   UNL     1       4.743   2.656  -0.029  0.00  0.00    +0.140 C 
BRANCH   5   6
ATOM      6  C   UNL     1       3.238   2.585  -0.015  0.00  0.00    +0.129 A 
ATOM      7  N   UNL     1       2.512   1.434  -0.014  0.00  0.00    -0.340 N 
ATOM      8  H   UNL     1       2.877   0.503  -0.022  0.00  0.00    +0.167 HD
ATOM      9  C   UNL     1       1.178   1.790   0.000  0.00  0.00    +0.066 A 
ATOM     10  C   UNL     1      -0.013   1.076   0.008  0.00  0.00    +0.028 A 
ATOM     11  C   UNL     1      -1.214   1.752   0.017  0.00  0.00    +0.002 A 
ATOM     12  C   UNL     1      -1.240   3.139   0.031  0.00  0.00    +0.002 A 
ATOM     13  C   UNL     1      -0.078   3.858   0.023  0.00  0.00    +0.030 A 
ATOM     14  C   UNL     1       1.151   3.194   0.008  0.00  0.00    +0.089 A 
ATOM     15  N   UNL     1       2.442   3.615  -0.002  0.00  0.00    -0.231 NA
ENDBRANCH   5   6
BRANCH   5  16
ATOM     16  C   UNL     1       5.202   3.513  -1.211  0.00  0.00    +0.041 C 
BRANCH  16  17
ATOM     17  C   UNL     1       6.720   3.689  -1.154  0.00  0.00    +0.071 C 
BRANCH  17  19
ATOM     18  C   UNL     1       9.062   4.817  -2.344  0.00  0.00    +0.084 C 
ATOM     19  S   UNL     1       7.264   4.705  -2.555  0.00  0.00    -0.164 S 
ENDBRANCH  17  19
ENDBRANCH  16  17
ENDBRANCH   5  16
ENDBRANCH   1   5
BRANCH   2  20
ATOM     20  C   UNL     1       7.103  -0.352   0.155  0.00  0.00    +0.213 C 
BRANCH  20  21
ATOM     21  N   UNL     1       8.454  -0.385   0.720  0.00  0.00    -0.215 N 
ATOM     22  C   UNL     1       9.577  -0.136   0.014  0.00  0.00    +0.251 C 
ATOM     23  O   UNL     1       9.657   0.146  -1.162  0.00  0.00    -0.272 OA
ATOM     24  C   UNL     1      10.715  -0.281   1.000  0.00  0.00    +0.138 C 
ATOM     25  C   UNL     1      11.649  -1.401   0.559  0.00  0.00    +0.040 C 
ATOM     26  C   UNL     1      12.883  -1.393   1.471  0.00  0.00    +0.008 C 
ATOM     27  C   UNL     1      13.697  -0.136   1.172  0.00  0.00    +0.035 C 
ATOM     28  C   UNL     1      12.823   1.090   1.232  0.00  0.00    -0.042 A 
ATOM     29  C   UNL     1      11.449   1.022   1.146  0.00  0.00    -0.012 A 
ATOM     30  C   UNL     1      10.700   2.191   1.195  0.00  0.00    +0.006 A 
ATOM     31  C   UNL     1      11.320   3.416   1.334  0.00  0.00    +0.000 A 
ATOM     32  C   UNL     1      12.697   3.482   1.423  0.00  0.00    +0.000 A 
ATOM     33  C   UNL     1      13.444   2.323   1.372  0.00  0.00    +0.004 A 
ATOM     34  N   UNL     1      10.049  -0.635   2.260  0.00  0.00    -0.281 N 
ATOM     35  C   UNL     1       8.729  -0.671   1.998  0.00  0.00    +0.310 C 
ATOM     36  O   UNL     1       7.881  -0.934   2.829  0.00  0.00    -0.252 OA
ATOM     37  H   UNL     1      10.476  -0.808   3.114  0.00  0.00    +0.152 HD
ENDBRANCH  20  21
ENDBRANCH   2  20
TORSDOF 7
