REMARK  Name = ZINC10342263
REMARK  8 active torsions:
REMARK  status: ('A' for Active; 'I' for Inactive)
REMARK    1  A    between atoms: C_1  and  C_2
REMARK    2  A    between atoms: C_2  and  C_36
REMARK    3  A    between atoms: C_6  and  C_28
REMARK    4  A    between atoms: N_8  and  C_16
REMARK    5  A    between atoms: C_16  and  C_17
REMARK    6  A    between atoms: N_19  and  C_20
REMARK    7  A    between atoms: C_20  and  C_21
REMARK    8  A    between atoms: C_21  and  C_22
REMARK                            x       y       z     vdW  Elec       q    Type
REMARK                         _______ _______ _______ _____ _____    ______ ____
ROOT
ATOM      1  C   UNL     1      -0.019   1.526   0.010  0.00  0.00    +0.011 C 
ATOM      2  C   UNL     1       0.002  -0.004   0.002  0.00  0.00    -0.023 C 
ATOM      3  C   UNL     1       0.753  -0.505  -1.230  0.00  0.00    +0.058 C 
ATOM      4  C   UNL     1       2.180   0.020  -1.215  0.00  0.00    +0.017 C 
ATOM      5  C   UNL     1       2.823   0.203  -0.050  0.00  0.00    +0.040 C 
ATOM      6  C   UNL     1       4.243   0.694   0.111  0.00  0.00    +0.175 C 
ATOM      7  N   UNL     1       4.833   1.227  -1.099  0.00  0.00    -0.306 N 
ATOM      8  C   UNL     1       5.061   0.413  -2.207  0.00  0.00    +0.052 A 
ATOM      9  C   UNL     1       6.345   0.143  -2.655  0.00  0.00    +0.025 A 
ATOM     10  C   UNL     1       6.524  -0.708  -3.732  0.00  0.00    +0.002 A 
ATOM     11  C   UNL     1       5.434  -1.287  -4.356  0.00  0.00    +0.002 A 
ATOM     12  C   UNL     1       4.150  -1.006  -3.922  0.00  0.00    +0.025 A 
ATOM     13  C   UNL     1       3.968  -0.140  -2.858  0.00  0.00    +0.052 A 
ATOM     14  N   UNL     1       2.706   0.267  -2.441  0.00  0.00    -0.316 N 
ATOM     15  C   UNL     1       2.167  -0.059   1.176  0.00  0.00    +0.163 C 
ATOM     16  O   UNL     1       2.780   0.097   2.213  0.00  0.00    -0.292 OA
ATOM     17  C   UNL     1       0.742  -0.520   1.242  0.00  0.00    +0.086 C 
ATOM     18  C   UNL     1      -1.430  -0.542  -0.008  0.00  0.00    +0.011 C 
ATOM     19  H   UNL     1       2.162   0.764  -3.072  0.00  0.00    +0.152 HD
ENDROOT
BRANCH   6  20
ATOM     20  C   UNL     1       5.094  -0.454   0.589  0.00  0.00    +0.130 A 
ATOM     21  C   UNL     1       5.478  -0.673   1.859  0.00  0.00    +0.047 A 
ATOM     22  C   UNL     1       6.259  -1.852   1.854  0.00  0.00    +0.041 A 
ATOM     23  C   UNL     1       6.306  -2.282   0.580  0.00  0.00    +0.195 A 
ATOM     24  O   UNL     1       5.594  -1.435  -0.181  0.00  0.00    -0.466 OA
ENDBRANCH   6  20
BRANCH   7  25
ATOM     25  C   UNL     1       5.195   2.645  -1.160  0.00  0.00    +0.201 C 
BRANCH  25  26
ATOM     26  C   UNL     1       6.614   2.821  -0.685  0.00  0.00    +0.230 C 
ATOM     27  O   UNL     1       7.260   1.857  -0.331  0.00  0.00    -0.274 OA
ATOM     28  N   UNL     1       7.167   4.050  -0.654  0.00  0.00    -0.314 N 
ATOM     29  H   UNL     1       6.651   4.821  -0.937  0.00  0.00    +0.149 HD
BRANCH  28  30
ATOM     30  C   UNL     1       8.547   4.222  -0.193  0.00  0.00    +0.110 C 
BRANCH  30  31
ATOM     31  C   UNL     1       8.925   5.703  -0.257  0.00  0.00    +0.073 C 
BRANCH  31  32
ATOM     32  C   UNL     1      10.345   5.880   0.218  0.00  0.00    +0.035 A 
ATOM     33  C   UNL     1      10.741   6.007   1.499  0.00  0.00    +0.105 A 
ATOM     34  N   UNL     1      12.103   6.144   1.480  0.00  0.00    -0.352 N 
ATOM     35  H   UNL     1      12.681   6.255   2.251  0.00  0.00    +0.166 HD
ATOM     36  C   UNL     1      12.492   6.094   0.188  0.00  0.00    +0.171 A 
ATOM     37  N   UNL     1      11.435   5.931  -0.561  0.00  0.00    -0.350 N 
ATOM     38  H   UNL     1      11.438   5.860  -1.528  0.00  0.00    +0.166 HD
ENDBRANCH  31  32
ENDBRANCH  30  31
ENDBRANCH  28  30
ENDBRANCH  25  26
ENDBRANCH   7  25
TORSDOF 6
