REMARK  Name = ZINC20418999
REMARK  8 active torsions:
REMARK  status: ('A' for Active; 'I' for Inactive)
REMARK    1  A    between atoms: C_1  and  C_2
REMARK    2  A    between atoms: C_7  and  O_8
REMARK    3  A    between atoms: O_8  and  C_9
REMARK    4  A    between atoms: C_9  and  C_10
REMARK    5  A    between atoms: N_12  and  C_13
REMARK    6  A    between atoms: C_22  and  O_23
REMARK    7  A    between atoms: N_24  and  C_25
REMARK    8  A    between atoms: C_25  and  C_26
REMARK                            x       y       z     vdW  Elec       q    Type
REMARK                         _______ _______ _______ _____ _____    ______ ____
ROOT
ATOM      1  C   UNL     1       2.156   1.693   1.022  0.00  0.00    +0.139 A 
ATOM      2  C   UNL     1       1.926   1.298  -0.285  0.00  0.00    +0.075 A 
ATOM      3  C   UNL     1       2.349   2.206  -1.363  0.00  0.00    +0.042 A 
ATOM      4  C   UNL     1       2.144   1.875  -2.704  0.00  0.00    +0.013 A 
ATOM      5  C   UNL     1       2.552   2.746  -3.690  0.00  0.00    +0.001 A 
ATOM      6  C   UNL     1       3.163   3.946  -3.355  0.00  0.00    +0.004 A 
ATOM      7  C   UNL     1       3.371   4.285  -2.035  0.00  0.00    +0.047 A 
ATOM      8  C   UNL     1       2.967   3.421  -1.024  0.00  0.00    +0.141 A 
ATOM      9  O   UNL     1       3.166   3.740   0.273  0.00  0.00    -0.424 OA
ATOM     10  C   UNL     1       2.787   2.926   1.270  0.00  0.00    +0.309 A 
ATOM     11  N   UNL     1       1.313   0.093  -0.568  0.00  0.00    -0.378 N 
ATOM     12  H   UNL     1       0.364   0.075  -1.124  0.00  0.00    +0.160 HD
ENDROOT
BRANCH   1  15
ATOM     13  C   UNL     1       2.703   0.264   2.851  0.00  0.00    +0.255 C 
ATOM     14  O   UNL     1       3.878   0.503   2.670  0.00  0.00    -0.272 OA
ATOM     15  N   UNL     1       1.768   0.867   2.091  0.00  0.00    -0.276 N 
ATOM     16  H   UNL     1       0.700   0.714   2.307  0.00  0.00    +0.155 HD
BRANCH  13  17
ATOM     17  C   UNL     1       2.288  -0.707   3.927  0.00  0.00    +0.324 C 
BRANCH  17  18
ATOM     18  O   UNL     1       3.451  -1.208   4.589  0.00  0.00    -0.483 OA
BRANCH  18  25
ATOM     19  C   UNL     1       5.736  -2.213   5.912  0.00  0.00    +0.047 C 
ATOM     20  C   UNL     1       4.335  -2.630   6.279  0.00  0.00    -0.009 A 
ATOM     21  C   UNL     1       4.129  -3.539   7.300  0.00  0.00    +0.007 A 
ATOM     22  C   UNL     1       2.845  -3.922   7.637  0.00  0.00    +0.000 A 
ATOM     23  C   UNL     1       1.762  -3.397   6.955  0.00  0.00    +0.004 A 
ATOM     24  C   UNL     1       1.962  -2.484   5.938  0.00  0.00    +0.046 A 
ATOM     25  C   UNL     1       3.251  -2.102   5.593  0.00  0.00    +0.124 A 
ENDBRANCH  18  25
ENDBRANCH  17  18
ENDBRANCH  13  17
ENDBRANCH   1  15
BRANCH  10  26
ATOM     26  O   UNL     1       2.991   3.265   2.423  0.00  0.00    -0.479 OA
ATOM     27  H   UNL     1       3.483   4.226   2.634  0.00  0.00    +0.295 HD
ENDBRANCH  10  26
BRANCH  11  28
ATOM     28  C   UNL     1       2.094  -1.032  -0.036  0.00  0.00    +0.148 C 
BRANCH  28  29
ATOM     29  C   UNL     1       1.396  -2.327  -0.363  0.00  0.00    -0.028 A 
ATOM     30  C   UNL     1       0.474  -2.858   0.520  0.00  0.00    +0.005 A 
ATOM     31  C   UNL     1      -0.170  -4.043   0.217  0.00  0.00    +0.000 A 
ATOM     32  C   UNL     1       0.116  -4.703  -0.963  0.00  0.00    +0.000 A 
ATOM     33  C   UNL     1       1.042  -4.176  -1.844  0.00  0.00    +0.000 A 
ATOM     34  C   UNL     1       1.682  -2.987  -1.544  0.00  0.00    +0.005 A 
ENDBRANCH  28  29
ENDBRANCH  11  28
TORSDOF 7
