REMARK  Name = ZINC20107013
REMARK  10 active torsions:
REMARK  status: ('A' for Active; 'I' for Inactive)
REMARK    1  A    between atoms: C_1  and  C_2
REMARK    2  A    between atoms: C_2  and  O_3
REMARK    3  A    between atoms: O_3  and  C_4
REMARK    4  A    between atoms: C_7  and  N_10
REMARK    5  A    between atoms: C_11  and  C_13
REMARK    6  A    between atoms: N_24  and  C_39
REMARK    7  A    between atoms: C_25  and  C_27
REMARK    8  A    between atoms: N_29  and  C_30
REMARK    9  A    between atoms: C_36  and  C_38
REMARK   10  A    between atoms: C_39  and  C_40
REMARK                            x       y       z     vdW  Elec       q    Type
REMARK                         _______ _______ _______ _____ _____    ______ ____
ROOT
ATOM      1  C   UNL     1      -4.339   0.442  -2.883  0.00  0.00    +0.123 C 
ATOM      2  C   UNL     1      -4.137  -1.081  -2.592  0.00  0.00    +0.155 C 
ATOM      3  C   UNL     1      -2.751  -1.456  -3.129  0.00  0.00    +0.004 C 
ATOM      4  C   UNL     1      -1.845  -0.924  -2.299  0.00  0.00    +0.009 C 
ATOM      5  C   UNL     1      -2.669  -0.201  -1.294  0.00  0.00    +0.127 C 
ATOM      6  C   UNL     1      -3.249   1.078  -2.002  0.00  0.00    +0.128 C 
ATOM      7  C   UNL     1      -3.762   1.850  -0.819  0.00  0.00    +0.223 C 
ATOM      8  O   UNL     1      -4.656   2.669  -0.850  0.00  0.00    -0.275 OA
ATOM      9  N   UNL     1      -3.068   1.486   0.289  0.00  0.00    -0.284 N 
ATOM     10  C   UNL     1      -2.144   0.365  -0.012  0.00  0.00    +0.198 C 
ATOM     11  O   UNL     1      -3.855  -1.028  -1.147  0.00  0.00    -0.358 OA
ENDROOT
BRANCH   1  13
ATOM     12  N   UNL     1      -4.878   0.178  -5.283  0.00  0.00    -0.285 N 
ATOM     13  C   UNL     1      -4.102   0.749  -4.339  0.00  0.00    +0.224 C 
ATOM     14  O   UNL     1      -3.214   1.509  -4.662  0.00  0.00    -0.275 OA
ATOM     15  H   UNL     1      -5.627  -0.574  -4.997  0.00  0.00    +0.155 HD
BRANCH  12  19
ATOM     16  C   UNL     1      -4.434   1.267  -9.283  0.00  0.00    +0.121 A 
ATOM     17  C   UNL     1      -4.745  -0.043  -8.952  0.00  0.00    +0.047 A 
ATOM     18  C   UNL     1      -4.892  -0.405  -7.627  0.00  0.00    +0.027 A 
ATOM     19  C   UNL     1      -4.729   0.544  -6.627  0.00  0.00    +0.034 A 
ATOM     20  C   UNL     1      -4.424   1.857  -6.960  0.00  0.00    +0.027 A 
ATOM     21  C   UNL     1      -4.271   2.216  -8.284  0.00  0.00    +0.047 A 
BRANCH  16  22
ATOM     22  O   UNL     1      -4.290   1.622 -10.588  0.00  0.00    -0.492 OA
BRANCH  22  24
ATOM     23  C   UNL     1      -3.849   3.197 -12.368  0.00  0.00    +0.048 C 
ATOM     24  C   UNL     1      -3.971   2.989 -10.857  0.00  0.00    +0.225 C 
ENDBRANCH  22  24
ENDBRANCH  16  22
ENDBRANCH  12  19
ENDBRANCH   1  13
BRANCH  10  25
ATOM     25  C   UNL     1      -0.738   0.875  -0.196  0.00  0.00    +0.237 C 
ATOM     26  O   UNL     1      -0.547   2.039  -0.477  0.00  0.00    -0.274 OA
ATOM     27  N   UNL     1       0.307   0.037  -0.048  0.00  0.00    -0.311 N 
ATOM     28  H   UNL     1       0.132  -1.034   0.130  0.00  0.00    +0.149 HD
BRANCH  27  29
ATOM     29  C   UNL     1       1.676   0.554  -0.123  0.00  0.00    +0.076 C 
ATOM     30  C   UNL     1       2.166   0.491  -1.571  0.00  0.00    +0.022 C 
ATOM     31  C   UNL     1       2.141  -0.960  -2.055  0.00  0.00    +0.002 C 
ATOM     32  C   UNL     1       3.055  -1.809  -1.170  0.00  0.00    +0.000 C 
ATOM     33  C   UNL     1       2.565  -1.747   0.278  0.00  0.00    +0.005 C 
ATOM     34  C   UNL     1       2.591  -0.295   0.762  0.00  0.00    +0.006 C 
ATOM     35  C   UNL     1       2.101  -0.233   2.210  0.00  0.00    +0.009 C 
ENDBRANCH  27  29
ENDBRANCH  10  25
BRANCH   9  36
ATOM     36  C   UNL     1      -3.212   2.114   1.605  0.00  0.00    +0.140 C 
BRANCH  36  37
ATOM     37  C   UNL     1      -2.226   3.278   1.724  0.00  0.00    +0.136 C 
ATOM     38  C   UNL     1      -2.285   3.870   3.149  0.00  0.00    +0.035 C 
ATOM     39  C   UNL     1      -2.161   5.395   2.876  0.00  0.00    +0.031 C 
ATOM     40  C   UNL     1      -2.913   5.516   1.527  0.00  0.00    +0.160 C 
ATOM     41  O   UNL     1      -2.587   4.317   0.807  0.00  0.00    -0.375 OA
ENDBRANCH  36  37
ENDBRANCH   9  36
TORSDOF 8
