REMARK  Name = ZINC62935523
REMARK  4 active torsions:
REMARK  status: ('A' for Active; 'I' for Inactive)
REMARK    1  A    between atoms: C_1  and  C_2
REMARK    2  A    between atoms: C_2  and  C_3
REMARK    3  A    between atoms: C_3  and  C_15
REMARK    4  A    between atoms: N_10  and  C_11
REMARK                            x       y       z     vdW  Elec       q    Type
REMARK                         _______ _______ _______ _____ _____    ______ ____
ROOT
ATOM      1  C   UNL     1       0.718  -0.497  -1.257  0.00  0.00    +0.089 C 
ATOM      2  C   UNL     1       0.686  -2.042  -1.322  0.00  0.00    +0.039 C 
ATOM      3  C   UNL     1      -0.519  -2.322  -2.255  0.00  0.00    +0.110 C 
ATOM      4  N   UNL     1      -0.429  -1.239  -3.260  0.00  0.00    -0.285 N 
ATOM      5  C   UNL     1      -0.032  -0.028  -2.518  0.00  0.00    +0.127 C 
ATOM      6  C   UNL     1      -0.663  -1.339  -4.584  0.00  0.00    +0.302 C 
ATOM      7  O   UNL     1      -0.550  -0.360  -5.297  0.00  0.00    -0.253 OA
ATOM      8  N   UNL     1      -1.021  -2.523  -5.118  0.00  0.00    -0.296 N 
ATOM      9  H   UNL     1      -1.111  -3.304  -4.549  0.00  0.00    +0.151 HD
ENDROOT
BRANCH   8  10
ATOM     10  C   UNL     1      -1.274  -2.632  -6.557  0.00  0.00    +0.074 C 
ATOM     11  C   UNL     1      -2.763  -2.791  -6.910  0.00  0.00    +0.022 C 
ATOM     12  C   UNL     1      -2.320  -3.806  -7.976  0.00  0.00    +0.004 C 
ATOM     13  C   UNL     1      -1.072  -4.051  -7.112  0.00  0.00    +0.022 C 
ENDBRANCH   8  10
BRANCH   1  14
ATOM     14  C   UNL     1       2.140   0.000  -1.278  0.00  0.00    +0.364 C 
ATOM     15  O   UNL     1       2.561   0.683  -0.360  0.00  0.00    -0.246 OA
ATOM     16  O   UNL     1       2.870  -0.280  -2.213  0.00  0.00    -0.246 OA
ENDBRANCH   1  14
BRANCH   1  18
ATOM     17  C   UNL     1      -0.019   1.526   0.010  0.00  0.00    +0.005 C 
ATOM     18  C   UNL     1       0.002  -0.004   0.002  0.00  0.00    +0.016 C 
ENDBRANCH   1  18
TORSDOF 3
