REMARK  Name = ZINC36971117
REMARK  6 active torsions:
REMARK  status: ('A' for Active; 'I' for Inactive)
REMARK    1  A    between atoms: C_1  and  C_2
REMARK    2  A    between atoms: C_5  and  C_7
REMARK    3  A    between atoms: C_7  and  C_9
REMARK    4  A    between atoms: C_7  and  N_10
REMARK    5  A    between atoms: N_10  and  C_11
REMARK    6  A    between atoms: C_14  and  N_18
REMARK                            x       y       z     vdW  Elec       q    Type
REMARK                         _______ _______ _______ _____ _____    ______ ____
ROOT
ATOM      1  N   UNL     1       2.210  -4.147   0.855  0.00  0.00    -0.336 N 
ATOM      2  H   UNL     1       2.735  -3.354   1.042  0.00  0.00    +0.147 HD
ENDROOT
BRANCH   1   3
ATOM      3  C   UNL     1       2.565  -5.372   1.426  0.00  0.00    +0.046 A 
ATOM      4  C   UNL     1       1.817  -6.510   1.155  0.00  0.00    +0.026 A 
ATOM      5  C   UNL     1       2.172  -7.719   1.721  0.00  0.00    +0.034 A 
ATOM      6  C   UNL     1       3.270  -7.798   2.558  0.00  0.00    +0.128 A 
ATOM      7  C   UNL     1       4.017  -6.667   2.831  0.00  0.00    +0.054 A 
ATOM      8  C   UNL     1       3.672  -5.455   2.263  0.00  0.00    +0.064 A 
ATOM      9 CL   UNL     1       4.615  -4.037   2.601  0.00  0.00    -0.082 Cl
BRANCH   6  10
ATOM     10  N   UNL     1       3.646  -9.095   3.163  0.00  0.00    +0.056 N 
ATOM     11  O   UNL     1       2.993 -10.085   2.925  0.00  0.00    -0.126 OA
ATOM     12  O   UNL     1       4.606  -9.165   3.894  0.00  0.00    -0.126 OA
ENDBRANCH   6  10
ENDBRANCH   1   3
BRANCH   1  13
ATOM     13  C   UNL     1       1.043  -4.062  -0.027  0.00  0.00    +0.104 C 
ATOM     14  C   UNL     1       1.452  -4.441  -1.452  0.00  0.00    +0.033 C 
BRANCH  13  19
ATOM     15  C   UNL     1      -0.018   1.503   0.010  0.00  0.00    +0.051 C 
ATOM     16  C   UNL     1       0.002  -0.004   0.002  0.00  0.00    -0.013 A 
ATOM     17  C   UNL     1      -1.039  -0.872   0.002  0.00  0.00    +0.011 A 
ATOM     18  C   UNL     1      -0.780  -2.230  -0.007  0.00  0.00    +0.013 A 
ATOM     19  C   UNL     1       0.507  -2.653  -0.016  0.00  0.00    +0.010 A 
ATOM     20  S   UNL     1       1.404  -1.109  -0.018  0.00  0.00    -0.097 S 
ENDBRANCH  13  19
ENDBRANCH   1  13
TORSDOF 4
