REMARK  Name = ZINC23191397
REMARK  10 active torsions:
REMARK  status: ('A' for Active; 'I' for Inactive)
REMARK    1  A    between atoms: C_1  and  C_2
REMARK    2  A    between atoms: C_10  and  C_13
REMARK    3  A    between atoms: C_11  and  C_12
REMARK    4  A    between atoms: C_13  and  N_14
REMARK    5  A    between atoms: C_18  and  C_21
REMARK    6  A    between atoms: C_21  and  C_22
REMARK    7  A    between atoms: C_22  and  C_23
REMARK    8  A    between atoms: N_25  and  C_26
REMARK    9  A    between atoms: C_26  and  C_27
REMARK   10  A    between atoms: C_30  and  C_32
REMARK                            x       y       z     vdW  Elec       q    Type
REMARK                         _______ _______ _______ _____ _____    ______ ____
ROOT
ATOM      1  N   UNL     1      -3.432   6.556   0.159  0.00  0.00    +0.384 N 
ATOM      2  C   UNL     1      -4.146   6.348  -1.107  0.00  0.00    -0.078 C 
ATOM      3  C   UNL     1      -4.462   4.861  -1.278  0.00  0.00    -0.018 C 
ATOM      4  C   UNL     1      -3.155   4.062  -1.271  0.00  0.00    -0.000 C 
ATOM      5  C   UNL     1      -2.408   4.334   0.037  0.00  0.00    -0.027 C 
ATOM      6  C   UNL     1      -2.151   5.837   0.170  0.00  0.00    -0.075 C 
ATOM      7  H   UNL     1      -4.054   6.144   0.967  0.00  0.00    -0.081 HD
ENDROOT
BRANCH   1   8
ATOM      8  C   UNL     1      -3.234   7.987   0.423  0.00  0.00    -0.024 C 
BRANCH   8  18
ATOM      9  C   UNL     1      -7.442  11.093  -1.678  0.00  0.00    +0.046 C 
ATOM     10  C   UNL     1      -7.485  10.595  -0.257  0.00  0.00    -0.027 A 
ATOM     11  C   UNL     1      -8.562  10.896   0.549  0.00  0.00    +0.005 A 
ATOM     12  C   UNL     1      -8.614  10.443   1.860  0.00  0.00    +0.001 A 
ATOM     13  C   UNL     1      -7.596   9.689   2.375  0.00  0.00    +0.010 A 
ATOM     14  C   UNL     1      -6.496   9.372   1.576  0.00  0.00    +0.003 A 
ATOM     15  C   UNL     1      -6.439   9.829   0.247  0.00  0.00    +0.050 A 
ATOM     16  N   UNL     1      -5.253   9.376  -0.288  0.00  0.00    -0.359 N 
ATOM     17  H   UNL     1      -4.989   9.621  -1.327  0.00  0.00    +0.166 HD
ATOM     18  C   UNL     1      -4.570   8.646   0.647  0.00  0.00    +0.003 A 
ATOM     19  C   UNL     1      -5.265   8.609   1.795  0.00  0.00    -0.024 A 
ATOM     20  C   UNL     1      -4.856   7.914   3.068  0.00  0.00    +0.046 C 
ENDBRANCH   8  18
ENDBRANCH   1   8
BRANCH   5  21
ATOM     21  C   UNL     1      -1.072   3.587   0.027  0.00  0.00    +0.011 C 
BRANCH  21  22
ATOM     22  C   UNL     1      -1.331   2.079   0.020  0.00  0.00    +0.096 C 
BRANCH  22  23
ATOM     23  C   UNL     1      -0.016   1.344   0.009  0.00  0.00    +0.213 C 
ATOM     24  O   UNL     1       1.026   1.964   0.003  0.00  0.00    -0.276 OA
ATOM     25  N   UNL     1       0.002  -0.004   0.002  0.00  0.00    -0.308 N 
ATOM     26  H   UNL     1      -0.943  -0.567   0.008  0.00  0.00    +0.149 HD
BRANCH  25  27
ATOM     27  C   UNL     1       1.281  -0.719  -0.014  0.00  0.00    +0.178 C 
BRANCH  27  28
ATOM     28  C   UNL     1       1.025  -2.204  -0.020  0.00  0.00    +0.122 A 
ATOM     29  C   UNL     1       0.882  -2.974  -1.113  0.00  0.00    +0.046 A 
ATOM     30  C   UNL     1       0.659  -4.294  -0.659  0.00  0.00    +0.045 A 
ATOM     31  C   UNL     1       0.681  -4.253   0.685  0.00  0.00    +0.102 A 
ATOM     32  O   UNL     1       0.908  -2.985   1.067  0.00  0.00    -0.463 OA
ATOM     33  C   UNL     1       0.489  -5.430   1.606  0.00  0.00    +0.086 C 
ENDBRANCH  27  28
ENDBRANCH  25  27
ENDBRANCH  22  23
ENDBRANCH  21  22
ENDBRANCH   5  21
TORSDOF 7
