REMARK  Name = ZINC63627338
REMARK  4 active torsions:
REMARK  status: ('A' for Active; 'I' for Inactive)
REMARK    1  A    between atoms: C_3  and  N_18
REMARK    2  A    between atoms: C_6  and  C_7
REMARK    3  A    between atoms: N_18  and  S_19
REMARK    4  A    between atoms: S_19  and  C_22
REMARK                            x       y       z     vdW  Elec       q    Type
REMARK                         _______ _______ _______ _____ _____    ______ ____
ROOT
ATOM      1  C   UNL     1      -0.001   1.321  -0.112  0.00  0.00    +0.008 A 
ATOM      2  C   UNL     1       1.172   2.049  -0.096  0.00  0.00    +0.025 A 
ATOM      3  C   UNL     1       2.395   1.392  -0.038  0.00  0.00    +0.048 A 
ATOM      4  C   UNL     1       2.433   0.004   0.004  0.00  0.00    +0.025 A 
ATOM      5  C   UNL     1       1.255  -0.718  -0.013  0.00  0.00    +0.008 A 
ATOM      6  C   UNL     1       0.040  -0.061  -0.071  0.00  0.00    -0.021 A 
ENDROOT
BRANCH   6   7
ATOM      7  C   UNL     1      -1.242  -0.852  -0.089  0.00  0.00    +0.133 C 
ATOM      8  C   UNL     1      -1.570  -1.345   1.303  0.00  0.00    +0.012 C 
ATOM      9  C   UNL     1      -1.585  -2.695   1.228  0.00  0.00    -0.002 A 
ATOM     10  C   UNL     1      -1.836  -3.743   2.225  0.00  0.00    +0.029 A 
ATOM     11  C   UNL     1      -1.780  -5.040   1.842  0.00  0.00    +0.042 A 
ATOM     12  C   UNL     1      -1.488  -5.406   0.519  0.00  0.00    +0.022 A 
ATOM     13  C   UNL     1      -1.246  -4.500  -0.451  0.00  0.00    +0.027 A 
ATOM     14  C   UNL     1      -1.280  -3.108  -0.160  0.00  0.00    +0.043 A 
ATOM     15  N   UNL     1      -1.084  -2.053  -0.916  0.00  0.00    -0.374 N 
ATOM     16 CL   UNL     1      -2.075  -6.283   3.018  0.00  0.00    -0.084 Cl
ATOM     17  H   UNL     1      -0.870  -2.065  -1.862  0.00  0.00    +0.161 HD
ENDBRANCH   6   7
BRANCH   3  18
ATOM     18  N   UNL     1       3.583   2.126  -0.021  0.00  0.00    -0.216 N 
ATOM     19  H   UNL     1       3.711   2.857  -0.645  0.00  0.00    +0.174 HD
BRANCH  18  20
ATOM     20  S   UNL     1       4.775   1.747   1.064  0.00  0.00    +0.072 S 
ATOM     21  O   UNL     1       5.025   0.355   0.923  0.00  0.00    -0.150 OA
ATOM     22  O   UNL     1       5.795   2.723   0.905  0.00  0.00    -0.150 OA
BRANCH  20  23
ATOM     23  C   UNL     1       4.104   1.978   2.677  0.00  0.00    +0.109 A 
ATOM     24  C   UNL     1       4.110   3.233   3.257  0.00  0.00    +0.029 A 
ATOM     25  C   UNL     1       3.585   3.405   4.521  0.00  0.00    +0.006 A 
ATOM     26  C   UNL     1       3.050   2.328   5.216  0.00  0.00    -0.044 A 
ATOM     27  C   UNL     1       3.039   1.079   4.636  0.00  0.00    -0.042 A 
ATOM     28  C   UNL     1       3.566   0.908   3.362  0.00  0.00    +0.032 A 
ATOM     29  C   UNL     1       2.461  -0.129   5.324  0.00  0.00    +0.035 C 
ATOM     30  C   UNL     1       2.324   0.120   6.824  0.00  0.00    +0.005 C 
ATOM     31  C   UNL     1       1.581   1.446   7.029  0.00  0.00    +0.005 C 
ATOM     32  C   UNL     1       2.501   2.586   6.595  0.00  0.00    +0.035 C 
ENDBRANCH  20  23
ENDBRANCH  18  20
ENDBRANCH   3  18
TORSDOF 4
