REMARK  Name = ZINC01143902
REMARK  10 active torsions:
REMARK  status: ('A' for Active; 'I' for Inactive)
REMARK    1  A    between atoms: C_1  and  C_2
REMARK    2  A    between atoms: C_2  and  O_3
REMARK    3  A    between atoms: O_3  and  C_4
REMARK    4  A    between atoms: C_6  and  C_14
REMARK    5  A    between atoms: C_9  and  O_10
REMARK    6  A    between atoms: O_10  and  C_11
REMARK    7  A    between atoms: C_11  and  C_12
REMARK    8  A    between atoms: C_17  and  C_28
REMARK    9  A    between atoms: C_23  and  N_27
REMARK   10  A    between atoms: C_24  and  C_25
REMARK                            x       y       z     vdW  Elec       q    Type
REMARK                         _______ _______ _______ _____ _____    ______ ____
ROOT
ATOM      1  C   UNL     1      -0.229  -4.968   0.478  0.00  0.00    +0.101 C 
ATOM      2  C   UNL     1       0.861  -5.840   1.047  0.00  0.00    +0.049 A 
ATOM      3  C   UNL     1       1.892  -5.505   1.915  0.00  0.00    +0.068 A 
ATOM      4  N   UNL     1       2.603  -6.585   2.139  0.00  0.00    -0.176 NA
ATOM      5  N   UNL     1       2.039  -7.646   1.413  0.00  0.00    -0.246 N 
ATOM      6  H   UNL     1       2.362  -8.560   1.394  0.00  0.00    +0.192 HD
ATOM      7  C   UNL     1       0.972  -7.170   0.751  0.00  0.00    +0.222 A 
ATOM      8  O   UNL     1       0.108  -7.811  -0.075  0.00  0.00    -0.423 OA
ATOM      9  C   UNL     1      -1.038  -7.175  -0.395  0.00  0.00    +0.200 C 
ATOM     10  C   UNL     1      -1.260  -5.862  -0.164  0.00  0.00    +0.098 C 
ATOM     11  C   UNL     1       2.149  -4.140   2.498  0.00  0.00    +0.068 C 
ENDROOT
BRANCH   1  14
ATOM     12  C   UNL     1       0.777  -1.811  -1.336  0.00  0.00    +0.163 A 
ATOM     13  C   UNL     1       0.243  -2.669  -0.388  0.00  0.00    +0.054 A 
ATOM     14  C   UNL     1       0.352  -4.037  -0.554  0.00  0.00    -0.030 A 
ATOM     15  C   UNL     1       0.992  -4.553  -1.666  0.00  0.00    +0.022 A 
ATOM     16  C   UNL     1       1.527  -3.702  -2.616  0.00  0.00    +0.059 A 
ATOM     17  C   UNL     1       1.416  -2.329  -2.458  0.00  0.00    +0.175 A 
ATOM     18  I   UNL     1       2.497  -4.488  -4.298  0.00  0.00    -0.040 I 
BRANCH  12  19
ATOM     19  O   UNL     1       0.671  -0.465  -1.174  0.00  0.00    -0.489 OA
BRANCH  19  21
ATOM     20  C   UNL     1      -0.019   1.526   0.010  0.00  0.00    +0.048 C 
ATOM     21  C   UNL     1       0.002  -0.004   0.002  0.00  0.00    +0.226 C 
ENDBRANCH  19  21
ENDBRANCH  12  19
BRANCH  17  22
ATOM     22  O   UNL     1       1.936  -1.492  -3.394  0.00  0.00    -0.488 OA
BRANCH  22  23
ATOM     23  C   UNL     1       3.293  -1.080  -3.215  0.00  0.00    +0.226 C 
ATOM     24  C   UNL     1       3.698  -0.147  -4.358  0.00  0.00    +0.048 C 
ENDBRANCH  22  23
ENDBRANCH  17  22
ENDBRANCH   1  14
BRANCH   9  25
ATOM     25  N   UNL     1      -2.037  -7.905  -0.990  0.00  0.00    -0.328 N 
ATOM     26  H   UNL     1      -1.907  -8.849  -1.169  0.00  0.00    +0.145 HD
ATOM     27  H   UNL     1      -2.873  -7.476  -1.232  0.00  0.00    +0.145 HD
ENDBRANCH   9  25
BRANCH  10  28
ATOM     28  C   UNL     1      -2.521  -5.297  -0.544  0.00  0.00    +0.101 C 
ATOM     29  N   UNL     1      -3.520  -4.850  -0.845  0.00  0.00    -0.191 NA
ENDBRANCH  10  28
TORSDOF 7
