REMARK  Name = ZINC39919008
REMARK  11 active torsions:
REMARK  status: ('A' for Active; 'I' for Inactive)
REMARK    1  A    between atoms: C_1  and  C_2
REMARK    2  A    between atoms: C_7  and  C_8
REMARK    3  A    between atoms: C_8  and  N_9
REMARK    4  A    between atoms: C_22  and  C_31
REMARK    5  A    between atoms: N_23  and  C_26
REMARK    6  A    between atoms: C_26  and  C_27
REMARK    7  A    between atoms: C_27  and  N_28
REMARK    8  A    between atoms: N_28  and  C_29
REMARK    9  A    between atoms: N_28  and  C_30
REMARK   10  A    between atoms: C_33  and  N_37
REMARK   11  A    between atoms: C_34  and  C_35
REMARK                            x       y       z     vdW  Elec       q    Type
REMARK                         _______ _______ _______ _____ _____    ______ ____
ROOT
ATOM      1  N   UNL     1      -1.389   0.091   3.019  0.00  0.00    -0.265 N 
ATOM      2  C   UNL     1      -2.123   1.206   2.658  0.00  0.00    +0.041 A 
ATOM      3  C   UNL     1      -1.752   2.294   1.866  0.00  0.00    +0.024 A 
ATOM      4  C   UNL     1      -2.699   3.285   1.665  0.00  0.00    +0.002 A 
ATOM      5  C   UNL     1      -3.961   3.212   2.219  0.00  0.00    +0.000 A 
ATOM      6  C   UNL     1      -4.344   2.134   3.009  0.00  0.00    +0.007 A 
ATOM      7  C   UNL     1      -3.407   1.144   3.211  0.00  0.00    -0.001 A 
ATOM      8  C   UNL     1      -3.470  -0.137   3.984  0.00  0.00    +0.147 C 
ATOM      9  C   UNL     1      -2.099  -0.754   3.793  0.00  0.00    +0.241 C 
ATOM     10  O   UNL     1      -1.714  -1.809   4.252  0.00  0.00    -0.274 OA
ATOM     11  C   UNL     1      -3.721   0.124   5.441  0.00  0.00    +0.084 A 
ATOM     12  C   UNL     1      -4.948  -0.164   6.003  0.00  0.00    +0.142 A 
ATOM     13  C   UNL     1      -5.147   0.092   7.375  0.00  0.00    +0.068 A 
ATOM     14  C   UNL     1      -4.144   0.615   8.113  0.00  0.00    +0.022 A 
ATOM     15  N   UNL     1      -2.939   0.898   7.551  0.00  0.00    -0.314 N 
ATOM     16  C   UNL     1      -2.710   0.665   6.245  0.00  0.00    +0.260 A 
ATOM     17  O   UNL     1      -1.620   0.926   5.761  0.00  0.00    -0.267 OA
ATOM     18  C   UNL     1      -4.363   0.888   9.579  0.00  0.00    +0.064 C 
ATOM     19  O   UNL     1      -5.950  -0.681   5.261  0.00  0.00    -0.441 OA
ATOM     20  C   UNL     1      -5.683  -1.268   4.082  0.00  0.00    +0.199 C 
ATOM     21  C   UNL     1      -4.520  -1.051   3.421  0.00  0.00    +0.110 C 
ENDROOT
BRANCH  20  22
ATOM     22  N   UNL     1      -6.615  -2.112   3.531  0.00  0.00    -0.328 N 
ATOM     23  H   UNL     1      -7.452  -2.278   3.993  0.00  0.00    +0.145 HD
ATOM     24  H   UNL     1      -6.436  -2.543   2.681  0.00  0.00    +0.145 HD
ENDBRANCH  20  22
BRANCH  21  25
ATOM     25  C   UNL     1      -4.289  -1.702   2.166  0.00  0.00    +0.102 C 
ATOM     26  N   UNL     1      -4.106  -2.218   1.171  0.00  0.00    -0.191 NA
ENDBRANCH  21  25
BRANCH   1  27
ATOM     27  C   UNL     1      -0.004  -0.147   2.604  0.00  0.00    +0.149 C 
BRANCH  27  34
ATOM     28  C   UNL     1       2.492  -1.034   1.450  0.00  0.00    +0.044 C 
ATOM     29  C   UNL     1       1.203  -1.221   0.693  0.00  0.00    -0.046 A 
ATOM     30  C   UNL     1       1.214  -1.823  -0.552  0.00  0.00    +0.003 A 
ATOM     31  C   UNL     1       0.032  -1.995  -1.247  0.00  0.00    +0.000 A 
ATOM     32  C   UNL     1      -1.162  -1.566  -0.697  0.00  0.00    +0.000 A 
ATOM     33  C   UNL     1      -1.173  -0.965   0.548  0.00  0.00    +0.005 A 
ATOM     34  C   UNL     1       0.009  -0.797   1.245  0.00  0.00    -0.027 A 
ENDBRANCH  27  34
ENDBRANCH   1  27
BRANCH  15  35
ATOM     35  C   UNL     1      -1.873   1.466   8.380  0.00  0.00    +0.106 C 
BRANCH  35  36
ATOM     36  C   UNL     1      -1.041   0.334   8.987  0.00  0.00    -0.058 C 
BRANCH  36  37
ATOM     37  N   UNL     1       0.028   0.903   9.818  0.00  0.00    +0.377 N 
ATOM     38  C   UNL     1      -0.564   1.606  10.963  0.00  0.00    -0.097 C 
ATOM     39  C   UNL     1       0.898  -0.177  10.303  0.00  0.00    -0.097 C 
ATOM     40  H   UNL     1       0.571   1.552   9.269  0.00  0.00    -0.083 HD
ENDBRANCH  36  37
ENDBRANCH  35  36
ENDBRANCH  15  35
TORSDOF 7
