REMARK  Name = ZINC02186299
REMARK  11 active torsions:
REMARK  status: ('A' for Active; 'I' for Inactive)
REMARK    1  A    between atoms: C_1  and  C_2
REMARK    2  A    between atoms: C_2  and  O_3
REMARK    3  A    between atoms: O_3  and  C_4
REMARK    4  A    between atoms: C_4  and  C_6
REMARK    5  A    between atoms: C_7  and  C_38
REMARK    6  A    between atoms: C_14  and  C_15
REMARK    7  A    between atoms: C_18  and  N_20
REMARK    8  A    between atoms: C_27  and  C_29
REMARK    9  A    between atoms: C_32  and  C_35
REMARK   10  A    between atoms: C_35  and  C_36
REMARK   11  A    between atoms: C_35  and  C_37
REMARK                            x       y       z     vdW  Elec       q    Type
REMARK                         _______ _______ _______ _____ _____    ______ ____
ROOT
ATOM      1  C   UNL     1       3.656   2.385  -0.074  0.00  0.00    +0.085 C 
ATOM      2  C   UNL     1       3.321   3.709   0.010  0.00  0.00    +0.053 C 
ATOM      3  N   UNL     1       2.049   4.080   0.076  0.00  0.00    -0.228 NA
ATOM      4  C   UNL     1       1.029   3.258   0.070  0.00  0.00    +0.178 A 
ATOM      5  N   UNL     1       1.145   1.890  -0.008  0.00  0.00    -0.275 N 
ATOM      6  C   UNL     1       0.023   1.159  -0.006  0.00  0.00    +0.268 A 
ATOM      7  O   UNL     1       0.067  -0.057  -0.073  0.00  0.00    -0.266 OA
ATOM      8  C   UNL     1      -1.217   1.840   0.071  0.00  0.00    +0.084 A 
ATOM      9  C   UNL     1      -2.497   1.327   0.084  0.00  0.00    +0.067 C 
ATOM     10  S   UNL     1      -0.678   3.540   0.148  0.00  0.00    -0.046 S 
ATOM     11  C   UNL     1       2.538   1.368  -0.088  0.00  0.00    +0.162 C 
ATOM     12  C   UNL     1       4.406   4.754   0.027  0.00  0.00    +0.066 C 
ENDROOT
BRANCH  11  13
ATOM     13  C   UNL     1       2.659   0.563  -1.356  0.00  0.00    -0.020 A 
ATOM     14  C   UNL     1       2.049   1.003  -2.515  0.00  0.00    +0.006 A 
ATOM     15  C   UNL     1       2.165   0.267  -3.679  0.00  0.00    +0.004 A 
ATOM     16  C   UNL     1       2.882  -0.914  -3.682  0.00  0.00    -0.045 A 
ATOM     17  C   UNL     1       3.489  -1.357  -2.521  0.00  0.00    +0.004 A 
ATOM     18  C   UNL     1       3.377  -0.618  -1.358  0.00  0.00    +0.006 A 
BRANCH  16  19
ATOM     19  C   UNL     1       3.004  -1.720  -4.949  0.00  0.00    +0.013 C 
ATOM     20  C   UNL     1       1.610  -2.133  -5.426  0.00  0.00    +0.012 C 
ATOM     21  C   UNL     1       3.682  -0.874  -6.029  0.00  0.00    +0.012 C 
ENDBRANCH  16  19
ENDBRANCH  11  13
BRANCH   9  22
ATOM     22  C   UNL     1      -3.601   2.193   0.166  0.00  0.00    +0.131 A 
ATOM     23  C   UNL     1      -4.934   1.816   0.189  0.00  0.00    +0.051 A 
ATOM     24  C   UNL     1      -5.682   2.992   0.277  0.00  0.00    +0.066 A 
ATOM     25  C   UNL     1      -4.798   4.032   0.305  0.00  0.00    +0.189 A 
ATOM     26  O   UNL     1      -3.550   3.543   0.244  0.00  0.00    -0.442 OA
BRANCH  25  27
ATOM     27  N   UNL     1      -5.133   5.369   0.389  0.00  0.00    -0.301 N 
ATOM     28  C   UNL     1      -6.044   5.751  -0.697  0.00  0.00    +0.108 C 
ATOM     29  C   UNL     1      -6.508   7.195  -0.490  0.00  0.00    +0.019 C 
ATOM     30  C   UNL     1      -5.288   8.120  -0.473  0.00  0.00    +0.003 C 
ATOM     31  C   UNL     1      -4.332   7.670   0.635  0.00  0.00    +0.019 C 
ATOM     32  C   UNL     1      -3.931   6.213   0.396  0.00  0.00    +0.108 C 
ENDBRANCH  25  27
ENDBRANCH   9  22
BRANCH   1  33
ATOM     33  C   UNL     1       4.999   1.984  -0.145  0.00  0.00    +0.339 C 
ATOM     34  O   UNL     1       5.880   2.819  -0.242  0.00  0.00    -0.245 OA
BRANCH  33  35
ATOM     35  O   UNL     1       5.314   0.670  -0.104  0.00  0.00    -0.462 OA
BRANCH  35  37
ATOM     36  C   UNL     1       6.860  -1.187  -0.120  0.00  0.00    +0.048 C 
ATOM     37  C   UNL     1       6.700   0.333  -0.181  0.00  0.00    +0.229 C 
ENDBRANCH  35  37
ENDBRANCH  33  35
ENDBRANCH   1  33
TORSDOF 7
