REMARK  Name = ZINC38828198
REMARK  5 active torsions:
REMARK  status: ('A' for Active; 'I' for Inactive)
REMARK    1  A    between atoms: C_1  and  C_2
REMARK    2  A    between atoms: C_5  and  N_9
REMARK    3  A    between atoms: C_10  and  C_12
REMARK    4  A    between atoms: C_28  and  C_35
REMARK    5  A    between atoms: C_31  and  C_34
REMARK                            x       y       z     vdW  Elec       q    Type
REMARK                         _______ _______ _______ _____ _____    ______ ____
ROOT
ATOM      1  C   UNL     1      -0.015  -6.343  -1.014  0.00  0.00    +0.122 C 
ATOM      2  C   UNL     1      -1.301  -6.785  -0.312  0.00  0.00    +0.114 C 
ATOM      3  C   UNL     1      -1.487  -8.269  -0.483  0.00  0.00    +0.219 C 
ATOM      4  O   UNL     1      -1.946  -8.925   0.428  0.00  0.00    -0.275 OA
ATOM      5  N   UNL     1      -1.150  -8.875  -1.634  0.00  0.00    -0.270 N 
ATOM      6  C   UNL     1      -0.527  -8.173  -2.652  0.00  0.00    +0.138 A 
ATOM      7  C   UNL     1       0.029  -6.932  -2.399  0.00  0.00    +0.069 A 
ATOM      8  C   UNL     1       0.634  -6.231  -3.447  0.00  0.00    +0.258 A 
ATOM      9  O   UNL     1       1.125  -5.129  -3.258  0.00  0.00    -0.267 OA
ATOM     10  N   UNL     1       0.666  -6.799  -4.672  0.00  0.00    -0.295 N 
ATOM     11  H   UNL     1       1.067  -6.324  -5.416  0.00  0.00    +0.172 HD
ATOM     12  C   UNL     1       0.135  -8.037  -4.862  0.00  0.00    +0.200 A 
ATOM     13  N   UNL     1      -0.437  -8.699  -3.878  0.00  0.00    -0.200 NA
ATOM     14  N   UNL     1       0.197  -8.608  -6.105  0.00  0.00    -0.301 N 
ATOM     15  C   UNL     1       0.733  -7.857  -7.248  0.00  0.00    +0.111 C 
ATOM     16  C   UNL     1       1.843  -8.683  -7.905  0.00  0.00    +0.004 C 
ATOM     17  C   UNL     1       1.299 -10.068  -8.263  0.00  0.00    +0.009 C 
ATOM     18  C   UNL     1       0.851 -10.787  -6.989  0.00  0.00    +0.004 C 
ATOM     19  C   UNL     1      -0.265  -9.986  -6.320  0.00  0.00    +0.111 C 
ATOM     20  C   UNL     1       0.338 -12.184  -7.344  0.00  0.00    +0.009 C 
ATOM     21  C   UNL     1       2.322  -7.978  -9.176  0.00  0.00    +0.009 C 
ATOM     22  H   UNL     1      -1.345  -9.818  -1.754  0.00  0.00    +0.156 HD
ENDROOT
BRANCH   1  24
ATOM     23  N   UNL     1       1.068  -4.156  -0.613  0.00  0.00    -0.283 N 
ATOM     24  C   UNL     1       0.016  -4.840  -1.106  0.00  0.00    +0.225 C 
ATOM     25  O   UNL     1      -0.905  -4.245  -1.624  0.00  0.00    -0.275 OA
ATOM     26  H   UNL     1       1.840  -4.634  -0.272  0.00  0.00    +0.155 HD
BRANCH  23  31
ATOM     27  C   UNL     1       0.976   1.518  -0.531  0.00  0.00    +0.044 C 
ATOM     28  C   UNL     1       1.002   0.012  -0.553  0.00  0.00    -0.048 A 
ATOM     29  C   UNL     1      -0.185  -0.698  -0.557  0.00  0.00    +0.005 A 
ATOM     30  C   UNL     1      -0.166  -2.079  -0.577  0.00  0.00    +0.026 A 
ATOM     31  C   UNL     1       1.046  -2.756  -0.594  0.00  0.00    +0.069 A 
ATOM     32  C   UNL     1       2.238  -2.040  -0.590  0.00  0.00    +0.145 A 
ATOM     33  C   UNL     1       2.212  -0.657  -0.575  0.00  0.00    +0.043 A 
ATOM     34  F   UNL     1       3.420  -2.694  -0.606  0.00  0.00    -0.204 F 
ENDBRANCH  23  31
ENDBRANCH   1  24
TORSDOF 2
