REMARK  Name = ZINC39489534
REMARK  7 active torsions:
REMARK  status: ('A' for Active; 'I' for Inactive)
REMARK    1  A    between atoms: C_1  and  C_2
REMARK    2  A    between atoms: C_2  and  C_4
REMARK    3  A    between atoms: C_2  and  N_12
REMARK    4  A    between atoms: C_13  and  C_15
REMARK    5  A    between atoms: C_15  and  C_17
REMARK    6  A    between atoms: C_15  and  N_18
REMARK    7  A    between atoms: C_25  and  N_29
REMARK                            x       y       z     vdW  Elec       q    Type
REMARK                         _______ _______ _______ _____ _____    ______ ____
ROOT
ATOM      1  C   UNL     1       0.526  -1.222   3.593  0.00  0.00    +0.167 C 
ATOM      2  C   UNL     1       1.176  -2.581   3.321  0.00  0.00    +0.038 C 
ENDROOT
BRANCH   1   3
ATOM      3  N   UNL     1      -0.491  -1.368   4.637  0.00  0.00    -0.222 N 
ATOM      4  C   UNL     1      -1.566  -2.172   4.545  0.00  0.00    +0.255 C 
ATOM      5  O   UNL     1      -1.842  -2.881   3.599  0.00  0.00    -0.270 OA
ATOM      6  C   UNL     1      -2.354  -2.048   5.790  0.00  0.00    +0.052 A 
ATOM      7  C   UNL     1      -3.529  -2.620   6.252  0.00  0.00    +0.014 A 
ATOM      8  C   UNL     1      -4.013  -2.277   7.505  0.00  0.00    +0.003 A 
ATOM      9  C   UNL     1      -3.332  -1.369   8.295  0.00  0.00    +0.033 A 
ATOM     10  C   UNL     1      -2.156  -0.789   7.846  0.00  0.00    +0.139 A 
ATOM     11  C   UNL     1      -1.660  -1.123   6.595  0.00  0.00    +0.080 A 
ATOM     12  C   UNL     1      -0.471  -0.720   5.816  0.00  0.00    +0.257 C 
ATOM     13  O   UNL     1       0.381   0.067   6.177  0.00  0.00    -0.269 OA
BRANCH  10  14
ATOM     14  N   UNL     1      -1.433   0.181   8.697  0.00  0.00    +0.057 N 
ATOM     15  O   UNL     1      -1.868   0.470   9.788  0.00  0.00    -0.126 OA
ATOM     16  O   UNL     1      -0.408   0.686   8.303  0.00  0.00    -0.126 OA
ENDBRANCH  10  14
ENDBRANCH   1   3
BRANCH   1  18
ATOM     17  N   UNL     1       0.629  -0.500   1.230  0.00  0.00    -0.307 N 
ATOM     18  C   UNL     1      -0.119  -0.712   2.330  0.00  0.00    +0.234 C 
ATOM     19  O   UNL     1      -1.311  -0.491   2.305  0.00  0.00    -0.274 OA
ATOM     20  H   UNL     1       1.583  -0.677   1.250  0.00  0.00    +0.149 HD
BRANCH  17  22
ATOM     21  C   UNL     1      -0.037   1.525   0.032  0.00  0.00    +0.033 C 
ATOM     22  C   UNL     1       0.002  -0.004   0.002  0.00  0.00    +0.102 C 
BRANCH  22  23
ATOM     23  C   UNL     1       0.800  -0.463  -1.191  0.00  0.00    -0.009 A 
ATOM     24  C   UNL     1       2.154  -0.715  -1.061  0.00  0.00    +0.008 A 
ATOM     25  C   UNL     1       2.886  -1.136  -2.155  0.00  0.00    +0.020 A 
ATOM     26  C   UNL     1       2.266  -1.305  -3.380  0.00  0.00    +0.042 A 
ATOM     27  C   UNL     1       0.912  -1.053  -3.510  0.00  0.00    +0.040 A 
ATOM     28  C   UNL     1       0.178  -0.637  -2.414  0.00  0.00    +0.047 A 
ATOM     29 CL   UNL     1      -1.522  -0.326  -2.575  0.00  0.00    -0.083 Cl
ATOM     30 CL   UNL     1       3.187  -1.833  -4.754  0.00  0.00    -0.083 Cl
ENDBRANCH  22  23
ENDBRANCH  17  22
ENDBRANCH   1  18
TORSDOF 5
