REMARK  Name = ZINC49554670
REMARK  8 active torsions:
REMARK  status: ('A' for Active; 'I' for Inactive)
REMARK    1  A    between atoms: C_1  and  C_2
REMARK    2  A    between atoms: C_2  and  C_3
REMARK    3  A    between atoms: C_2  and  C_4
REMARK    4  A    between atoms: C_4  and  C_6
REMARK    5  A    between atoms: C_4  and  N_11
REMARK    6  A    between atoms: N_11  and  S_12
REMARK    7  A    between atoms: S_12  and  C_15
REMARK    8  A    between atoms: C_20  and  N_21
REMARK                            x       y       z     vdW  Elec       q    Type
REMARK                         _______ _______ _______ _____ _____    ______ ____
ROOT
ATOM      1  S   UNL     1      -2.095  -2.590   1.694  0.00  0.00    +0.061 S 
ATOM      2  O   UNL     1      -2.306  -3.990   1.579  0.00  0.00    -0.153 OA
ATOM      3  O   UNL     1      -1.110  -2.037   2.556  0.00  0.00    -0.153 OA
ENDROOT
BRANCH   1   4
ATOM      4  C   UNL     1      -3.637  -1.886   2.175  0.00  0.00    +0.127 A 
ATOM      5  C   UNL     1      -3.694  -1.007   3.240  0.00  0.00    +0.045 A 
ATOM      6  C   UNL     1      -4.904  -0.455   3.618  0.00  0.00    +0.020 A 
ATOM      7  C   UNL     1      -6.061  -0.780   2.932  0.00  0.00    +0.017 A 
ATOM      8  C   UNL     1      -6.011  -1.658   1.868  0.00  0.00    +0.026 A 
ATOM      9  C   UNL     1      -4.796  -2.210   1.482  0.00  0.00    +0.051 A 
ATOM     10 BR   UNL     1      -4.978   0.747   5.076  0.00  0.00    -0.050 Br
BRANCH   9  11
ATOM     11  N   UNL     1      -4.740  -3.094   0.401  0.00  0.00    -0.356 N 
ATOM     12  H   UNL     1      -3.903  -3.525   0.169  0.00  0.00    +0.142 HD
ATOM     13  H   UNL     1      -5.540  -3.277  -0.117  0.00  0.00    +0.142 HD
ENDBRANCH   9  11
ENDBRANCH   1   4
BRANCH   1  14
ATOM     14  N   UNL     1      -1.758  -2.035   0.171  0.00  0.00    -0.182 NA
ATOM     15  H   UNL     1      -1.692  -2.658  -0.569  0.00  0.00    +0.149 HD
BRANCH  14  16
ATOM     16  C   UNL     1      -1.557  -0.602  -0.059  0.00  0.00    +0.116 C 
BRANCH  16  17
ATOM     17  C   UNL     1      -2.592  -0.100  -1.033  0.00  0.00    +0.009 A 
ATOM     18  C   UNL     1      -3.277   1.069  -1.023  0.00  0.00    +0.013 A 
ATOM     19  C   UNL     1      -4.189   1.321  -2.031  0.00  0.00    +0.008 A 
ATOM     20  C   UNL     1      -4.369   0.391  -3.001  0.00  0.00    +0.045 A 
ATOM     21  S   UNL     1      -3.227  -0.887  -2.504  0.00  0.00    -0.100 S 
ENDBRANCH  16  17
BRANCH  16  23
ATOM     22  C   UNL     1       0.077   1.134  -0.806  0.00  0.00    +0.009 C 
ATOM     23  C   UNL     1      -0.159  -0.368  -0.634  0.00  0.00    +0.006 C 
ATOM     24  C   UNL     1       0.888  -0.943   0.321  0.00  0.00    +0.009 C 
ENDBRANCH  16  23
ENDBRANCH  14  16
ENDBRANCH   1  14
TORSDOF 6
