REMARK  Name = ZINC40045256
REMARK  10 active torsions:
REMARK  status: ('A' for Active; 'I' for Inactive)
REMARK    1  A    between atoms: C_1  and  C_2
REMARK    2  A    between atoms: C_2  and  C_3
REMARK    3  A    between atoms: C_3  and  O_4
REMARK    4  A    between atoms: O_4  and  C_5
REMARK    5  A    between atoms: C_8  and  C_14
REMARK    6  A    between atoms: C_10  and  O_11
REMARK    7  A    between atoms: O_11  and  C_12
REMARK    8  A    between atoms: C_12  and  C_13
REMARK    9  A    between atoms: C_21  and  C_37
REMARK   10  A    between atoms: C_37  and  C_38
REMARK                            x       y       z     vdW  Elec       q    Type
REMARK                         _______ _______ _______ _____ _____    ______ ____
ROOT
ATOM      1  C   UNL     1       3.349  -4.483   5.547  0.00  0.00    +0.151 C 
ATOM      2  C   UNL     1       4.829  -4.449   5.352  0.00  0.00    +0.072 A 
ATOM      3  C   UNL     1       5.678  -5.014   4.298  0.00  0.00    +0.199 A 
ATOM      4  O   UNL     1       5.235  -5.492   3.269  0.00  0.00    -0.287 OA
ATOM      5  C   UNL     1       7.130  -4.949   4.606  0.00  0.00    +0.065 A 
ATOM      6  C   UNL     1       8.053  -5.619   3.803  0.00  0.00    +0.019 A 
ATOM      7  C   UNL     1       9.385  -5.553   4.101  0.00  0.00    -0.047 A 
ATOM      8  C   UNL     1       9.819  -4.823   5.200  0.00  0.00    +0.007 A 
ATOM      9  C   UNL     1       8.922  -4.154   6.002  0.00  0.00    +0.047 A 
ATOM     10  C   UNL     1       7.558  -4.204   5.717  0.00  0.00    +0.139 A 
ATOM     11  O   UNL     1       6.695  -3.532   6.513  0.00  0.00    -0.450 OA
ATOM     12  C   UNL     1       5.371  -3.751   6.394  0.00  0.00    +0.199 A 
ATOM     13  C   UNL     1       4.276  -3.326   7.283  0.00  0.00    +0.288 C 
ATOM     14  O   UNL     1       4.420  -2.687   8.307  0.00  0.00    -0.266 OA
ATOM     15  N   UNL     1       3.090  -3.749   6.796  0.00  0.00    -0.238 N 
ATOM     16  C   UNL     1       1.841  -3.530   7.373  0.00  0.00    +0.129 A 
ATOM     17  C   UNL     1       0.712  -4.120   6.816  0.00  0.00    +0.045 A 
ATOM     18  C   UNL     1      -0.522  -3.894   7.399  0.00  0.00    +0.025 A 
ATOM     19  C   UNL     1      -0.585  -3.083   8.525  0.00  0.00    +0.059 A 
ATOM     20  C   UNL     1       0.578  -2.529   9.025  0.00  0.00    +0.132 A 
ATOM     21  N   UNL     1       1.742  -2.766   8.450  0.00  0.00    -0.238 NA
ATOM     22 CL   UNL     1      -2.109  -2.767   9.295  0.00  0.00    -0.082 Cl
ENDROOT
BRANCH   1  26
ATOM     23  C   UNL     1       1.386  -2.554   2.274  0.00  0.00    +0.162 A 
ATOM     24  C   UNL     1       1.962  -1.799   3.283  0.00  0.00    +0.050 A 
ATOM     25  C   UNL     1       2.595  -2.425   4.340  0.00  0.00    +0.009 A 
ATOM     26  C   UNL     1       2.656  -3.805   4.393  0.00  0.00    -0.018 A 
ATOM     27  C   UNL     1       2.084  -4.565   3.389  0.00  0.00    +0.055 A 
ATOM     28  C   UNL     1       1.442  -3.944   2.330  0.00  0.00    +0.162 A 
BRANCH  23  29
ATOM     29  O   UNL     1       0.761  -1.940   1.234  0.00  0.00    -0.488 OA
BRANCH  29  30
ATOM     30  C   UNL     1       0.742  -0.511   1.242  0.00  0.00    +0.229 C 
BRANCH  30  32
ATOM     31  C   UNL     1      -0.019   1.526   0.010  0.00  0.00    +0.007 C 
ATOM     32  C   UNL     1       0.002  -0.004   0.002  0.00  0.00    +0.038 C 
ENDBRANCH  30  32
ENDBRANCH  29  30
ENDBRANCH  23  29
BRANCH  28  33
ATOM     33  O   UNL     1       0.874  -4.690   1.346  0.00  0.00    -0.489 OA
BRANCH  33  34
ATOM     34  C   UNL     1       0.971  -6.110   1.470  0.00  0.00    +0.226 C 
ATOM     35  C   UNL     1       0.279  -6.774   0.278  0.00  0.00    +0.048 C 
ENDBRANCH  33  34
ENDBRANCH  28  33
ENDBRANCH   1  26
BRANCH   7  36
ATOM     36  C   UNL     1      10.385  -6.275   3.236  0.00  0.00    +0.032 C 
ATOM     37  C   UNL     1      10.852  -5.346   2.113  0.00  0.00    +0.009 C 
ENDBRANCH   7  36
TORSDOF 7
