REMARK  Name = ZINC14506670
REMARK  10 active torsions:
REMARK  status: ('A' for Active; 'I' for Inactive)
REMARK    1  A    between atoms: C_1  and  O_2
REMARK    2  A    between atoms: O_2  and  C_3
REMARK    3  A    between atoms: C_3  and  C_4
REMARK    4  A    between atoms: C_4  and  N_5
REMARK    5  A    between atoms: C_6  and  N_33
REMARK    6  A    between atoms: C_7  and  N_14
REMARK    7  A    between atoms: N_14  and  C_15
REMARK    8  A    between atoms: C_15  and  C_16
REMARK    9  A    between atoms: C_22  and  C_24
REMARK   10  A    between atoms: C_25  and  C_26
REMARK                            x       y       z     vdW  Elec       q    Type
REMARK                         _______ _______ _______ _____ _____    ______ ____
ROOT
ATOM      1  N   UNL     1       4.062  -1.038  -1.425  0.00  0.00    -0.256 N 
ATOM      2  C   UNL     1       3.591  -2.150  -2.023  0.00  0.00    +0.244 C 
ATOM      3  O   UNL     1       3.829  -2.356  -3.200  0.00  0.00    -0.270 OA
ENDROOT
BRANCH   1   6
ATOM      4  N   UNL     1       7.058   0.845  -2.413  0.00  0.00    -0.278 N 
ATOM      5  C   UNL     1       6.235  -0.003  -1.710  0.00  0.00    +0.127 A 
ATOM      6  C   UNL     1       4.930  -0.175  -2.125  0.00  0.00    +0.140 A 
ATOM      7  C   UNL     1       4.483   0.522  -3.264  0.00  0.00    +0.277 A 
ATOM      8  O   UNL     1       3.336   0.385  -3.656  0.00  0.00    -0.266 OA
ATOM      9  N   UNL     1       5.329   1.345  -3.914  0.00  0.00    -0.273 N 
ATOM     10  H   UNL     1       5.009   1.847  -4.718  0.00  0.00    +0.173 HD
ATOM     11  C   UNL     1       6.597   1.499  -3.494  0.00  0.00    +0.331 A 
ATOM     12  O   UNL     1       7.340   2.244  -4.103  0.00  0.00    -0.246 OA
BRANCH   5  13
ATOM     13  N   UNL     1       6.707  -0.672  -0.605  0.00  0.00    -0.343 N 
ATOM     14  H   UNL     1       6.146  -1.323  -0.156  0.00  0.00    +0.144 HD
ATOM     15  H   UNL     1       7.601  -0.492  -0.275  0.00  0.00    +0.144 HD
ENDBRANCH   5  13
BRANCH   4  16
ATOM     16  C   UNL     1       8.446   1.036  -1.984  0.00  0.00    +0.156 C 
BRANCH  16  17
ATOM     17  C   UNL     1       9.341   0.006  -2.675  0.00  0.00    +0.181 C 
BRANCH  17  19
ATOM     18  C   UNL     1      10.155  -0.666  -4.827  0.00  0.00    +0.194 C 
ATOM     19  O   UNL     1       9.345   0.246  -4.083  0.00  0.00    -0.381 OA
ENDBRANCH  17  19
ENDBRANCH  16  17
ENDBRANCH   4  16
ENDBRANCH   1   6
BRANCH   2  20
ATOM     20  C   UNL     1       2.792  -3.109  -1.259  0.00  0.00    +0.068 C 
ATOM     21  C   UNL     1       2.320  -4.222  -1.858  0.00  0.00    +0.014 C 
BRANCH  21  22
ATOM     22  C   UNL     1       1.517  -5.186  -1.089  0.00  0.00    -0.011 A 
ATOM     23  C   UNL     1       1.241  -4.953   0.262  0.00  0.00    +0.009 A 
ATOM     24  C   UNL     1       0.488  -5.861   0.975  0.00  0.00    +0.001 A 
ATOM     25  C   UNL     1       0.005  -7.002   0.357  0.00  0.00    +0.001 A 
ATOM     26  C   UNL     1       0.273  -7.241  -0.979  0.00  0.00    +0.016 A 
ATOM     27  C   UNL     1       1.021  -6.339  -1.708  0.00  0.00    +0.025 A 
ATOM     28 BR   UNL     1       1.380  -6.663  -3.536  0.00  0.00    -0.050 Br
ENDBRANCH  21  22
ENDBRANCH   2  20
BRANCH   1  29
ATOM     29  C   UNL     1       3.673  -0.726  -0.048  0.00  0.00    +0.149 C 
BRANCH  29  30
ATOM     30  C   UNL     1       2.369   0.030  -0.053  0.00  0.00    -0.030 A 
ATOM     31  C   UNL     1       1.171  -0.659  -0.089  0.00  0.00    +0.005 A 
ATOM     32  C   UNL     1      -0.025   0.033  -0.094  0.00  0.00    +0.000 A 
ATOM     33  C   UNL     1      -0.023   1.415  -0.063  0.00  0.00    +0.000 A 
ATOM     34  C   UNL     1       1.175   2.104  -0.027  0.00  0.00    +0.000 A 
ATOM     35  C   UNL     1       2.371   1.412  -0.022  0.00  0.00    +0.005 A 
ENDBRANCH  29  30
ENDBRANCH   1  29
TORSDOF 9
