REMARK  Name = ZINC06952798
REMARK  4 active torsions:
REMARK  status: ('A' for Active; 'I' for Inactive)
REMARK    1  A    between atoms: C_1  and  O_2
REMARK    2  A    between atoms: O_2  and  C_3
REMARK    3  A    between atoms: C_6  and  N_26
REMARK    4  A    between atoms: C_10  and  C_19
REMARK                            x       y       z     vdW  Elec       q    Type
REMARK                         _______ _______ _______ _____ _____    ______ ____
ROOT
ATOM      1  C   UNL     1      -1.976   1.163   1.349  0.00  0.00    +0.141 A 
ATOM      2  C   UNL     1      -2.562   0.323   0.422  0.00  0.00    +0.050 A 
ATOM      3  C   UNL     1      -3.876  -0.078   0.581  0.00  0.00    +0.037 A 
ATOM      4  C   UNL     1      -4.606   0.381   1.662  0.00  0.00    +0.132 A 
ATOM      5  C   UNL     1      -4.033   1.231   2.585  0.00  0.00    +0.014 A 
ATOM      6  C   UNL     1      -2.701   1.628   2.452  0.00  0.00    +0.076 A 
ATOM      7  N   UNL     1      -2.035   2.448   3.365  0.00  0.00    -0.334 N 
ATOM      8  C   UNL     1      -2.828   2.997   4.449  0.00  0.00    +0.105 C 
ATOM      9  C   UNL     1      -3.799   1.931   4.912  0.00  0.00    +0.029 C 
ATOM     10  C   UNL     1      -4.802   1.770   3.728  0.00  0.00    +0.051 C 
ATOM     11  C   UNL     1      -5.937   1.041   4.345  0.00  0.00    -0.023 C 
ATOM     12  C   UNL     1      -5.979   1.343   5.639  0.00  0.00    -0.030 C 
ATOM     13  C   UNL     1      -4.827   2.287   5.992  0.00  0.00    +0.033 C 
ATOM     14  H   UNL     1      -1.209   1.993   3.723  0.00  0.00    +0.147 HD
ENDROOT
BRANCH   8  15
ATOM     15  C   UNL     1      -1.930   3.404   5.588  0.00  0.00    -0.027 A 
ATOM     16  C   UNL     1      -0.847   2.615   5.929  0.00  0.00    +0.006 A 
ATOM     17  C   UNL     1      -0.019   2.990   6.971  0.00  0.00    +0.015 A 
ATOM     18  C   UNL     1      -0.282   4.149   7.680  0.00  0.00    +0.018 A 
ATOM     19  C   UNL     1      -1.369   4.934   7.342  0.00  0.00    +0.015 A 
ATOM     20  C   UNL     1      -2.192   4.562   6.296  0.00  0.00    +0.006 A 
ATOM     21 BR   UNL     1       0.845   4.658   9.111  0.00  0.00    -0.050 Br
ENDBRANCH   8  15
BRANCH   4  22
ATOM     22  N   UNL     1      -6.014  -0.043   1.829  0.00  0.00    +0.057 N 
ATOM     23  O   UNL     1      -6.300  -1.227   1.809  0.00  0.00    -0.126 OA
ATOM     24  O   UNL     1      -6.886   0.791   1.988  0.00  0.00    -0.126 OA
ENDBRANCH   4  22
BRANCH   1  26
ATOM     25  C   UNL     1       0.005   1.038   0.039  0.00  0.00    +0.277 C 
ATOM     26  O   UNL     1      -0.681   1.546   1.184  0.00  0.00    -0.493 OA
ENDBRANCH   1  26
TORSDOF 3
