REMARK  Name = ZINC01169078
REMARK  5 active torsions:
REMARK  status: ('A' for Active; 'I' for Inactive)
REMARK    1  A    between atoms: C_1  and  C_2
REMARK    2  A    between atoms: C_5  and  C_7
REMARK    3  A    between atoms: C_19  and  S_22
REMARK    4  A    between atoms: S_22  and  C_23
REMARK    5  A    between atoms: C_23  and  C_24
REMARK                            x       y       z     vdW  Elec       q    Type
REMARK                         _______ _______ _______ _____ _____    ______ ____
ROOT
ATOM      1  C   UNL     1       4.402   2.053  -1.261  0.00  0.00    +0.329 C 
ATOM      2  N   UNL     1       3.591   2.117  -0.049  0.00  0.00    -0.303 N 
ATOM      3  C   UNL     1       2.376   1.427  -0.013  0.00  0.00    +0.040 A 
ATOM      4  C   UNL     1       1.167   2.096   0.002  0.00  0.00    +0.024 A 
ATOM      5  C   UNL     1      -0.017   1.380   0.010  0.00  0.00    +0.002 A 
ATOM      6  C   UNL     1       0.002  -0.004   0.002  0.00  0.00    +0.001 A 
ATOM      7  C   UNL     1       1.202  -0.687  -0.008  0.00  0.00    +0.012 A 
ATOM      8  C   UNL     1       2.399   0.019  -0.011  0.00  0.00    +0.028 A 
ATOM      9  C   UNL     1       3.705  -0.671   0.003  0.00  0.00    +0.156 A 
ATOM     10  C   UNL     1       4.716  -0.272  -0.899  0.00  0.00    +0.248 A 
ATOM     11  N   UNL     1       5.882  -0.893  -0.863  0.00  0.00    -0.184 NA
ATOM     12  C   UNL     1       6.068  -1.876   0.012  0.00  0.00    +0.213 A 
ATOM     13  N   UNL     1       5.103  -2.242   0.847  0.00  0.00    -0.122 NA
ATOM     14  N   UNL     1       3.953  -1.661   0.848  0.00  0.00    -0.141 NA
ATOM     15  O   UNL     1       4.476   0.730  -1.779  0.00  0.00    -0.445 OA
ATOM     16  H   UNL     1       3.890   2.631   0.718  0.00  0.00    +0.150 HD
ENDROOT
BRANCH   1  21
ATOM     17  C   UNL     1       0.999   4.647  -3.931  0.00  0.00    +0.086 C 
ATOM     18  C   UNL     1       2.317   4.084  -3.466  0.00  0.00    +0.102 A 
ATOM     19  C   UNL     1       3.517   4.330  -4.021  0.00  0.00    +0.045 A 
ATOM     20  C   UNL     1       4.472   3.607  -3.270  0.00  0.00    +0.050 A 
ATOM     21  C   UNL     1       3.797   2.956  -2.305  0.00  0.00    +0.164 A 
ATOM     22  O   UNL     1       2.492   3.251  -2.427  0.00  0.00    -0.459 OA
ENDBRANCH   1  21
BRANCH  12  23
ATOM     23  S   UNL     1       7.621  -2.707   0.066  0.00  0.00    -0.080 S 
BRANCH  23  24
ATOM     24  C   UNL     1       7.297  -3.894   1.393  0.00  0.00    +0.112 C 
BRANCH  24  25
ATOM     25  C   UNL     1       8.524  -4.740   1.622  0.00  0.00    -0.037 A 
ATOM     26  C   UNL     1       8.687  -5.923   0.925  0.00  0.00    +0.006 A 
ATOM     27  C   UNL     1       9.814  -6.696   1.130  0.00  0.00    +0.020 A 
ATOM     28  C   UNL     1      10.774  -6.291   2.041  0.00  0.00    +0.041 A 
ATOM     29  C   UNL     1      10.607  -5.110   2.742  0.00  0.00    +0.020 A 
ATOM     30  C   UNL     1       9.482  -4.335   2.532  0.00  0.00    +0.006 A 
ATOM     31 CL   UNL     1      12.187  -7.265   2.304  0.00  0.00    -0.084 Cl
ENDBRANCH  24  25
ENDBRANCH  23  24
ENDBRANCH  12  23
TORSDOF 4
