REMARK  Name = ZINC01109782
REMARK  9 active torsions:
REMARK  status: ('A' for Active; 'I' for Inactive)
REMARK    1  A    between atoms: C_1  and  C_2
REMARK    2  A    between atoms: C_2  and  N_3
REMARK    3  A    between atoms: N_3  and  C_4
REMARK    4  A    between atoms: N_3  and  S_10
REMARK    5  A    between atoms: S_10  and  C_13
REMARK    6  A    between atoms: C_16  and  N_19
REMARK    7  A    between atoms: N_19  and  C_20
REMARK    8  A    between atoms: C_20  and  N_22
REMARK    9  A    between atoms: C_23  and  C_25
REMARK                            x       y       z     vdW  Elec       q    Type
REMARK                         _______ _______ _______ _____ _____    ______ ____
ROOT
ATOM      1  C   UNL     1      -3.324   0.068   1.772  0.00  0.00    +0.109 A 
ATOM      2  C   UNL     1      -2.912   1.269   2.319  0.00  0.00    +0.030 A 
ATOM      3  C   UNL     1      -3.843   2.232   2.655  0.00  0.00    +0.025 A 
ATOM      4  C   UNL     1      -5.195   1.993   2.443  0.00  0.00    +0.033 A 
ATOM      5  C   UNL     1      -5.605   0.786   1.893  0.00  0.00    +0.025 A 
ATOM      6  C   UNL     1      -4.669  -0.171   1.555  0.00  0.00    +0.030 A 
ENDROOT
BRANCH   1   7
ATOM      7  S   UNL     1      -2.133  -1.157   1.344  0.00  0.00    +0.075 S 
ATOM      8  O   UNL     1      -2.841  -2.381   1.205  0.00  0.00    -0.150 OA
ATOM      9  O   UNL     1      -1.049  -1.004   2.250  0.00  0.00    -0.150 OA
BRANCH   7  10
ATOM     10  N   UNL     1      -1.552  -0.773  -0.158  0.00  0.00    -0.203 N 
BRANCH  10  11
ATOM     11  C   UNL     1      -2.178  -1.280  -1.300  0.00  0.00    +0.051 A 
ATOM     12  C   UNL     1      -3.527  -1.609  -1.266  0.00  0.00    +0.025 A 
ATOM     13  C   UNL     1      -4.142  -2.111  -2.396  0.00  0.00    +0.002 A 
ATOM     14  C   UNL     1      -3.417  -2.285  -3.561  0.00  0.00    +0.000 A 
ATOM     15  C   UNL     1      -2.074  -1.958  -3.598  0.00  0.00    +0.002 A 
ATOM     16  C   UNL     1      -1.453  -1.452  -2.473  0.00  0.00    +0.025 A 
ENDBRANCH  10  11
BRANCH  10  18
ATOM     17  C   UNL     1      -0.845   1.543  -0.501  0.00  0.00    +0.026 C 
ATOM     18  C   UNL     1      -0.383   0.100  -0.291  0.00  0.00    +0.128 C 
ENDBRANCH  10  18
ENDBRANCH   7  10
ENDBRANCH   1   7
BRANCH   4  19
ATOM     19  N   UNL     1      -6.140   2.966   2.783  0.00  0.00    -0.297 N 
ATOM     20  H   UNL     1      -6.974   2.706   3.205  0.00  0.00    +0.154 HD
BRANCH  19  21
ATOM     21  C   UNL     1      -5.893   4.266   2.524  0.00  0.00    +0.141 C 
ATOM     22  S   UNL     1      -4.483   4.714   1.663  0.00  0.00    -0.018 S 
BRANCH  21  23
ATOM     23  N   UNL     1      -6.756   5.212   2.943  0.00  0.00    -0.261 N 
ATOM     24  C   UNL     1      -6.509   6.512   2.685  0.00  0.00    +0.285 C 
ATOM     25  O   UNL     1      -5.506   6.830   2.073  0.00  0.00    -0.266 OA
ATOM     26  H   UNL     1      -7.555   4.958   3.431  0.00  0.00    +0.157 HD
BRANCH  24  27
ATOM     27  C   UNL     1      -7.446   7.540   3.140  0.00  0.00    +0.191 A 
ATOM     28  C   UNL     1      -7.320   8.887   2.941  0.00  0.00    +0.056 A 
ATOM     29  C   UNL     1      -8.436   9.489   3.541  0.00  0.00    +0.058 A 
ATOM     30  C   UNL     1      -9.187   8.497   4.073  0.00  0.00    +0.171 A 
ATOM     31  O   UNL     1      -8.590   7.324   3.825  0.00  0.00    -0.444 OA
ATOM     32 BR   UNL     1     -10.814   8.729   5.008  0.00  0.00    -0.008 Br
ENDBRANCH  24  27
ENDBRANCH  21  23
ENDBRANCH  19  21
ENDBRANCH   4  19
TORSDOF 8
