REMARK  Name = ZINC11914778
REMARK  5 active torsions:
REMARK  status: ('A' for Active; 'I' for Inactive)
REMARK    1  A    between atoms: C_1  and  C_2
REMARK    2  A    between atoms: C_7  and  C_12
REMARK    3  A    between atoms: C_14  and  C_17
REMARK    4  A    between atoms: N_19  and  C_20
REMARK    5  A    between atoms: C_21  and  C_29
REMARK                            x       y       z     vdW  Elec       q    Type
REMARK                         _______ _______ _______ _____ _____    ______ ____
ROOT
ATOM      1  C   UNL     1      -3.242  10.389  -4.440  0.00  0.00    +0.168 A 
ATOM      2  C   UNL     1      -2.992   9.055  -4.614  0.00  0.00    +0.086 A 
ATOM      3  C   UNL     1      -2.644   8.603  -3.314  0.00  0.00    +0.169 A 
ATOM      4  N   UNL     1      -2.707   9.653  -2.531  0.00  0.00    -0.073 NA
ATOM      5  O   UNL     1      -3.035  10.646  -3.136  0.00  0.00    -0.354 OA
ENDROOT
BRANCH   1  11
ATOM      6  C   UNL     1      -5.531  16.526  -7.899  0.00  0.00    +0.052 C 
ATOM      7  C   UNL     1      -4.488  15.454  -7.581  0.00  0.00    +0.175 C 
ATOM      8  C   UNL     1      -4.529  15.078  -6.081  0.00  0.00    +0.083 C 
ATOM      9  C   UNL     1      -4.245  13.589  -6.123  0.00  0.00    -0.002 A 
ATOM     10  C   UNL     1      -3.865  12.696  -5.149  0.00  0.00    +0.019 A 
ATOM     11  C   UNL     1      -3.651  11.356  -5.480  0.00  0.00    +0.020 A 
ATOM     12  C   UNL     1      -3.822  10.938  -6.801  0.00  0.00    +0.015 A 
ATOM     13  C   UNL     1      -4.212  11.838  -7.766  0.00  0.00    +0.046 A 
ATOM     14  C   UNL     1      -4.429  13.176  -7.438  0.00  0.00    +0.124 A 
ATOM     15  O   UNL     1      -4.819  14.214  -8.229  0.00  0.00    -0.488 OA
ENDBRANCH   1  11
BRANCH   3  16
ATOM     16  C   UNL     1      -2.277   7.221  -2.922  0.00  0.00    +0.270 C 
ATOM     17  O   UNL     1      -2.260   6.338  -3.756  0.00  0.00    -0.268 OA
ATOM     18  N   UNL     1      -1.964   6.945  -1.641  0.00  0.00    -0.274 N 
ATOM     19  H   UNL     1      -1.978   7.651  -0.975  0.00  0.00    +0.156 HD
BRANCH  18  20
ATOM     20  C   UNL     1      -1.621   5.653  -1.274  0.00  0.00    +0.090 A 
ATOM     21  C   UNL     1      -1.270   5.177  -0.019  0.00  0.00    +0.084 A 
ATOM     22  C   UNL     1      -0.951   3.765   0.100  0.00  0.00    -0.018 A 
ATOM     23  C   UNL     1      -1.032   3.059  -1.049  0.00  0.00    -0.004 A 
ATOM     24  S   UNL     1      -1.524   4.240  -2.273  0.00  0.00    -0.077 S 
ATOM     25  C   UNL     1      -0.761   1.597  -1.232  0.00  0.00    +0.043 C 
ATOM     26  C   UNL     1      -0.013   1.086   0.008  0.00  0.00    +0.005 C 
ATOM     27  C   UNL     1      -0.735   1.583   1.264  0.00  0.00    +0.005 C 
ATOM     28  C   UNL     1      -0.551   3.094   1.408  0.00  0.00    +0.037 C 
BRANCH  21  29
ATOM     29  C   UNL     1      -1.226   6.046   1.118  0.00  0.00    +0.102 C 
ATOM     30  N   UNL     1      -1.191   6.736   2.021  0.00  0.00    -0.191 NA
ENDBRANCH  21  29
ENDBRANCH  18  20
ENDBRANCH   3  16
TORSDOF 4
