REMARK  Name = ZINC36312989
REMARK  13 active torsions:
REMARK  status: ('A' for Active; 'I' for Inactive)
REMARK    1  A    between atoms: C_4  and  C_7
REMARK    2  A    between atoms: C_8  and  C_18
REMARK    3  A    between atoms: C_9  and  N_12
REMARK    4  A    between atoms: C_18  and  N_19
REMARK    5  A    between atoms: N_19  and  C_20
REMARK    6  A    between atoms: N_19  and  C_26
REMARK    7  A    between atoms: C_20  and  C_21
REMARK    8  A    between atoms: C_26  and  C_27
REMARK    9  A    between atoms: C_27  and  C_29
REMARK   10  A    between atoms: C_27  and  O_37
REMARK   11  A    between atoms: C_29  and  O_30
REMARK   12  A    between atoms: O_30  and  C_31
REMARK   13  A    between atoms: C_31  and  C_32
REMARK                            x       y       z     vdW  Elec       q    Type
REMARK                         _______ _______ _______ _____ _____    ______ ____
ROOT
ATOM      1  N   UNL     1       2.139  -3.671   1.075  0.00  0.00    +0.389 N 
ATOM      2  H   UNL     1       2.657  -4.326   0.509  0.00  0.00    -0.081 HD
ENDROOT
BRANCH   1   3
ATOM      3  C   UNL     1       3.072  -2.747   1.733  0.00  0.00    -0.035 C 
BRANCH   3   5
ATOM      4  C   UNL     1       4.321  -0.919   0.370  0.00  0.00    +0.117 A 
ATOM      5  C   UNL     1       4.089  -2.262   0.733  0.00  0.00    +0.025 A 
ATOM      6  C   UNL     1       4.944  -3.041   0.022  0.00  0.00    +0.222 A 
ATOM      7  O   UNL     1       5.687  -2.238  -0.758  0.00  0.00    -0.339 OA
ATOM      8  N   UNL     1       5.278  -0.902  -0.529  0.00  0.00    -0.076 NA
BRANCH   4  12
ATOM      9  C   UNL     1       2.271   2.477   1.904  0.00  0.00    +0.000 A 
ATOM     10  C   UNL     1       3.642   2.521   1.728  0.00  0.00    +0.001 A 
ATOM     11  C   UNL     1       4.312   1.422   1.230  0.00  0.00    +0.010 A 
ATOM     12  C   UNL     1       3.606   0.266   0.906  0.00  0.00    +0.004 A 
ATOM     13  C   UNL     1       2.225   0.227   1.086  0.00  0.00    +0.010 A 
ATOM     14  C   UNL     1       1.564   1.332   1.584  0.00  0.00    +0.001 A 
ENDBRANCH   4  12
BRANCH   6  15
ATOM     15  N   UNL     1       5.034  -4.419   0.089  0.00  0.00    -0.299 N 
ATOM     16  C   UNL     1       4.381  -5.262  -0.922  0.00  0.00    +0.108 C 
ATOM     17  C   UNL     1       5.422  -6.218  -1.514  0.00  0.00    +0.019 C 
ATOM     18  C   UNL     1       6.093  -7.000  -0.382  0.00  0.00    +0.003 C 
ATOM     19  C   UNL     1       6.809  -6.027   0.558  0.00  0.00    +0.019 C 
ATOM     20  C   UNL     1       5.789  -5.069   1.169  0.00  0.00    +0.108 C 
ENDBRANCH   6  15
ENDBRANCH   3   5
ENDBRANCH   1   3
BRANCH   1  21
ATOM     21  C   UNL     1       1.217  -2.909   0.222  0.00  0.00    -0.003 C 
BRANCH  21  22
ATOM     22  C   UNL     1       1.939  -2.459  -1.022  0.00  0.00    +0.089 A 
ATOM     23  C   UNL     1       2.147  -3.202  -2.124  0.00  0.00    +0.042 A 
ATOM     24  C   UNL     1       2.859  -2.390  -3.037  0.00  0.00    +0.041 A 
ATOM     25  C   UNL     1       3.044  -1.200  -2.438  0.00  0.00    +0.195 A 
ATOM     26  O   UNL     1       2.479  -1.245  -1.220  0.00  0.00    -0.470 OA
ENDBRANCH  21  22
ENDBRANCH   1  21
BRANCH   1  27
ATOM     27  C   UNL     1       1.373  -4.402   2.093  0.00  0.00    -0.044 C 
BRANCH  27  28
ATOM     28  C   UNL     1       0.491  -5.451   1.413  0.00  0.00    +0.124 C 
BRANCH  28  29
ATOM     29  O   UNL     1       1.318  -6.433   0.784  0.00  0.00    -0.391 OA
ATOM     30  H   UNL     1       1.903  -6.903   1.394  0.00  0.00    +0.210 HD
ENDBRANCH  28  29
BRANCH  28  31
ATOM     31  C   UNL     1      -0.397  -6.126   2.459  0.00  0.00    +0.189 C 
BRANCH  31  32
ATOM     32  O   UNL     1      -1.302  -7.022   1.809  0.00  0.00    -0.370 OA
BRANCH  32  33
ATOM     33  C   UNL     1      -2.182  -7.708   2.702  0.00  0.00    +0.234 C 
BRANCH  33  34
ATOM     34  C   UNL     1      -3.085  -8.621   1.913  0.00  0.00    +0.130 A 
ATOM     35  C   UNL     1      -2.831  -9.905   1.604  0.00  0.00    +0.047 A 
ATOM     36  C   UNL     1      -3.939 -10.374   0.861  0.00  0.00    +0.041 A 
ATOM     37  C   UNL     1      -4.803  -9.349   0.761  0.00  0.00    +0.195 A 
ATOM     38  O   UNL     1      -4.284  -8.291   1.405  0.00  0.00    -0.465 OA
ENDBRANCH  33  34
ENDBRANCH  32  33
ENDBRANCH  31  32
ENDBRANCH  28  31
ENDBRANCH  27  28
ENDBRANCH   1  27
TORSDOF 13
