REMARK  Name = ZINC67478175
REMARK  10 active torsions:
REMARK  status: ('A' for Active; 'I' for Inactive)
REMARK    1  A    between atoms: C_1  and  C_2
REMARK    2  A    between atoms: C_5  and  C_11
REMARK    3  A    between atoms: C_6  and  C_10
REMARK    4  A    between atoms: C_7  and  O_8
REMARK    5  A    between atoms: O_8  and  C_9
REMARK    6  A    between atoms: C_11  and  N_12
REMARK    7  A    between atoms: N_15  and  C_16
REMARK    8  A    between atoms: C_16  and  C_17
REMARK    9  A    between atoms: C_17  and  C_19
REMARK   10  A    between atoms: C_17  and  O_29
REMARK                            x       y       z     vdW  Elec       q    Type
REMARK                         _______ _______ _______ _____ _____    ______ ____
ROOT
ATOM      1  N   UNL     1       1.447  -4.700  -0.204  0.00  0.00    -0.294 N 
ATOM      2  C   UNL     1       1.711  -6.020  -0.274  0.00  0.00    +0.300 C 
ATOM      3  O   UNL     1       0.798  -6.821  -0.310  0.00  0.00    -0.253 OA
ATOM      4  N   UNL     1       2.988  -6.451  -0.304  0.00  0.00    -0.297 N 
ATOM      5  H   UNL     1       2.176  -4.060  -0.176  0.00  0.00    +0.151 HD
ATOM      6  H   UNL     1       3.716  -5.811  -0.275  0.00  0.00    +0.150 HD
ENDROOT
BRANCH   1   7
ATOM      7  C   UNL     1       0.060  -4.231  -0.172  0.00  0.00    +0.161 C 
BRANCH   7  12
ATOM      8  C   UNL     1      -0.018   1.503   0.010  0.00  0.00    +0.049 C 
ATOM      9  C   UNL     1       0.002  -0.004   0.002  0.00  0.00    +0.010 A 
ATOM     10  C   UNL     1       0.006  -0.697  -1.191  0.00  0.00    +0.118 A 
ATOM     11  N   UNL     1       0.024  -2.016  -1.207  0.00  0.00    -0.258 NA
ATOM     12  C   UNL     1       0.040  -2.726  -0.095  0.00  0.00    +0.065 A 
ATOM     13  C   UNL     1       0.037  -2.108   1.139  0.00  0.00    +0.014 A 
ATOM     14  C   UNL     1       0.023  -0.716   1.198  0.00  0.00    +0.129 A 
ATOM     15  C   UNL     1       0.054  -2.926   2.404  0.00  0.00    +0.049 C 
BRANCH  14  16
ATOM     16  O   UNL     1       0.025  -0.071   2.393  0.00  0.00    -0.494 OA
ATOM     17  C   UNL     1      -1.247   0.220   2.975  0.00  0.00    +0.277 C 
ENDBRANCH  14  16
ENDBRANCH   7  12
ENDBRANCH   1   7
BRANCH   4  18
ATOM     18  C   UNL     1       3.275  -7.886  -0.379  0.00  0.00    +0.141 C 
BRANCH  18  19
ATOM     19  C   UNL     1       4.789  -8.102  -0.399  0.00  0.00    +0.162 C 
BRANCH  19  20
ATOM     20  C   UNL     1       5.084  -9.578  -0.477  0.00  0.00    -0.017 A 
ATOM     21  C   UNL     1       5.114 -10.208  -1.720  0.00  0.00    +0.007 A 
ATOM     22  C   UNL     1       5.376 -11.539  -1.826  0.00  0.00    +0.009 A 
ATOM     23  C   UNL     1       5.623 -12.293  -0.665  0.00  0.00    -0.018 A 
ATOM     24  C   UNL     1       5.899 -13.669  -0.735  0.00  0.00    +0.008 A 
ATOM     25  C   UNL     1       6.133 -14.367   0.410  0.00  0.00    +0.001 A 
ATOM     26  C   UNL     1       6.104 -13.738   1.653  0.00  0.00    +0.001 A 
ATOM     27  C   UNL     1       5.840 -12.407   1.759  0.00  0.00    +0.008 A 
ATOM     28  C   UNL     1       5.593 -11.653   0.599  0.00  0.00    -0.018 A 
ATOM     29  C   UNL     1       5.323 -10.275   0.667  0.00  0.00    +0.014 A 
ENDBRANCH  19  20
BRANCH  19  30
ATOM     30  O   UNL     1       5.350  -7.444  -1.537  0.00  0.00    -0.386 OA
ATOM     31  H   UNL     1       5.005  -7.760  -2.383  0.00  0.00    +0.210 HD
ENDBRANCH  19  30
ENDBRANCH  18  19
ENDBRANCH   4  18
TORSDOF 7
