REMARK  Name = ZINC35271687
REMARK  13 active torsions:
REMARK  status: ('A' for Active; 'I' for Inactive)
REMARK    1  A    between atoms: C_1  and  C_2
REMARK    2  A    between atoms: C_4  and  O_25
REMARK    3  A    between atoms: C_8  and  C_24
REMARK    4  A    between atoms: C_12  and  O_20
REMARK    5  A    between atoms: C_15  and  C_16
REMARK    6  A    between atoms: C_15  and  O_19
REMARK    7  A    between atoms: C_16  and  C_17
REMARK    8  A    between atoms: C_16  and  C_18
REMARK    9  A    between atoms: O_20  and  C_21
REMARK   10  A    between atoms: C_21  and  C_23
REMARK   11  A    between atoms: O_25  and  C_26
REMARK   12  A    between atoms: C_26  and  C_28
REMARK   13  A    between atoms: C_31  and  O_34
REMARK                            x       y       z     vdW  Elec       q    Type
REMARK                         _______ _______ _______ _____ _____    ______ ____
ROOT
ATOM      1  C   UNL     1      -7.884  -6.527   1.322  0.00  0.00    +0.047 C 
ATOM      2  C   UNL     1      -6.435  -6.216   1.595  0.00  0.00    -0.009 C 
ATOM      3  C   UNL     1      -5.617  -5.937   0.576  0.00  0.00    +0.024 C 
ATOM      4  C   UNL     1      -4.157  -5.649   0.867  0.00  0.00    +0.207 C 
ATOM      5  C   UNL     1      -3.538  -6.930   1.398  0.00  0.00    +0.076 C 
ATOM      6  C   UNL     1      -3.596  -6.978   2.927  0.00  0.00    +0.021 C 
ATOM      7  C   UNL     1      -4.990  -7.313   3.421  0.00  0.00    +0.090 C 
ATOM      8  C   UNL     1      -5.943  -6.217   2.978  0.00  0.00    +0.159 C 
ATOM      9  O   UNL     1      -6.294  -5.353   3.754  0.00  0.00    -0.292 OA
ATOM     10  C   UNL     1      -2.556  -8.057   3.281  0.00  0.00    +0.186 C 
ATOM     11  C   UNL     1      -1.414  -7.806   2.266  0.00  0.00    +0.080 C 
ATOM     12  C   UNL     1      -2.041  -7.054   1.087  0.00  0.00    +0.079 C 
ATOM     13  C   UNL     1      -3.155  -5.630   3.502  0.00  0.00    +0.016 C 
ENDROOT
BRANCH  12  14
ATOM     14  C   UNL     1      -1.415  -5.666   0.946  0.00  0.00    +0.015 C 
ATOM     15  C   UNL     1       0.052  -5.722   1.379  0.00  0.00    +0.010 C 
ATOM     16  C   UNL     1      -1.498  -5.214  -0.513  0.00  0.00    +0.010 C 
ENDBRANCH  12  14
BRANCH  12  17
ATOM     17  O   UNL     1      -1.848  -7.807  -0.113  0.00  0.00    -0.388 OA
ATOM     18  H   UNL     1      -0.921  -7.920  -0.361  0.00  0.00    +0.210 HD
ENDBRANCH  12  17
BRANCH  10  19
ATOM     19  O   UNL     1      -2.090  -7.885   4.621  0.00  0.00    -0.461 OA
BRANCH  19  20
ATOM     20  C   UNL     1      -1.708  -8.990   5.280  0.00  0.00    +0.304 C 
ATOM     21  O   UNL     1      -1.768 -10.068   4.737  0.00  0.00    -0.251 OA
ATOM     22  C   UNL     1      -1.205  -8.887   6.696  0.00  0.00    +0.136 C 
ENDBRANCH  19  20
ENDBRANCH  10  19
BRANCH   4  23
ATOM     23  O   UNL     1      -4.052  -4.614   1.846  0.00  0.00    -0.453 OA
BRANCH  23  24
ATOM     24  C   UNL     1      -4.203  -3.346   1.415  0.00  0.00    +0.340 C 
ATOM     25  O   UNL     1      -4.339  -3.120   0.229  0.00  0.00    -0.245 OA
BRANCH  24  26
ATOM     26  C   UNL     1      -4.204  -2.234   2.383  0.00  0.00    +0.059 A 
ATOM     27  C   UNL     1      -4.166  -2.498   3.756  0.00  0.00    +0.018 A 
ATOM     28  C   UNL     1      -4.166  -1.457   4.656  0.00  0.00    +0.046 A 
ATOM     29  C   UNL     1      -4.206  -0.143   4.202  0.00  0.00    +0.117 A 
ATOM     30  C   UNL     1      -4.244   0.124   2.839  0.00  0.00    +0.046 A 
ATOM     31  C   UNL     1      -4.238  -0.911   1.931  0.00  0.00    +0.018 A 
BRANCH  29  32
ATOM     32  O   UNL     1      -4.207   0.880   5.093  0.00  0.00    -0.507 OA
ATOM     33  H   UNL     1      -3.324   1.196   5.330  0.00  0.00    +0.292 HD
ENDBRANCH  29  32
ENDBRANCH  24  26
ENDBRANCH  23  24
ENDBRANCH   4  23
TORSDOF 8
