REMARK  Name = ZINC20106710
REMARK  7 active torsions:
REMARK  status: ('A' for Active; 'I' for Inactive)
REMARK    1  A    between atoms: C_1  and  C_2
REMARK    2  A    between atoms: C_4  and  C_41
REMARK    3  A    between atoms: C_6  and  N_8
REMARK    4  A    between atoms: C_9  and  C_11
REMARK    5  A    between atoms: N_22  and  C_34
REMARK    6  A    between atoms: C_23  and  C_25
REMARK    7  A    between atoms: N_27  and  C_28
REMARK                            x       y       z     vdW  Elec       q    Type
REMARK                         _______ _______ _______ _____ _____    ______ ____
ROOT
ATOM      1  C   UNL     1      -5.037   4.111   0.067  0.00  0.00    +0.123 C 
ATOM      2  C   UNL     1      -5.243   4.963   1.361  0.00  0.00    +0.155 C 
ATOM      3  C   UNL     1      -6.621   5.624   1.243  0.00  0.00    +0.004 C 
ATOM      4  C   UNL     1      -7.540   4.667   1.429  0.00  0.00    +0.009 C 
ATOM      5  C   UNL     1      -6.730   3.433   1.616  0.00  0.00    +0.127 C 
ATOM      6  C   UNL     1      -6.139   3.046   0.211  0.00  0.00    +0.128 C 
ATOM      7  C   UNL     1      -5.643   1.654   0.484  0.00  0.00    +0.224 C 
ATOM      8  O   UNL     1      -4.749   1.097  -0.117  0.00  0.00    -0.275 OA
ATOM      9  N   UNL     1      -6.353   1.119   1.509  0.00  0.00    -0.283 N 
ATOM     10  C   UNL     1      -7.273   2.123   2.095  0.00  0.00    +0.199 C 
ATOM     11  O   UNL     1      -5.547   3.889   2.325  0.00  0.00    -0.358 OA
ENDROOT
BRANCH   9  12
ATOM     12  C   UNL     1      -6.228  -0.265   1.973  0.00  0.00    +0.077 C 
ATOM     13  C   UNL     1      -4.791  -0.521   2.433  0.00  0.00    +0.022 C 
ATOM     14  C   UNL     1      -4.661  -1.966   2.918  0.00  0.00    +0.002 C 
ATOM     15  C   UNL     1      -5.009  -2.922   1.774  0.00  0.00    +0.000 C 
ATOM     16  C   UNL     1      -6.446  -2.666   1.315  0.00  0.00    +0.002 C 
ATOM     17  C   UNL     1      -6.576  -1.220   0.830  0.00  0.00    +0.022 C 
ENDBRANCH   9  12
BRANCH   1  19
ATOM     18  N   UNL     1      -3.075   3.183  -1.120  0.00  0.00    -0.285 N 
ATOM     19  C   UNL     1      -3.671   3.474   0.054  0.00  0.00    +0.224 C 
ATOM     20  O   UNL     1      -3.108   3.223   1.098  0.00  0.00    -0.275 OA
ATOM     21  H   UNL     1      -3.551   3.478  -2.066  0.00  0.00    +0.155 HD
BRANCH  18  27
ATOM     22  C   UNL     1      -0.057  -0.062  -3.250  0.00  0.00    +0.044 C 
ATOM     23  C   UNL     1      -0.362   0.926  -2.154  0.00  0.00    -0.048 A 
ATOM     24  C   UNL     1       0.570   1.165  -1.161  0.00  0.00    +0.006 A 
ATOM     25  C   UNL     1       0.294   2.071  -0.153  0.00  0.00    -0.048 A 
ATOM     26  C   UNL     1      -0.913   2.742  -0.137  0.00  0.00    +0.026 A 
ATOM     27  C   UNL     1      -1.851   2.505  -1.133  0.00  0.00    +0.034 A 
ATOM     28  C   UNL     1      -1.569   1.597  -2.146  0.00  0.00    +0.026 A 
ATOM     29  C   UNL     1       1.313   2.328   0.928  0.00  0.00    +0.044 C 
ENDBRANCH  18  27
ENDBRANCH   1  19
BRANCH  10  30
ATOM     30  C   UNL     1      -8.676   1.915   1.586  0.00  0.00    +0.237 C 
ATOM     31  O   UNL     1      -8.873   1.207   0.621  0.00  0.00    -0.274 OA
ATOM     32  N   UNL     1      -9.713   2.517   2.203  0.00  0.00    -0.311 N 
ATOM     33  H   UNL     1      -9.534   3.159   3.077  0.00  0.00    +0.149 HD
BRANCH  32  34
ATOM     34  C   UNL     1     -11.077   2.314   1.708  0.00  0.00    +0.073 C 
ATOM     35  C   UNL     1     -11.362   3.307   0.579  0.00  0.00    +0.022 C 
ATOM     36  C   UNL     1     -12.787   3.096   0.062  0.00  0.00    +0.002 C 
ATOM     37  C   UNL     1     -13.782   3.321   1.203  0.00  0.00    +0.000 C 
ATOM     38  C   UNL     1     -13.496   2.328   2.332  0.00  0.00    +0.002 C 
ATOM     39  C   UNL     1     -12.072   2.539   2.849  0.00  0.00    +0.022 C 
ENDBRANCH  32  34
ENDBRANCH  10  30
TORSDOF 5
