REMARK  Name = ZINC63097723
REMARK  12 active torsions:
REMARK  status: ('A' for Active; 'I' for Inactive)
REMARK    1  A    between atoms: C_1  and  C_2
REMARK    2  A    between atoms: C_2  and  C_3
REMARK    3  A    between atoms: C_2  and  C_4
REMARK    4  A    between atoms: N_6  and  C_7
REMARK    5  A    between atoms: C_7  and  C_8
REMARK    6  A    between atoms: C_8  and  N_9
REMARK    7  A    between atoms: C_10  and  C_12
REMARK    8  A    between atoms: C_12  and  C_14
REMARK    9  A    between atoms: C_12  and  N_24
REMARK   10  A    between atoms: C_14  and  C_15
REMARK   11  A    between atoms: N_24  and  S_25
REMARK   12  A    between atoms: S_25  and  C_28
REMARK                            x       y       z     vdW  Elec       q    Type
REMARK                         _______ _______ _______ _____ _____    ______ ____
ROOT
ATOM      1  C   UNL     1      -8.002  -0.915  -3.197  0.00  0.00    +0.166 C 
ENDROOT
BRANCH   1   3
ATOM      2  N   UNL     1      -5.744  -0.713  -2.207  0.00  0.00    -0.312 N 
ATOM      3  C   UNL     1      -6.588  -0.394  -3.208  0.00  0.00    +0.232 C 
ATOM      4  O   UNL     1      -6.210   0.314  -4.118  0.00  0.00    -0.274 OA
ATOM      5  H   UNL     1      -6.047  -1.279  -1.480  0.00  0.00    +0.149 HD
BRANCH   2   6
ATOM      6  C   UNL     1      -4.370  -0.206  -2.217  0.00  0.00    +0.123 C 
BRANCH   6   7
ATOM      7  C   UNL     1      -3.630  -0.713  -0.978  0.00  0.00    +0.123 C 
BRANCH   7  10
ATOM      8  C   UNL     1      -1.412  -0.526   0.013  0.00  0.00    +0.216 C 
ATOM      9  O   UNL     1      -1.790  -1.233   0.922  0.00  0.00    -0.276 OA
ATOM     10  N   UNL     1      -2.256  -0.206  -0.988  0.00  0.00    -0.314 N 
ATOM     11  H   UNL     1      -1.953   0.360  -1.716  0.00  0.00    +0.149 HD
BRANCH   8  13
ATOM     12  C   UNL     1      -0.019   1.526   0.010  0.00  0.00    +0.017 C 
ATOM     13  C   UNL     1       0.002  -0.004   0.002  0.00  0.00    +0.069 C 
ATOM     14  C   UNL     1       0.742  -0.511   1.242  0.00  0.00    +0.017 C 
ENDBRANCH   8  13
ENDBRANCH   7  10
ENDBRANCH   6   7
ENDBRANCH   2   6
ENDBRANCH   1   3
BRANCH   1  15
ATOM     15  N   UNL     1      -8.710  -0.430  -4.384  0.00  0.00    -0.178 NA
ATOM     16  H   UNL     1      -8.236  -0.326  -5.224  0.00  0.00    +0.149 HD
BRANCH  15  17
ATOM     17  S   UNL     1     -10.322  -0.058  -4.293  0.00  0.00    +0.059 S 
ATOM     18  O   UNL     1     -10.706   0.403  -5.581  0.00  0.00    -0.153 OA
ATOM     19  O   UNL     1     -10.957  -1.159  -3.657  0.00  0.00    -0.153 OA
BRANCH  17  20
ATOM     20  C   UNL     1     -10.478   1.314  -3.199  0.00  0.00    +0.105 A 
ATOM     21  C   UNL     1     -10.655   1.102  -1.844  0.00  0.00    +0.030 A 
ATOM     22  C   UNL     1     -10.778   2.178  -0.986  0.00  0.00    +0.022 A 
ATOM     23  C   UNL     1     -10.724   3.468  -1.483  0.00  0.00    +0.041 A 
ATOM     24  C   UNL     1     -10.548   3.680  -2.838  0.00  0.00    +0.022 A 
ATOM     25  C   UNL     1     -10.419   2.603  -3.695  0.00  0.00    +0.030 A 
ATOM     26 CL   UNL     1     -10.879   4.821  -0.405  0.00  0.00    -0.084 Cl
ENDBRANCH  17  20
ENDBRANCH  15  17
ENDBRANCH   1  15
BRANCH   1  27
ATOM     27  C   UNL     1      -7.981  -2.445  -3.206  0.00  0.00    +0.063 C 
BRANCH  27  28
ATOM     28  C   UNL     1      -9.389  -2.967  -3.071  0.00  0.00    -0.040 C 
ATOM     29  C   UNL     1     -10.217  -3.338  -4.074  0.00  0.00    -0.001 A 
ATOM     30  C   UNL     1     -10.063  -3.364  -5.533  0.00  0.00    +0.010 A 
ATOM     31  C   UNL     1     -11.095  -3.796  -6.294  0.00  0.00    +0.001 A 
ATOM     32  C   UNL     1     -12.304  -4.219  -5.725  0.00  0.00    +0.002 A 
ATOM     33  C   UNL     1     -12.521  -4.224  -4.393  0.00  0.00    +0.026 A 
ATOM     34  C   UNL     1     -11.504  -3.790  -3.498  0.00  0.00    +0.043 A 
ATOM     35  N   UNL     1     -11.472  -3.701  -2.190  0.00  0.00    -0.380 N 
ATOM     36  C   UNL     1     -10.157  -3.189  -1.788  0.00  0.00    +0.144 C 
ATOM     37  H   UNL     1     -12.195  -3.939  -1.589  0.00  0.00    +0.160 HD
ENDBRANCH  27  28
ENDBRANCH   1  27
TORSDOF 10
