REMARK  Name = ZINC39672914
REMARK  6 active torsions:
REMARK  status: ('A' for Active; 'I' for Inactive)
REMARK    1  A    between atoms: C_1  and  C_2
REMARK    2  A    between atoms: C_7  and  C_8
REMARK    3  A    between atoms: C_12  and  C_21
REMARK    4  A    between atoms: N_23  and  C_24
REMARK    5  A    between atoms: C_24  and  C_25
REMARK    6  A    between atoms: C_25  and  N_31
REMARK                            x       y       z     vdW  Elec       q    Type
REMARK                         _______ _______ _______ _____ _____    ______ ____
ROOT
ATOM      1  C   UNL     1       0.252   0.727   2.868  0.00  0.00    +0.247 C 
ATOM      2  O   UNL     1       0.114   1.933   2.930  0.00  0.00    -0.270 OA
ATOM      3  N   UNL     1       0.427   0.011   3.996  0.00  0.00    -0.296 N 
ATOM      4  C   UNL     1       0.703  -1.440   4.116  0.00  0.00    +0.121 C 
ATOM      5  C   UNL     1       1.730  -1.548   5.266  0.00  0.00    +0.100 C 
ATOM      6  C   UNL     1       1.517  -0.276   6.103  0.00  0.00    -0.004 C 
ATOM      7  C   UNL     1       0.394   0.497   5.396  0.00  0.00    +0.115 C 
ATOM      8  C   UNL     1       2.792   0.561   6.126  0.00  0.00    -0.010 C 
ATOM      9  C   UNL     1       2.573   1.791   7.011  0.00  0.00    -0.082 C 
ATOM     10  N   UNL     1       2.221   1.362   8.370  0.00  0.00    +0.379 N 
ATOM     11  C   UNL     1       0.945   0.637   8.351  0.00  0.00    -0.082 C 
ATOM     12  C   UNL     1       1.095  -0.642   7.523  0.00  0.00    -0.010 C 
ATOM     13  H   UNL     1       2.945   0.758   8.729  0.00  0.00    -0.086 HD
ATOM     14  H   UNL     1       2.137   2.172   8.966  0.00  0.00    -0.086 HD
ENDROOT
BRANCH   1  21
ATOM     15  C   UNL     1      -1.935   1.225   1.041  0.00  0.00    +0.044 C 
ATOM     16  C   UNL     1      -0.824   0.279   0.666  0.00  0.00    -0.038 A 
ATOM     17  C   UNL     1      -0.840  -0.355  -0.559  0.00  0.00    +0.007 A 
ATOM     18  C   UNL     1       0.179  -1.223  -0.906  0.00  0.00    +0.038 A 
ATOM     19  C   UNL     1       1.222  -1.464  -0.026  0.00  0.00    +0.124 A 
ATOM     20  C   UNL     1       1.249  -0.836   1.204  0.00  0.00    +0.051 A 
ATOM     21  C   UNL     1       0.226   0.046   1.556  0.00  0.00    +0.043 A 
ATOM     22  F   UNL     1       2.214  -2.314  -0.371  0.00  0.00    -0.205 F 
ENDBRANCH   1  21
BRANCH   5  23
ATOM     23  C   UNL     1       1.461  -2.777   6.096  0.00  0.00    +0.218 C 
ATOM     24  O   UNL     1       0.322  -3.160   6.261  0.00  0.00    -0.275 OA
ATOM     25  N   UNL     1       2.485  -3.450   6.656  0.00  0.00    -0.313 N 
ATOM     26  H   UNL     1       3.396  -3.144   6.524  0.00  0.00    +0.149 HD
BRANCH  25  27
ATOM     27  C   UNL     1       2.224  -4.644   7.463  0.00  0.00    +0.126 C 
BRANCH  27  28
ATOM     28  C   UNL     1       3.533  -5.141   8.078  0.00  0.00    +0.038 C 
ATOM     29  C   UNL     1       3.284  -6.460   8.813  0.00  0.00    +0.024 C 
ATOM     30  C   UNL     1       2.251  -6.239   9.920  0.00  0.00    +0.002 C 
ATOM     31  C   UNL     1       2.778  -5.197  10.908  0.00  0.00    +0.000 C 
ATOM     32  C   UNL     1       3.028  -3.878  10.174  0.00  0.00    +0.002 C 
ATOM     33  C   UNL     1       4.060  -4.099   9.066  0.00  0.00    +0.024 C 
BRANCH  28  34
ATOM     34  N   UNL     1       4.524  -5.353   7.015  0.00  0.00    -0.291 NA
ATOM     35  C   UNL     1       3.992  -6.234   5.965  0.00  0.00    +0.113 C 
ATOM     36  C   UNL     1       5.032  -6.380   4.852  0.00  0.00    +0.175 C 
ATOM     37  O   UNL     1       6.252  -6.877   5.408  0.00  0.00    -0.377 OA
ATOM     38  C   UNL     1       6.800  -6.043   6.432  0.00  0.00    +0.175 C 
ATOM     39  C   UNL     1       5.777  -5.894   7.562  0.00  0.00    +0.113 C 
ENDBRANCH  28  34
ENDBRANCH  27  28
ENDBRANCH  25  27
ENDBRANCH   5  23
TORSDOF 5
