REMARK  Name = ZINC35929715
REMARK  6 active torsions:
REMARK  status: ('A' for Active; 'I' for Inactive)
REMARK    1  A    between atoms: C_4  and  C_7
REMARK    2  A    between atoms: C_7  and  C_8
REMARK    3  A    between atoms: C_8  and  N_9
REMARK    4  A    between atoms: C_12  and  C_27
REMARK    5  A    between atoms: C_14  and  N_26
REMARK    6  A    between atoms: N_15  and  C_19
REMARK                            x       y       z     vdW  Elec       q    Type
REMARK                         _______ _______ _______ _____ _____    ______ ____
ROOT
ATOM      1  N   UNL     1       5.395  -1.668   1.309  0.00  0.00    -0.313 N 
ATOM      2  C   UNL     1       6.130  -1.826   2.471  0.00  0.00    +0.218 A 
ATOM      3  N   UNL     1       7.340  -2.369   2.380  0.00  0.00    -0.214 NA
ATOM      4  C   UNL     1       8.111  -2.558   3.444  0.00  0.00    +0.090 A 
ATOM      5  C   UNL     1       7.616  -2.163   4.707  0.00  0.00    +0.086 A 
ATOM      6  C   UNL     1       8.089  -2.187   6.013  0.00  0.00    +0.131 A 
ATOM      7  N   UNL     1       7.133  -1.658   6.801  0.00  0.00    -0.216 N 
ATOM      8  N   UNL     1       6.030  -1.283   6.025  0.00  0.00    -0.144 NA
ATOM      9  C   UNL     1       6.269  -1.565   4.763  0.00  0.00    +0.189 A 
ATOM     10  N   UNL     1       5.594  -1.426   3.606  0.00  0.00    -0.193 NA
ATOM     11  H   UNL     1       5.765  -1.953   0.459  0.00  0.00    +0.149 HD
ENDROOT
BRANCH   7  12
ATOM     12  C   UNL     1       7.228  -1.505   8.190  0.00  0.00    +0.068 A 
ATOM     13  C   UNL     1       7.907  -2.450   8.949  0.00  0.00    +0.030 A 
ATOM     14  C   UNL     1       8.000  -2.297  10.318  0.00  0.00    +0.040 A 
ATOM     15  C   UNL     1       7.417  -1.202  10.935  0.00  0.00    +0.124 A 
ATOM     16  C   UNL     1       6.740  -0.259  10.180  0.00  0.00    +0.040 A 
ATOM     17  C   UNL     1       6.649  -0.405   8.810  0.00  0.00    +0.030 A 
ATOM     18  F   UNL     1       7.508  -1.055  12.275  0.00  0.00    -0.205 F 
ENDBRANCH   7  12
BRANCH   4  19
ATOM     19  C   UNL     1       9.454  -3.165   3.310  0.00  0.00    +0.020 A 
ATOM     20  C   UNL     1       9.758  -4.347   3.988  0.00  0.00    +0.011 A 
ATOM     21  C   UNL     1      11.012  -4.908   3.859  0.00  0.00    +0.001 A 
ATOM     22  C   UNL     1      11.966  -4.303   3.061  0.00  0.00    +0.001 A 
ATOM     23  C   UNL     1      11.672  -3.132   2.386  0.00  0.00    +0.020 A 
ATOM     24  C   UNL     1      10.419  -2.562   2.502  0.00  0.00    +0.050 A 
ATOM     25 CL   UNL     1      10.048  -1.097   1.649  0.00  0.00    -0.083 Cl
ENDBRANCH   4  19
BRANCH   6  26
ATOM     26  N   UNL     1       9.317  -2.668   6.429  0.00  0.00    -0.342 N 
ATOM     27  H   UNL     1       9.896  -3.127   5.801  0.00  0.00    +0.144 HD
ATOM     28  H   UNL     1       9.599  -2.546   7.349  0.00  0.00    +0.144 HD
ENDBRANCH   6  26
BRANCH   1  29
ATOM     29  C   UNL     1       4.060  -1.068   1.363  0.00  0.00    +0.109 C 
BRANCH  29  30
ATOM     30  C   UNL     1       3.470  -1.010  -0.047  0.00  0.00    +0.054 C 
BRANCH  30  34
ATOM     31  C   UNL     1      -0.425   0.738   0.108  0.00  0.00    +0.000 A 
ATOM     32  C   UNL     1       0.686   1.540  -0.072  0.00  0.00    +0.000 A 
ATOM     33  C   UNL     1       1.946   0.975  -0.122  0.00  0.00    +0.004 A 
ATOM     34  C   UNL     1       2.096  -0.393   0.008  0.00  0.00    -0.046 A 
ATOM     35  C   UNL     1       0.985  -1.196   0.189  0.00  0.00    +0.004 A 
ATOM     36  C   UNL     1      -0.276  -0.630   0.237  0.00  0.00    +0.000 A 
ENDBRANCH  30  34
ENDBRANCH  29  30
ENDBRANCH   1  29
TORSDOF 6
