REMARK  Name = ZINC43463292
REMARK  4 active torsions:
REMARK  status: ('A' for Active; 'I' for Inactive)
REMARK    1  A    between atoms: C_1  and  C_2
REMARK    2  A    between atoms: C_2  and  C_17
REMARK    3  A    between atoms: N_5  and  C_9
REMARK    4  A    between atoms: C_9  and  C_10
REMARK                            x       y       z     vdW  Elec       q    Type
REMARK                         _______ _______ _______ _____ _____    ______ ____
ROOT
ATOM      1  C   UNL     1      -0.019   1.526   0.010  0.00  0.00    +0.047 C 
ATOM      2  C   UNL     1       0.002  -0.004   0.002  0.00  0.00    +0.135 C 
ATOM      3  C   UNL     1       0.815  -0.520  -1.169  0.00  0.00    +0.251 C 
ATOM      4  O   UNL     1       0.595  -0.342  -2.348  0.00  0.00    -0.272 OA
ATOM      5  N   UNL     1       1.833  -1.217  -0.627  0.00  0.00    -0.220 N 
ATOM      6  C   UNL     1       1.777  -1.214   0.710  0.00  0.00    +0.310 C 
ATOM      7  O   UNL     1       2.586  -1.776   1.421  0.00  0.00    -0.252 OA
ATOM      8  N   UNL     1       0.724  -0.519   1.178  0.00  0.00    -0.281 N 
ATOM      9  H   UNL     1       0.487  -0.383   2.109  0.00  0.00    +0.152 HD
ENDROOT
BRANCH   2  10
ATOM     10  C   UNL     1      -1.401  -0.551  -0.040  0.00  0.00    -0.012 A 
ATOM     11  C   UNL     1      -2.003  -0.814  -1.256  0.00  0.00    +0.010 A 
ATOM     12  C   UNL     1      -3.291  -1.315  -1.299  0.00  0.00    +0.050 A 
ATOM     13  C   UNL     1      -3.982  -1.556  -0.121  0.00  0.00    +0.162 A 
ATOM     14  C   UNL     1      -3.376  -1.294   1.102  0.00  0.00    +0.162 A 
ATOM     15  C   UNL     1      -2.082  -0.795   1.138  0.00  0.00    +0.055 A 
ATOM     16  O   UNL     1      -4.033  -1.531   2.270  0.00  0.00    -0.485 OA
ATOM     17  C   UNL     1      -5.455  -1.683   2.189  0.00  0.00    +0.270 C 
ATOM     18  C   UNL     1      -5.771  -2.627   1.021  0.00  0.00    +0.270 C 
ATOM     19  O   UNL     1      -5.251  -2.045  -0.179  0.00  0.00    -0.485 OA
ENDBRANCH   2  10
BRANCH   5  20
ATOM     20  C   UNL     1       2.871  -1.896  -1.406  0.00  0.00    +0.153 C 
BRANCH  20  21
ATOM     21  C   UNL     1       4.020  -0.950  -1.644  0.00  0.00    -0.029 A 
ATOM     22  C   UNL     1       4.027  -0.140  -2.764  0.00  0.00    +0.008 A 
ATOM     23  C   UNL     1       5.079   0.729  -2.983  0.00  0.00    +0.038 A 
ATOM     24  C   UNL     1       6.127   0.787  -2.079  0.00  0.00    +0.123 A 
ATOM     25  C   UNL     1       6.119  -0.025  -0.958  0.00  0.00    +0.038 A 
ATOM     26  C   UNL     1       5.063  -0.889  -0.738  0.00  0.00    +0.008 A 
ATOM     27  F   UNL     1       7.157   1.635  -2.293  0.00  0.00    -0.205 F 
ENDBRANCH  20  21
ENDBRANCH   5  20
TORSDOF 3
