REMARK  Name = ZINC43560561
REMARK  4 active torsions:
REMARK  status: ('A' for Active; 'I' for Inactive)
REMARK    1  A    between atoms: C_4  and  C_7
REMARK    2  A    between atoms: C_7  and  C_9
REMARK    3  A    between atoms: C_7  and  N_21
REMARK    4  A    between atoms: C_11  and  C_14
REMARK                            x       y       z     vdW  Elec       q    Type
REMARK                         _______ _______ _______ _____ _____    ______ ____
ROOT
ATOM      1  C   UNL     1       4.014  -1.161  -1.442  0.00  0.00    +0.217 A 
ATOM      2  N   UNL     1       4.894  -0.627  -2.241  0.00  0.00    -0.192 NA
ATOM      3  C   UNL     1       4.904  -1.280  -3.417  0.00  0.00    +0.203 A 
ATOM      4  N   UNL     1       4.019  -2.245  -3.368  0.00  0.00    -0.056 NA
ATOM      5  O   UNL     1       3.429  -2.184  -2.078  0.00  0.00    -0.339 OA
ENDROOT
BRANCH   3   6
ATOM      6  C   UNL     1       5.774  -0.962  -4.577  0.00  0.00    +0.036 A 
ATOM      7  C   UNL     1       6.684   0.091  -4.500  0.00  0.00    +0.013 A 
ATOM      8  C   UNL     1       7.490   0.382  -5.581  0.00  0.00    +0.001 A 
ATOM      9  C   UNL     1       7.398  -0.368  -6.740  0.00  0.00    +0.001 A 
ATOM     10  C   UNL     1       6.497  -1.414  -6.822  0.00  0.00    +0.016 A 
ATOM     11  C   UNL     1       5.688  -1.719  -5.744  0.00  0.00    +0.029 A 
ATOM     12 BR   UNL     1       4.462  -3.154  -5.855  0.00  0.00    -0.050 Br
ENDBRANCH   3   6
BRANCH   1  13
ATOM     13  C   UNL     1       3.711  -0.707  -0.038  0.00  0.00    +0.046 C 
BRANCH  13  17
ATOM     14  C   UNL     1      -0.017   1.378   0.010  0.00  0.00    +0.000 A 
ATOM     15  C   UNL     1       1.171   2.086   0.002  0.00  0.00    +0.000 A 
ATOM     16  C   UNL     1       2.377   1.411  -0.013  0.00  0.00    +0.002 A 
ATOM     17  C   UNL     1       2.396   0.029  -0.020  0.00  0.00    -0.053 A 
ATOM     18  C   UNL     1       1.208  -0.679  -0.012  0.00  0.00    +0.002 A 
ATOM     19  C   UNL     1       0.002  -0.004   0.002  0.00  0.00    +0.000 A 
ENDBRANCH  13  17
BRANCH  13  20
ATOM     20  N   UNL     1       3.630  -1.877   0.848  0.00  0.00    +0.389 N 
ATOM     21  H   UNL     1       4.510  -2.369   0.836  0.00  0.00    -0.088 HD
ATOM     22  H   UNL     1       3.427  -1.573   1.788  0.00  0.00    -0.088 HD
ATOM     23  H   UNL     1       2.897  -2.491   0.527  0.00  0.00    -0.088 HD
ENDBRANCH  13  20
ENDBRANCH   1  13
TORSDOF 4
