REMARK  Name = ZINC55403723
REMARK  8 active torsions:
REMARK  status: ('A' for Active; 'I' for Inactive)
REMARK    1  A    between atoms: C_1  and  N_2
REMARK    2  A    between atoms: C_6  and  C_7
REMARK    3  A    between atoms: C_12  and  C_13
REMARK    4  A    between atoms: N_15  and  C_16
REMARK    5  A    between atoms: C_16  and  C_17
REMARK    6  A    between atoms: N_19  and  C_20
REMARK    7  A    between atoms: C_20  and  C_21
REMARK    8  A    between atoms: C_20  and  C_27
REMARK                            x       y       z     vdW  Elec       q    Type
REMARK                         _______ _______ _______ _____ _____    ______ ____
ROOT
ATOM      1  C   UNL     1       0.722  -4.852   4.101  0.00  0.00    +0.200 C 
ENDROOT
BRANCH   1   4
ATOM      2  C   UNL     1       0.507  -2.564   3.292  0.00  0.00    +0.245 C 
ATOM      3  O   UNL     1       0.524  -2.995   2.155  0.00  0.00    -0.270 OA
ATOM      4  N   UNL     1       0.600  -3.411   4.336  0.00  0.00    -0.303 N 
ATOM      5  H   UNL     1       0.587  -3.067   5.242  0.00  0.00    +0.150 HD
BRANCH   2  11
ATOM      6  C   UNL     1       0.409  -0.213   2.445  0.00  0.00    +0.028 A 
ATOM      7  C   UNL     1       0.286   1.155   2.684  0.00  0.00    +0.012 A 
ATOM      8  C   UNL     1       0.148   1.620   3.975  0.00  0.00    +0.001 A 
ATOM      9  C   UNL     1       0.129   0.736   5.042  0.00  0.00    +0.001 A 
ATOM     10  C   UNL     1       0.249  -0.621   4.827  0.00  0.00    +0.014 A 
ATOM     11  C   UNL     1       0.385  -1.112   3.528  0.00  0.00    +0.047 A 
BRANCH   6  17
ATOM     12  C   UNL     1      -1.846  -0.446   0.329  0.00  0.00    +0.150 C 
ATOM     13  N   UNL     1      -0.441  -0.815   0.139  0.00  0.00    -0.335 N 
ATOM     14  C   UNL     1       0.120  -1.319  -1.002  0.00  0.00    +0.104 A 
ATOM     15  C   UNL     1       1.430  -1.518  -0.744  0.00  0.00    +0.102 A 
ATOM     16  N   UNL     1       1.672  -1.149   0.518  0.00  0.00    -0.346 N 
ATOM     17  C   UNL     1       0.557  -0.716   1.064  0.00  0.00    +0.119 A 
ATOM     18  H   UNL     1       2.535  -1.189   0.959  0.00  0.00    +0.167 HD
ENDBRANCH   6  17
ENDBRANCH   2  11
ENDBRANCH   1   4
BRANCH   1  19
ATOM     19  C   UNL     1       0.809  -5.571   5.423  0.00  0.00    +0.231 C 
ATOM     20  O   UNL     1       0.773  -4.942   6.459  0.00  0.00    -0.274 OA
ATOM     21  N   UNL     1       0.926  -6.913   5.453  0.00  0.00    -0.303 N 
ATOM     22  H   UNL     1       0.955  -7.417   4.625  0.00  0.00    +0.150 HD
BRANCH  21  23
ATOM     23  C   UNL     1       1.011  -7.612   6.738  0.00  0.00    +0.134 C 
BRANCH  23  24
ATOM     24  C   UNL     1       0.529  -9.030   6.572  0.00  0.00    -0.023 A 
ATOM     25  C   UNL     1       0.869  -9.747   5.440  0.00  0.00    +0.006 A 
ATOM     26  C   UNL     1       0.427 -11.048   5.287  0.00  0.00    +0.000 A 
ATOM     27  C   UNL     1      -0.355 -11.632   6.266  0.00  0.00    +0.000 A 
ATOM     28  C   UNL     1      -0.695 -10.915   7.398  0.00  0.00    +0.000 A 
ATOM     29  C   UNL     1      -0.249  -9.616   7.553  0.00  0.00    +0.006 A 
ENDBRANCH  23  24
BRANCH  23  30
ATOM     30  C   UNL     1       2.442  -7.620   7.212  0.00  0.00    -0.023 A 
ATOM     31  C   UNL     1       3.468  -7.821   6.308  0.00  0.00    +0.006 A 
ATOM     32  C   UNL     1       4.780  -7.829   6.743  0.00  0.00    +0.000 A 
ATOM     33  C   UNL     1       5.066  -7.635   8.082  0.00  0.00    +0.000 A 
ATOM     34  C   UNL     1       4.040  -7.433   8.985  0.00  0.00    +0.000 A 
ATOM     35  C   UNL     1       2.728  -7.422   8.550  0.00  0.00    +0.006 A 
ENDBRANCH  23  30
ENDBRANCH  21  23
ENDBRANCH   1  19
TORSDOF 7
