REMARK  Name = ZINC39696021
REMARK  8 active torsions:
REMARK  status: ('A' for Active; 'I' for Inactive)
REMARK    1  A    between atoms: C_1  and  C_2
REMARK    2  A    between atoms: C_2  and  C_3
REMARK    3  A    between atoms: C_6  and  C_9
REMARK    4  A    between atoms: C_9  and  C_11
REMARK    5  A    between atoms: C_9  and  N_12
REMARK    6  A    between atoms: C_13  and  C_15
REMARK    7  A    between atoms: C_26  and  C_28
REMARK    8  A    between atoms: C_30  and  C_35
REMARK                            x       y       z     vdW  Elec       q    Type
REMARK                         _______ _______ _______ _____ _____    ______ ____
ROOT
ATOM      1  C   UNL     1       6.437   0.013  -6.040  0.00  0.00    +0.100 C 
ATOM      2  C   UNL     1       7.284  -0.955  -5.184  0.00  0.00    +0.121 C 
ATOM      3  N   UNL     1       7.893  -1.886  -6.164  0.00  0.00    -0.296 N 
ATOM      4  C   UNL     1       8.249  -1.026  -7.318  0.00  0.00    +0.115 C 
ATOM      5  C   UNL     1       7.075  -0.034  -7.439  0.00  0.00    -0.004 C 
ATOM      6  C   UNL     1       6.064  -0.537  -8.464  0.00  0.00    -0.010 C 
ATOM      7  C   UNL     1       6.704  -0.521  -9.855  0.00  0.00    -0.082 C 
ATOM      8  N   UNL     1       7.127   0.845 -10.185  0.00  0.00    +0.379 N 
ATOM      9  C   UNL     1       8.167   1.287  -9.249  0.00  0.00    -0.082 C 
ATOM     10  C   UNL     1       7.589   1.347  -7.832  0.00  0.00    -0.010 C 
ATOM     11  C   UNL     1       8.080  -3.214  -6.035  0.00  0.00    +0.247 C 
ATOM     12  O   UNL     1       7.619  -3.803  -5.076  0.00  0.00    -0.270 OA
ATOM     13  H   UNL     1       7.493   0.865 -11.125  0.00  0.00    -0.086 HD
ATOM     14  H   UNL     1       6.334   1.466 -10.123  0.00  0.00    -0.086 HD
ENDROOT
BRANCH  11  15
ATOM     15  C   UNL     1       8.846  -3.956  -7.059  0.00  0.00    +0.040 A 
ATOM     16  C   UNL     1       8.685  -5.336  -7.191  0.00  0.00    +0.025 A 
ATOM     17  C   UNL     1       9.402  -6.024  -8.149  0.00  0.00    +0.058 A 
ATOM     18  C   UNL     1      10.280  -5.348  -8.978  0.00  0.00    +0.050 A 
ATOM     19  C   UNL     1      10.445  -3.979  -8.853  0.00  0.00    +0.125 A 
ATOM     20  C   UNL     1       9.728  -3.278  -7.901  0.00  0.00    +0.051 A 
ATOM     21  F   UNL     1      11.304  -3.326  -9.665  0.00  0.00    -0.205 F 
BRANCH  17  22
ATOM     22  C   UNL     1       9.229  -7.514  -8.291  0.00  0.00    +0.418 C 
ATOM     23  F   UNL     1       8.203  -7.779  -9.204  0.00  0.00    -0.166 F 
ATOM     24  F   UNL     1      10.422  -8.080  -8.753  0.00  0.00    -0.166 F 
ATOM     25  F   UNL     1       8.902  -8.066  -7.048  0.00  0.00    -0.166 F 
ENDBRANCH  17  22
ENDBRANCH  11  15
BRANCH   1  27
ATOM     26  N   UNL     1       4.019   0.425  -6.359  0.00  0.00    -0.308 N 
ATOM     27  C   UNL     1       5.006  -0.456  -6.100  0.00  0.00    +0.219 C 
ATOM     28  O   UNL     1       4.743  -1.625  -5.917  0.00  0.00    -0.275 OA
ATOM     29  H   UNL     1       4.229   1.360  -6.505  0.00  0.00    +0.149 HD
BRANCH  26  30
ATOM     30  C   UNL     1       2.627  -0.031  -6.417  0.00  0.00    +0.100 C 
ATOM     31  C   UNL     1       2.038  -0.054  -5.005  0.00  0.00    +0.033 C 
BRANCH  30  35
ATOM     32  C   UNL     1       0.356   2.635  -8.862  0.00  0.00    -0.048 A 
ATOM     33  C   UNL     1       0.139   1.272  -8.939  0.00  0.00    +0.004 A 
ATOM     34  C   UNL     1       0.874   0.409  -8.148  0.00  0.00    +0.006 A 
ATOM     35  C   UNL     1       1.827   0.909  -7.280  0.00  0.00    -0.027 A 
ATOM     36  C   UNL     1       2.045   2.272  -7.204  0.00  0.00    +0.006 A 
ATOM     37  C   UNL     1       1.312   3.135  -7.998  0.00  0.00    +0.004 A 
BRANCH  32  39
ATOM     38  C   UNL     1       0.277   3.788 -11.056  0.00  0.00    +0.009 C 
ATOM     39  C   UNL     1      -0.446   3.575  -9.725  0.00  0.00    +0.032 C 
ENDBRANCH  32  39
ENDBRANCH  30  35
ENDBRANCH  26  30
ENDBRANCH   1  27
TORSDOF 6
