REMARK  Name = ZINC33939920
REMARK  13 active torsions:
REMARK  status: ('A' for Active; 'I' for Inactive)
REMARK    1  A    between atoms: C_1  and  C_2
REMARK    2  A    between atoms: C_8  and  C_10
REMARK    3  A    between atoms: N_16  and  C_32
REMARK    4  A    between atoms: C_17  and  C_25
REMARK    5  A    between atoms: C_22  and  C_24
REMARK    6  A    between atoms: N_27  and  C_28
REMARK    7  A    between atoms: C_28  and  C_29
REMARK    8  A    between atoms: C_28  and  C_30
REMARK    9  A    between atoms: C_28  and  C_31
REMARK   10  A    between atoms: C_32  and  C_33
REMARK   11  A    between atoms: C_33  and  C_34
REMARK   12  A    between atoms: C_37  and  O_40
REMARK   13  A    between atoms: O_40  and  C_41
REMARK                            x       y       z     vdW  Elec       q    Type
REMARK                         _______ _______ _______ _____ _____    ______ ____
ROOT
ATOM      1  C   UNL     1      -3.646  -4.389  -0.006  0.00  0.00    +0.126 C 
ATOM      2  C   UNL     1      -5.124  -4.016   0.205  0.00  0.00    +0.128 C 
ATOM      3  C   UNL     1      -5.372  -2.569   0.525  0.00  0.00    +0.223 C 
ATOM      4  O   UNL     1      -4.896  -1.627  -0.071  0.00  0.00    -0.275 OA
ATOM      5  N   UNL     1      -6.214  -2.483   1.586  0.00  0.00    -0.286 N 
ATOM      6  C   UNL     1      -6.492  -3.827   2.149  0.00  0.00    +0.198 C 
ATOM      7  C   UNL     1      -5.396  -4.699   1.596  0.00  0.00    +0.127 C 
ATOM      8  C   UNL     1      -5.497  -6.163   1.356  0.00  0.00    +0.009 C 
ATOM      9  C   UNL     1      -4.233  -6.532   1.111  0.00  0.00    +0.007 C 
ATOM     10  C   UNL     1      -3.358  -5.281   1.245  0.00  0.00    +0.098 C 
ATOM     11  O   UNL     1      -4.118  -4.537   2.267  0.00  0.00    -0.355 OA
ATOM     12  C   UNL     1      -1.880  -5.541   1.543  0.00  0.00    +0.047 C 
ENDROOT
BRANCH   1  20
ATOM     13  C   UNL     1       0.331   1.254   0.455  0.00  0.00    +0.089 C 
ATOM     14  C   UNL     1      -0.342   0.241  -0.434  0.00  0.00    +0.136 A 
ATOM     15  C   UNL     1      -1.096  -0.794  -0.022  0.00  0.00    +0.091 A 
ATOM     16  C   UNL     1      -1.537  -1.498  -1.165  0.00  0.00    +0.168 A 
ATOM     17  N   UNL     1      -1.055  -0.893  -2.220  0.00  0.00    -0.063 NA
ATOM     18  O   UNL     1      -0.297   0.217  -1.776  0.00  0.00    -0.358 OA
ATOM     19  N   UNL     1      -2.344  -2.636  -1.168  0.00  0.00    -0.267 N 
ATOM     20  C   UNL     1      -2.774  -3.159  -0.003  0.00  0.00    +0.225 C 
ATOM     21  O   UNL     1      -2.460  -2.641   1.048  0.00  0.00    -0.275 OA
ATOM     22  H   UNL     1      -2.595  -3.050  -2.008  0.00  0.00    +0.156 HD
ENDBRANCH   1  20
BRANCH   6  23
ATOM     23  C   UNL     1      -6.441  -3.789   3.655  0.00  0.00    +0.237 C 
ATOM     24  O   UNL     1      -5.883  -2.873   4.220  0.00  0.00    -0.274 OA
ATOM     25  N   UNL     1      -7.016  -4.774   4.373  0.00  0.00    -0.309 N 
ATOM     26  H   UNL     1      -7.463  -5.507   3.921  0.00  0.00    +0.149 HD
BRANCH  25  27
ATOM     27  C   UNL     1      -6.967  -4.738   5.837  0.00  0.00    +0.026 C 
ATOM     28  C   UNL     1      -7.653  -3.466   6.339  0.00  0.00    +0.031 C 
ATOM     29  C   UNL     1      -7.689  -5.963   6.402  0.00  0.00    +0.031 C 
ATOM     30  C   UNL     1      -5.509  -4.747   6.299  0.00  0.00    +0.031 C 
ENDBRANCH  25  27
ENDBRANCH   6  23
BRANCH   5  31
ATOM     31  C   UNL     1      -6.773  -1.233   2.105  0.00  0.00    +0.113 C 
BRANCH  31  32
ATOM     32  C   UNL     1      -8.099  -0.935   1.401  0.00  0.00    +0.054 C 
BRANCH  32  33
ATOM     33  C   UNL     1      -8.674   0.351   1.934  0.00  0.00    -0.046 A 
ATOM     34  C   UNL     1      -9.520   0.328   3.028  0.00  0.00    +0.007 A 
ATOM     35  C   UNL     1     -10.049   1.506   3.518  0.00  0.00    +0.046 A 
ATOM     36  C   UNL     1      -9.730   2.713   2.914  0.00  0.00    +0.120 A 
ATOM     37  C   UNL     1      -8.880   2.734   1.817  0.00  0.00    +0.046 A 
ATOM     38  C   UNL     1      -8.350   1.554   1.333  0.00  0.00    +0.007 A 
BRANCH  36  39
ATOM     39  O   UNL     1     -10.249   3.874   3.394  0.00  0.00    -0.495 OA
ATOM     40  C   UNL     1      -9.877   5.079   2.722  0.00  0.00    +0.277 C 
ENDBRANCH  36  39
ENDBRANCH  32  33
ENDBRANCH  31  32
ENDBRANCH   5  31
TORSDOF 7
