REMARK  Name = ZINC04953683
REMARK  5 active torsions:
REMARK  status: ('A' for Active; 'I' for Inactive)
REMARK    1  A    between atoms: C_3  and  C_9
REMARK    2  A    between atoms: C_10  and  C_11
REMARK    3  A    between atoms: C_10  and  C_13
REMARK    4  A    between atoms: N_15  and  C_16
REMARK    5  A    between atoms: C_21  and  N_22
REMARK                            x       y       z     vdW  Elec       q    Type
REMARK                         _______ _______ _______ _____ _____    ______ ____
ROOT
ATOM      1  C   UNL     1       3.618   6.081  -0.229  0.00  0.00    +0.259 C 
ATOM      2  O   UNL     1       4.671   5.476  -0.298  0.00  0.00    -0.269 OA
ATOM      3  N   UNL     1       3.609   7.428  -0.283  0.00  0.00    -0.279 N 
ATOM      4  H   UNL     1       2.778   7.913  -0.162  0.00  0.00    +0.155 HD
ENDROOT
BRANCH   3   5
ATOM      5  C   UNL     1       4.799   8.126  -0.514  0.00  0.00    +0.064 A 
ATOM      6  C   UNL     1       5.988   7.681   0.051  0.00  0.00    +0.027 A 
ATOM      7  C   UNL     1       7.161   8.373  -0.179  0.00  0.00    +0.022 A 
ATOM      8  C   UNL     1       7.153   9.508  -0.971  0.00  0.00    +0.043 A 
ATOM      9  C   UNL     1       5.971   9.953  -1.535  0.00  0.00    +0.054 A 
ATOM     10  C   UNL     1       4.795   9.262  -1.312  0.00  0.00    +0.149 A 
ATOM     11 CL   UNL     1       8.630  10.374  -1.258  0.00  0.00    -0.083 Cl
BRANCH  10  12
ATOM     12  N   UNL     1       3.531   9.736  -1.920  0.00  0.00    +0.058 N 
ATOM     13  O   UNL     1       3.541  10.687  -2.682  0.00  0.00    -0.126 OA
ATOM     14  O   UNL     1       2.482   9.175  -1.659  0.00  0.00    -0.126 OA
ENDBRANCH  10  12
ENDBRANCH   3   5
BRANCH   1  16
ATOM     15  C   UNL     1       2.362   3.967  -0.032  0.00  0.00    +0.033 C 
ATOM     16  C   UNL     1       2.353   5.342  -0.087  0.00  0.00    +0.114 C 
BRANCH  15  19
ATOM     17  C   UNL     1      -1.197   3.015  -0.710  0.00  0.00    +0.020 A 
ATOM     18  C   UNL     1      -0.012   3.718  -0.724  0.00  0.00    +0.011 A 
ATOM     19  C   UNL     1       1.098   3.225  -0.024  0.00  0.00    -0.005 A 
ATOM     20  C   UNL     1       0.992   2.020   0.685  0.00  0.00    +0.050 A 
ATOM     21  C   UNL     1      -0.202   1.329   0.687  0.00  0.00    +0.040 A 
ATOM     22  C   UNL     1      -1.293   1.821  -0.012  0.00  0.00    +0.042 A 
ATOM     23 CL   UNL     1      -2.789   0.942  -0.008  0.00  0.00    -0.083 Cl
ATOM     24 CL   UNL     1       2.358   1.398   1.556  0.00  0.00    -0.083 Cl
ENDBRANCH  15  19
BRANCH  16  25
ATOM     25  C   UNL     1       1.113   6.054  -0.006  0.00  0.00    +0.104 C 
ATOM     26  N   UNL     1       0.130   6.619   0.058  0.00  0.00    -0.191 NA
ENDBRANCH  16  25
ENDBRANCH   1  16
TORSDOF 5
