REMARK  Name = ZINC40323059
REMARK  9 active torsions:
REMARK  status: ('A' for Active; 'I' for Inactive)
REMARK    1  A    between atoms: C_1  and  N_2
REMARK    2  A    between atoms: N_2  and  C_3
REMARK    3  A    between atoms: N_2  and  C_4
REMARK    4  A    between atoms: C_4  and  C_6
REMARK    5  A    between atoms: C_4  and  C_25
REMARK    6  A    between atoms: C_6  and  N_7
REMARK    7  A    between atoms: C_8  and  C_10
REMARK    8  A    between atoms: C_13  and  S_15
REMARK    9  A    between atoms: S_15  and  C_18
REMARK                            x       y       z     vdW  Elec       q    Type
REMARK                         _______ _______ _______ _____ _____    ______ ____
ROOT
ATOM      1  N   UNL     1      -0.964  -2.611   0.830  0.00  0.00    -0.310 N 
ATOM      2  C   UNL     1      -1.054  -3.951   0.934  0.00  0.00    +0.279 C 
ATOM      3  O   UNL     1      -1.722  -4.580   0.136  0.00  0.00    -0.267 OA
ATOM      4  H   UNL     1      -0.430  -2.109   1.467  0.00  0.00    +0.149 HD
ENDROOT
BRANCH   2   5
ATOM      5  C   UNL     1      -0.345  -4.652   2.010  0.00  0.00    +0.192 A 
ATOM      6  C   UNL     1      -0.346  -6.001   2.226  0.00  0.00    +0.056 A 
ATOM      7  C   UNL     1       0.458  -6.229   3.354  0.00  0.00    +0.070 A 
ATOM      8  C   UNL     1       0.909  -5.026   3.772  0.00  0.00    +0.246 A 
ATOM      9  O   UNL     1       0.427  -4.079   2.957  0.00  0.00    -0.433 OA
BRANCH   8  10
ATOM     10  S   UNL     1       1.962  -4.749   5.157  0.00  0.00    +0.058 S 
ATOM     11  O   UNL     1       1.741  -3.408   5.574  0.00  0.00    -0.161 OA
ATOM     12  O   UNL     1       1.784  -5.857   6.029  0.00  0.00    -0.161 OA
BRANCH  10  13
ATOM     13  C   UNL     1       3.622  -4.828   4.574  0.00  0.00    +0.097 A 
ATOM     14  C   UNL     1       4.293  -6.037   4.559  0.00  0.00    +0.028 A 
ATOM     15  C   UNL     1       5.595  -6.099   4.100  0.00  0.00    +0.017 A 
ATOM     16  C   UNL     1       6.228  -4.952   3.657  0.00  0.00    +0.018 A 
ATOM     17  C   UNL     1       5.557  -3.743   3.672  0.00  0.00    +0.017 A 
ATOM     18  C   UNL     1       4.252  -3.682   4.125  0.00  0.00    +0.028 A 
ATOM     19 BR   UNL     1       8.010  -5.037   3.030  0.00  0.00    -0.050 Br
ENDBRANCH  10  13
ENDBRANCH   8  10
ENDBRANCH   2   5
BRANCH   1  20
ATOM     20  C   UNL     1      -1.671  -1.911  -0.244  0.00  0.00    +0.094 C 
BRANCH  20  21
ATOM     21  C   UNL     1      -1.510  -0.400  -0.062  0.00  0.00    -0.020 C 
BRANCH  21  22
ATOM     22  C   UNL     1      -0.062  -0.024  -0.246  0.00  0.00    -0.041 A 
ATOM     23  C   UNL     1       0.770   0.082   0.852  0.00  0.00    +0.003 A 
ATOM     24  C   UNL     1       2.098   0.427   0.683  0.00  0.00    +0.000 A 
ATOM     25  C   UNL     1       2.595   0.666  -0.584  0.00  0.00    +0.001 A 
ATOM     26  C   UNL     1       1.764   0.560  -1.684  0.00  0.00    +0.020 A 
ATOM     27  C   UNL     1       0.436   0.210  -1.516  0.00  0.00    +0.043 A 
ATOM     28 CL   UNL     1      -0.607   0.071  -2.897  0.00  0.00    -0.083 Cl
ENDBRANCH  21  22
BRANCH  21  30
ATOM     29  C   UNL     1      -1.832   1.435   1.448  0.00  0.00    -0.096 C 
ATOM     30  N   UNL     1      -1.946  -0.020   1.288  0.00  0.00    +0.382 N 
ATOM     31  C   UNL     1      -3.344  -0.426   1.483  0.00  0.00    -0.096 C 
ATOM     32  H   UNL     1      -1.364  -0.481   1.972  0.00  0.00    -0.082 HD
ENDBRANCH  21  30
ENDBRANCH  20  21
ENDBRANCH   1  20
TORSDOF 7
