REMARK  Name = ZINC35586369
REMARK  4 active torsions:
REMARK  status: ('A' for Active; 'I' for Inactive)
REMARK    1  A    between atoms: C_6  and  C_7
REMARK    2  A    between atoms: C_7  and  C_12
REMARK    3  A    between atoms: N_14  and  C_15
REMARK    4  A    between atoms: C_16  and  C_20
REMARK                            x       y       z     vdW  Elec       q    Type
REMARK                         _______ _______ _______ _____ _____    ______ ____
ROOT
ATOM      1  C   UNL     1      -2.045  -0.505   1.288  0.00  0.00    +0.228 C 
ATOM      2  O   UNL     1      -2.245  -1.405   2.076  0.00  0.00    -0.274 OA
ATOM      3  N   UNL     1      -2.498   0.737   1.554  0.00  0.00    -0.279 N 
ATOM      4  H   UNL     1      -2.403   1.440   0.892  0.00  0.00    +0.155 HD
ENDROOT
BRANCH   1   5
ATOM      5  C   UNL     1      -1.292  -0.775   0.011  0.00  0.00    +0.072 C 
ATOM      6  C   UNL     1      -2.119  -0.306  -1.199  0.00  0.00    +0.021 C 
ATOM      7  C   UNL     1      -2.375  -1.555  -2.067  0.00  0.00    +0.001 C 
ATOM      8  C   UNL     1      -2.242  -2.740  -1.078  0.00  0.00    +0.001 C 
ATOM      9  C   UNL     1      -1.075  -2.292  -0.164  0.00  0.00    +0.021 C 
BRANCH   5  15
ATOM     10  C   UNL     1       0.383   0.716   1.124  0.00  0.00    +0.006 A 
ATOM     11  C   UNL     1       1.601   1.369   1.148  0.00  0.00    +0.020 A 
ATOM     12  C   UNL     1       2.473   1.243   0.081  0.00  0.00    +0.041 A 
ATOM     13  C   UNL     1       2.126   0.463  -1.008  0.00  0.00    +0.020 A 
ATOM     14  C   UNL     1       0.908  -0.189  -1.030  0.00  0.00    +0.006 A 
ATOM     15  C   UNL     1       0.036  -0.063   0.036  0.00  0.00    -0.032 A 
ATOM     16 CL   UNL     1       4.003   2.063   0.110  0.00  0.00    -0.084 Cl
ENDBRANCH   5  15
ENDBRANCH   1   5
BRANCH   3  17
ATOM     17  C   UNL     1      -3.098   1.009   2.774  0.00  0.00    +0.084 A 
ATOM     18  C   UNL     1      -3.623   2.215   3.216  0.00  0.00    +0.065 A 
ATOM     19  C   UNL     1      -4.196   2.223   4.542  0.00  0.00    +0.022 A 
ATOM     20  C   UNL     1      -4.157   1.052   5.205  0.00  0.00    +0.048 A 
ATOM     21  S   UNL     1      -3.364  -0.046   4.051  0.00  0.00    -0.081 S 
BRANCH  18  22
ATOM     22  C   UNL     1      -3.597   3.419   2.380  0.00  0.00    +0.244 C 
ATOM     23  O   UNL     1      -3.106   3.377   1.267  0.00  0.00    -0.270 OA
ATOM     24  N   UNL     1      -4.117   4.573   2.844  0.00  0.00    -0.325 N 
ATOM     25  H   UNL     1      -4.508   4.606   3.731  0.00  0.00    +0.145 HD
ATOM     26  H   UNL     1      -4.099   5.370   2.291  0.00  0.00    +0.145 HD
ENDBRANCH  18  22
ENDBRANCH   3  17
TORSDOF 4
