REMARK  Name = ZINC06494072
REMARK  2 active torsions:
REMARK  status: ('A' for Active; 'I' for Inactive)
REMARK    1  A    between atoms: C_1  and  C_2
REMARK    2  A    between atoms: C_14  and  C_16
REMARK                            x       y       z     vdW  Elec       q    Type
REMARK                         _______ _______ _______ _____ _____    ______ ____
ROOT
ATOM      1  C   UNL     1      -0.018   1.503   0.010  0.00  0.00    +0.086 C 
ATOM      2  C   UNL     1       0.002  -0.004   0.002  0.00  0.00    +0.105 A 
ATOM      3  N   UNL     1       0.007  -0.777  -1.119  0.00  0.00    -0.341 N 
ATOM      4  H   UNL     1      -0.001  -0.460  -2.036  0.00  0.00    +0.167 HD
ATOM      5  C   UNL     1       0.027  -2.099  -0.707  0.00  0.00    +0.084 A 
ATOM      6  C   UNL     1       0.033  -2.064   0.702  0.00  0.00    +0.106 A 
ATOM      7  N   UNL     1       0.023  -0.754   1.064  0.00  0.00    -0.232 NA
ATOM      8  C   UNL     1       0.052  -3.256   1.426  0.00  0.00    +0.073 A 
ATOM      9  C   UNL     1       0.065  -4.465   0.756  0.00  0.00    +0.109 A 
ATOM     10  C   UNL     1       0.059  -4.500  -0.652  0.00  0.00    +0.109 A 
ATOM     11  C   UNL     1       0.041  -3.308  -1.377  0.00  0.00    +0.071 A 
ATOM     12 BR   UNL     1       0.032  -3.346  -3.267  0.00  0.00    -0.046 Br
ATOM     13  N   UNL     1       0.074  -5.810  -1.014  0.00  0.00    -0.221 NA
ATOM     14  C   UNL     1       0.089  -6.560   0.048  0.00  0.00    +0.235 A 
ATOM     15  N   UNL     1       0.084  -5.787   1.169  0.00  0.00    -0.221 NA
ATOM     16 BR   UNL     1       0.061  -3.217   3.317  0.00  0.00    -0.046 Br
ENDROOT
BRANCH  14  17
ATOM     17  C   UNL     1       0.108  -8.067   0.040  0.00  0.00    +0.452 C 
ATOM     18  F   UNL     1       1.389  -8.518   0.372  0.00  0.00    -0.163 F 
ATOM     19  F   UNL     1      -0.814  -8.550   0.974  0.00  0.00    -0.163 F 
ATOM     20  F   UNL     1      -0.234  -8.530  -1.235  0.00  0.00    -0.163 F 
ENDBRANCH  14  17
TORSDOF 1
