REMARK  Name = ZINC19925984
REMARK  5 active torsions:
REMARK  status: ('A' for Active; 'I' for Inactive)
REMARK    1  A    between atoms: C_1  and  C_2
REMARK    2  A    between atoms: C_5  and  C_8
REMARK    3  A    between atoms: C_14  and  O_28
REMARK    4  A    between atoms: C_19  and  C_21
REMARK    5  A    between atoms: O_28  and  C_29
REMARK                            x       y       z     vdW  Elec       q    Type
REMARK                         _______ _______ _______ _____ _____    ______ ____
ROOT
ATOM      1  C   UNL     1       1.391  -2.282  -0.030  0.00  0.00    +0.172 C 
ATOM      2  C   UNL     1       2.040  -2.721   1.259  0.00  0.00    +0.025 C 
ATOM      3  C   UNL     1       3.268  -3.233   1.304  0.00  0.00    +0.050 C 
ATOM      4  C   UNL     1       3.832  -3.606   2.624  0.00  0.00    +0.042 A 
ATOM      5  C   UNL     1       4.946  -4.430   2.730  0.00  0.00    +0.059 A 
ATOM      6  C   UNL     1       5.439  -4.752   3.984  0.00  0.00    +0.121 A 
ATOM      7  C   UNL     1       4.824  -4.255   5.125  0.00  0.00    +0.049 A 
ATOM      8  C   UNL     1       3.715  -3.435   5.023  0.00  0.00    +0.050 A 
ATOM      9  C   UNL     1       3.214  -3.107   3.777  0.00  0.00    +0.131 A 
ATOM     10  O   UNL     1       2.125  -2.308   3.639  0.00  0.00    -0.479 OA
ATOM     11  C   UNL     1       1.251  -2.583   2.545  0.00  0.00    +0.234 C 
ATOM     12  N   UNL     1       4.041  -3.417   0.152  0.00  0.00    -0.283 N 
ATOM     13  C   UNL     1       3.397  -3.309  -1.071  0.00  0.00    +0.219 A 
ATOM     14  N   UNL     1       2.150  -2.784  -1.169  0.00  0.00    -0.221 N 
ATOM     15  N   UNL     1       1.804  -2.839  -2.519  0.00  0.00    -0.156 NA
ATOM     16  C   UNL     1       2.823  -3.368  -3.150  0.00  0.00    +0.247 A 
ATOM     17  N   UNL     1       3.788  -3.650  -2.267  0.00  0.00    -0.201 NA
ATOM     18  H   UNL     1       5.115  -3.638   0.239  0.00  0.00    +0.155 HD
ENDROOT
BRANCH   1  23
ATOM     19  C   UNL     1       1.240   3.492  -0.224  0.00  0.00    +0.044 C 
ATOM     20  C   UNL     1       1.279   1.986  -0.173  0.00  0.00    -0.050 A 
ATOM     21  C   UNL     1       0.102   1.262  -0.216  0.00  0.00    +0.004 A 
ATOM     22  C   UNL     1       0.139  -0.119  -0.170  0.00  0.00    +0.006 A 
ATOM     23  C   UNL     1       1.352  -0.776  -0.081  0.00  0.00    -0.019 A 
ATOM     24  C   UNL     1       2.528  -0.052  -0.039  0.00  0.00    +0.006 A 
ATOM     25  C   UNL     1       2.492   1.329  -0.086  0.00  0.00    +0.004 A 
ENDBRANCH   1  23
BRANCH  11  26
ATOM     26  C   UNL     1       0.508  -3.866   2.813  0.00  0.00    -0.003 A 
ATOM     27  C   UNL     1      -0.851  -3.941   2.570  0.00  0.00    +0.010 A 
ATOM     28  C   UNL     1      -1.533  -5.119   2.810  0.00  0.00    +0.039 A 
ATOM     29  C   UNL     1      -0.857  -6.221   3.305  0.00  0.00    +0.123 A 
ATOM     30  C   UNL     1       0.503  -6.143   3.553  0.00  0.00    +0.039 A 
ATOM     31  C   UNL     1       1.184  -4.966   3.307  0.00  0.00    +0.010 A 
ATOM     32  F   UNL     1      -1.523  -7.371   3.546  0.00  0.00    -0.205 F 
ENDBRANCH  11  26
BRANCH   6  33
ATOM     33  O   UNL     1       6.529  -5.558   4.098  0.00  0.00    -0.495 OA
ATOM     34  C   UNL     1       6.985  -5.850   5.420  0.00  0.00    +0.277 C 
ENDBRANCH   6  33
TORSDOF 3
