REMARK  Name = ZINC59891417
REMARK  12 active torsions:
REMARK  status: ('A' for Active; 'I' for Inactive)
REMARK    1  A    between atoms: C_1  and  C_2
REMARK    2  A    between atoms: C_7  and  C_9
REMARK    3  A    between atoms: C_7  and  N_30
REMARK    4  A    between atoms: C_9  and  N_10
REMARK    5  A    between atoms: C_11  and  C_13
REMARK    6  A    between atoms: C_16  and  S_19
REMARK    7  A    between atoms: S_19  and  N_22
REMARK    8  A    between atoms: N_22  and  C_23
REMARK    9  A    between atoms: C_23  and  C_24
REMARK   10  A    between atoms: C_24  and  C_25
REMARK   11  A    between atoms: N_30  and  C_31
REMARK   12  A    between atoms: N_30  and  C_32
REMARK                            x       y       z     vdW  Elec       q    Type
REMARK                         _______ _______ _______ _____ _____    ______ ____
ROOT
ATOM      1  C   UNL     1       2.724  -6.053  -0.938  0.00  0.00    +0.037 A 
ATOM      2  C   UNL     1       1.916  -6.856  -0.132  0.00  0.00    +0.015 A 
ATOM      3  C   UNL     1       1.959  -8.228  -0.267  0.00  0.00    +0.029 A 
ATOM      4  C   UNL     1       2.801  -8.808  -1.199  0.00  0.00    +0.105 A 
ATOM      5  C   UNL     1       3.605  -8.018  -2.001  0.00  0.00    +0.029 A 
ATOM      6  C   UNL     1       3.567  -6.644  -1.880  0.00  0.00    +0.015 A 
ENDROOT
BRANCH   1   8
ATOM      7  N   UNL     1       1.867  -4.013   0.111  0.00  0.00    -0.313 N 
ATOM      8  C   UNL     1       2.682  -4.581  -0.799  0.00  0.00    +0.244 C 
ATOM      9  O   UNL     1       3.383  -3.884  -1.506  0.00  0.00    -0.270 OA
ATOM     10  H   UNL     1       1.308  -4.569   0.676  0.00  0.00    +0.149 HD
BRANCH   7  11
ATOM     11  C   UNL     1       1.826  -2.555   0.249  0.00  0.00    +0.092 C 
BRANCH  11  17
ATOM     12  C   UNL     1       3.110  -2.682   4.380  0.00  0.00    +0.007 C 
ATOM     13  C   UNL     1       2.646  -2.132   3.030  0.00  0.00    -0.015 C 
ATOM     14  C   UNL     1       2.536  -0.608   3.111  0.00  0.00    +0.003 C 
ATOM     15  C   UNL     1       2.072  -0.058   1.761  0.00  0.00    -0.001 C 
ATOM     16  C   UNL     1       0.705  -0.649   1.412  0.00  0.00    -0.010 C 
ATOM     17  C   UNL     1       0.814  -2.173   1.331  0.00  0.00    -0.050 C 
ATOM     18  C   UNL     1       1.279  -2.724   2.681  0.00  0.00    -0.007 C 
BRANCH  17  19
ATOM     19  N   UNL     1      -0.498  -2.741   0.996  0.00  0.00    +0.381 N 
ATOM     20  C   UNL     1      -1.487  -2.311   1.994  0.00  0.00    -0.096 C 
ATOM     21  C   UNL     1      -0.910  -2.273  -0.334  0.00  0.00    -0.096 C 
ATOM     22  H   UNL     1      -0.439  -3.748   0.994  0.00  0.00    -0.082 HD
ENDBRANCH  17  19
ENDBRANCH  11  17
ENDBRANCH   7  11
ENDBRANCH   1   8
BRANCH   4  23
ATOM     23  S   UNL     1       2.850 -10.562  -1.364  0.00  0.00    +0.058 S 
ATOM     24  O   UNL     1       4.116 -10.881  -1.925  0.00  0.00    -0.153 OA
ATOM     25  O   UNL     1       2.408 -11.099  -0.125  0.00  0.00    -0.153 OA
BRANCH  23  26
ATOM     26  N   UNL     1       1.713 -10.979  -2.494  0.00  0.00    -0.190 NA
ATOM     27  H   UNL     1       0.944 -11.510  -2.234  0.00  0.00    +0.148 HD
BRANCH  26  28
ATOM     28  C   UNL     1       1.869 -10.546  -3.885  0.00  0.00    +0.111 C 
BRANCH  28  29
ATOM     29  C   UNL     1       0.923 -11.351  -4.778  0.00  0.00    +0.059 C 
BRANCH  29  30
ATOM     30  C   UNL     1       1.083 -10.906  -6.209  0.00  0.00    -0.009 A 
ATOM     31  C   UNL     1       1.921 -11.383  -7.162  0.00  0.00    +0.011 A 
ATOM     32  C   UNL     1       1.895 -10.814  -8.422  0.00  0.00    +0.008 A 
ATOM     33  C   UNL     1       1.032  -9.798  -8.667  0.00  0.00    +0.045 A 
ATOM     34  S   UNL     1       0.214  -9.619  -7.090  0.00  0.00    -0.102 S 
ENDBRANCH  29  30
ENDBRANCH  28  29
ENDBRANCH  26  28
ENDBRANCH  23  26
ENDBRANCH   4  23
TORSDOF 9
