REMARK  Name = ZINC14584109
REMARK  9 active torsions:
REMARK  status: ('A' for Active; 'I' for Inactive)
REMARK    1  A    between atoms: C_1  and  C_2
REMARK    2  A    between atoms: C_2  and  N_3
REMARK    3  A    between atoms: N_3  and  C_4
REMARK    4  A    between atoms: C_5  and  N_20
REMARK    5  A    between atoms: N_6  and  C_13
REMARK    6  A    between atoms: C_13  and  C_14
REMARK    7  A    between atoms: C_21  and  C_23
REMARK    8  A    between atoms: C_24  and  C_25
REMARK    9  A    between atoms: C_28  and  C_30
REMARK                            x       y       z     vdW  Elec       q    Type
REMARK                         _______ _______ _______ _____ _____    ______ ____
ROOT
ATOM      1  C   UNL     1      -1.915  -0.583  -1.207  0.00  0.00    +0.140 A 
ATOM      2  C   UNL     1      -3.218  -0.972  -1.442  0.00  0.00    +0.128 A 
ATOM      3  N   UNL     1      -3.686  -1.004  -2.735  0.00  0.00    -0.276 N 
ATOM      4  C   UNL     1      -2.883  -0.661  -3.759  0.00  0.00    +0.331 A 
ATOM      5  O   UNL     1      -3.316  -0.697  -4.894  0.00  0.00    -0.246 OA
ATOM      6  N   UNL     1      -1.611  -0.279  -3.549  0.00  0.00    -0.273 N 
ATOM      7  H   UNL     1      -1.053  -0.036  -4.304  0.00  0.00    +0.173 HD
ATOM      8  C   UNL     1      -1.105  -0.225  -2.301  0.00  0.00    +0.277 A 
ATOM      9  O   UNL     1       0.049   0.128  -2.122  0.00  0.00    -0.266 OA
ENDROOT
BRANCH   1  10
ATOM     10  N   UNL     1      -1.405  -0.539   0.107  0.00  0.00    -0.261 N 
ATOM     11  C   UNL     1      -1.049   0.641   0.653  0.00  0.00    +0.244 C 
ATOM     12  O   UNL     1      -1.259   1.679   0.051  0.00  0.00    -0.270 OA
BRANCH  10  14
ATOM     13  C   UNL     1       0.078  -2.433   0.548  0.00  0.00    +0.025 C 
ATOM     14  C   UNL     1      -1.263  -1.776   0.879  0.00  0.00    +0.111 C 
ENDBRANCH  10  14
BRANCH  11  15
ATOM     15  C   UNL     1      -0.430   0.674   1.926  0.00  0.00    +0.071 C 
ATOM     16  C   UNL     1      -0.071   1.861   2.475  0.00  0.00    +0.051 C 
BRANCH  16  17
ATOM     17  C   UNL     1       0.548   1.894   3.748  0.00  0.00    +0.128 A 
ATOM     18  C   UNL     1       0.957   3.025   4.424  0.00  0.00    +0.049 A 
ATOM     19  C   UNL     1       1.512   2.587   5.636  0.00  0.00    +0.045 A 
ATOM     20  C   UNL     1       1.422   1.238   5.652  0.00  0.00    +0.103 A 
ATOM     21  O   UNL     1       0.837   0.826   4.519  0.00  0.00    -0.461 OA
ATOM     22  C   UNL     1       1.898   0.344   6.768  0.00  0.00    +0.086 C 
ENDBRANCH  16  17
ENDBRANCH  11  15
ENDBRANCH   1  10
BRANCH   2  23
ATOM     23  N   UNL     1      -4.038  -1.323  -0.396  0.00  0.00    -0.343 N 
ATOM     24  H   UNL     1      -3.683  -1.366   0.505  0.00  0.00    +0.144 HD
ATOM     25  H   UNL     1      -4.972  -1.528  -0.560  0.00  0.00    +0.144 HD
ENDBRANCH   2  23
BRANCH   3  26
ATOM     26  C   UNL     1      -5.067  -1.416  -2.999  0.00  0.00    +0.163 C 
BRANCH  26  27
ATOM     27  C   UNL     1      -5.966  -0.207  -2.970  0.00  0.00    -0.028 A 
ATOM     28  C   UNL     1      -6.550   0.192  -1.782  0.00  0.00    +0.005 A 
ATOM     29  C   UNL     1      -7.375   1.301  -1.755  0.00  0.00    +0.000 A 
ATOM     30  C   UNL     1      -7.614   2.012  -2.916  0.00  0.00    +0.000 A 
ATOM     31  C   UNL     1      -7.029   1.615  -4.104  0.00  0.00    +0.000 A 
ATOM     32  C   UNL     1      -6.202   0.508  -4.130  0.00  0.00    +0.005 A 
ENDBRANCH  26  27
ENDBRANCH   3  26
TORSDOF 7
