REMARK  Name = ZINC38596789
REMARK  10 active torsions:
REMARK  status: ('A' for Active; 'I' for Inactive)
REMARK    1  A    between atoms: C_1  and  C_2
REMARK    2  A    between atoms: C_2  and  O_3
REMARK    3  A    between atoms: O_3  and  C_4
REMARK    4  A    between atoms: C_4  and  C_6
REMARK    5  A    between atoms: N_11  and  C_13
REMARK    6  A    between atoms: C_13  and  C_14
REMARK    7  A    between atoms: N_16  and  C_17
REMARK    8  A    between atoms: C_25  and  C_27
REMARK    9  A    between atoms: C_27  and  O_29
REMARK   10  A    between atoms: O_29  and  C_30
REMARK                            x       y       z     vdW  Elec       q    Type
REMARK                         _______ _______ _______ _____ _____    ______ ____
ROOT
ATOM      1  C   UNL     1       3.108  -6.629   4.488  0.00  0.00    +0.200 C 
ATOM      2  O   UNL     1       3.747  -5.837   5.146  0.00  0.00    -0.278 OA
ATOM      3  N   UNL     1       3.200  -7.949   4.745  0.00  0.00    -0.288 N 
ATOM      4  H   UNL     1       2.651  -8.579   4.252  0.00  0.00    +0.155 HD
ENDROOT
BRANCH   3   5
ATOM      5  C   UNL     1       4.065  -8.399   5.697  0.00  0.00    +0.053 C 
ATOM      6  C   UNL     1       4.475  -9.704   5.904  0.00  0.00    +0.019 A 
ATOM      7  C   UNL     1       4.159 -10.919   5.250  0.00  0.00    +0.026 A 
ATOM      8  C   UNL     1       4.721 -12.078   5.676  0.00  0.00    +0.019 A 
ATOM      9  C   UNL     1       5.612 -12.108   6.754  0.00  0.00    +0.017 A 
ATOM     10  C   UNL     1       5.959 -10.984   7.426  0.00  0.00    +0.027 A 
ATOM     11  C   UNL     1       5.413  -9.732   7.040  0.00  0.00    +0.045 A 
ATOM     12  N   UNL     1       5.586  -8.519   7.523  0.00  0.00    -0.367 N 
ATOM     13  C   UNL     1       4.781  -7.573   6.743  0.00  0.00    +0.234 C 
ATOM     14 BR   UNL     1       4.289 -13.693   4.792  0.00  0.00    -0.050 Br
ATOM     15  H   UNL     1       6.159  -8.287   8.271  0.00  0.00    +0.161 HD
BRANCH  13  16
ATOM     16  C   UNL     1       3.781  -6.887   7.638  0.00  0.00    +0.335 C 
ATOM     17  O   UNL     1       3.554  -7.328   8.739  0.00  0.00    -0.248 OA
BRANCH  16  18
ATOM     18  O   UNL     1       3.142  -5.787   7.210  0.00  0.00    -0.466 OA
ATOM     19  C   UNL     1       2.207  -5.189   8.110  0.00  0.00    +0.280 C 
ENDBRANCH  16  18
ENDBRANCH  13  16
ENDBRANCH   3   5
BRANCH   1  20
ATOM     20  C   UNL     1       2.210  -6.139   3.381  0.00  0.00    +0.019 C 
BRANCH  20  25
ATOM     21  C   UNL     1       1.653  -2.688   2.014  0.00  0.00    +0.081 C 
ATOM     22  C   UNL     1       1.125  -2.019   3.286  0.00  0.00    +0.011 C 
ATOM     23  C   UNL     1       1.888  -2.569   4.494  0.00  0.00    -0.018 C 
ATOM     24  C   UNL     1       1.738  -4.091   4.535  0.00  0.00    -0.078 C 
ATOM     25  N   UNL     1       2.285  -4.673   3.304  0.00  0.00    +0.386 N 
ATOM     26  C   UNL     1       1.513  -4.207   2.146  0.00  0.00    -0.064 C 
ATOM     27  H   UNL     1       3.248  -4.393   3.199  0.00  0.00    -0.081 HD
BRANCH  21  28
ATOM     28  C   UNL     1       0.857  -2.211   0.826  0.00  0.00    +0.308 C 
ATOM     29  O   UNL     1       0.242  -3.004   0.153  0.00  0.00    -0.251 OA
BRANCH  28  30
ATOM     30  O   UNL     1       0.831  -0.905   0.516  0.00  0.00    -0.465 OA
BRANCH  30  32
ATOM     31  C   UNL     1       0.147   0.991  -0.817  0.00  0.00    +0.048 C 
ATOM     32  C   UNL     1       0.056  -0.524  -0.622  0.00  0.00    +0.229 C 
ENDBRANCH  30  32
ENDBRANCH  28  30
ENDBRANCH  21  28
ENDBRANCH  20  25
ENDBRANCH   1  20
TORSDOF 8
