REMARK  Name = ZINC26443360
REMARK  0 active torsions:
REMARK  status: ('A' for Active; 'I' for Inactive)
REMARK                            x       y       z     vdW  Elec       q    Type
REMARK                         _______ _______ _______ _____ _____    ______ ____
ROOT
ATOM      1  C   UNL     1       0.607   3.991   0.018  0.00  0.00    +0.205 A 
ATOM      2  C   UNL     1      -0.789   3.539   0.029  0.00  0.00    +0.293 A 
ATOM      3  O   UNL     1      -1.697   4.349   0.042  0.00  0.00    -0.264 OA
ATOM      4  N   UNL     1      -1.058   2.217   0.029  0.00  0.00    -0.169 NA
ATOM      5  C   UNL     1      -0.016   1.307   0.009  0.00  0.00    +0.276 A 
ATOM      6  N   UNL     1       0.002  -0.004   0.002  0.00  0.00    -0.106 NA
ATOM      7  N   UNL     1       1.339  -0.421  -0.013  0.00  0.00    -0.118 NA
ATOM      8  C   UNL     1       2.100   0.646  -0.015  0.00  0.00    +0.224 A 
ATOM      9  N   UNL     1       1.285   1.748  -0.001  0.00  0.00    -0.170 N 
ATOM     10  N   UNL     1       1.570   3.119   0.004  0.00  0.00    -0.164 NA
ATOM     11  S   UNL     1       3.862   0.662  -0.032  0.00  0.00    -0.007 SA
ENDROOT
TORSDOF 0
