REMARK  Name = ZINC12566364
REMARK  4 active torsions:
REMARK  status: ('A' for Active; 'I' for Inactive)
REMARK    1  A    between atoms: C_4  and  C_7
REMARK    2  A    between atoms: N_16  and  N_17
REMARK    3  A    between atoms: C_18  and  C_19
REMARK    4  A    between atoms: C_20  and  C_30
REMARK                            x       y       z     vdW  Elec       q    Type
REMARK                         _______ _______ _______ _____ _____    ______ ____
ROOT
ATOM      1  N   UNL     1       5.176   7.747  -0.009  0.00  0.00    -0.188 NA
ATOM      2  C   UNL     1       4.317   8.727   0.004  0.00  0.00    +0.147 C 
ENDROOT
BRANCH   1  12
ATOM      3  C   UNL     1       3.657   2.160  -0.022  0.00  0.00    +0.022 A 
ATOM      4  C   UNL     1       3.837   3.504  -0.017  0.00  0.00    +0.029 A 
ATOM      5  C   UNL     1       5.187   4.030  -0.027  0.00  0.00    +0.050 A 
ATOM      6  C   UNL     1       5.635   5.383  -0.025  0.00  0.00    +0.150 A 
ATOM      7  N   UNL     1       6.936   5.631  -0.035  0.00  0.00    -0.219 NA
ATOM      8  C   UNL     1       7.836   4.664  -0.049  0.00  0.00    +0.224 A 
ATOM      9  N   UNL     1       7.483   3.393  -0.052  0.00  0.00    -0.228 NA
ATOM     10  C   UNL     1       6.209   3.054  -0.042  0.00  0.00    +0.114 A 
ATOM     11  S   UNL     1       5.320   1.519  -0.035  0.00  0.00    -0.069 S 
ATOM     12  N   UNL     1       4.725   6.421  -0.011  0.00  0.00    -0.220 N 
ATOM     13  H   UNL     1       3.774   6.232  -0.003  0.00  0.00    +0.176 HD
BRANCH   3  17
ATOM     14  C   UNL     1       0.002  -0.004   0.002  0.00  0.00    +0.000 A 
ATOM     15  C   UNL     1      -0.017   1.379   0.010  0.00  0.00    +0.001 A 
ATOM     16  C   UNL     1       1.167   2.088   0.002  0.00  0.00    +0.009 A 
ATOM     17  C   UNL     1       2.385   1.407  -0.014  0.00  0.00    -0.011 A 
ATOM     18  C   UNL     1       2.397   0.011  -0.021  0.00  0.00    +0.009 A 
ATOM     19  C   UNL     1       1.206  -0.686  -0.013  0.00  0.00    +0.001 A 
ENDBRANCH   3  17
ENDBRANCH   1  12
BRANCH   2  20
ATOM     20  C   UNL     1       4.787  10.111   0.007  0.00  0.00    +0.061 A 
ATOM     21  C   UNL     1       4.056  11.303   0.014  0.00  0.00    +0.095 A 
ATOM     22  N   UNL     1       4.716  12.449   0.018  0.00  0.00    -0.224 NA
ATOM     23  C   UNL     1       6.037  12.486   0.006  0.00  0.00    +0.162 A 
ATOM     24  S   UNL     1       6.457  10.750  -0.006  0.00  0.00    -0.051 S 
ATOM     25  N   UNL     1       6.876  13.585   0.003  0.00  0.00    -0.310 N 
ATOM     26  C   UNL     1       6.572  14.477  -1.123  0.00  0.00    +0.107 C 
ATOM     27  C   UNL     1       7.418  15.748  -1.012  0.00  0.00    +0.019 C 
ATOM     28  C   UNL     1       8.902  15.370  -1.022  0.00  0.00    +0.003 C 
ATOM     29  C   UNL     1       9.182  14.403   0.132  0.00  0.00    +0.019 C 
ATOM     30  C   UNL     1       8.285  13.171  -0.013  0.00  0.00    +0.107 C 
BRANCH  21  31
ATOM     31  C   UNL     1       2.582  11.283   0.020  0.00  0.00    +0.039 A 
ATOM     32  C   UNL     1       1.708  12.138   0.642  0.00  0.00    +0.018 A 
ATOM     33  C   UNL     1       0.356  11.920   0.500  0.00  0.00    +0.008 A 
ATOM     34  C   UNL     1      -0.070  10.863  -0.238  0.00  0.00    +0.046 A 
ATOM     35  S   UNL     1       1.469  10.134  -0.773  0.00  0.00    -0.095 S 
ENDBRANCH  21  31
ENDBRANCH   2  20
TORSDOF 4
