REMARK  Name = ZINC09012088
REMARK  8 active torsions:
REMARK  status: ('A' for Active; 'I' for Inactive)
REMARK    1  A    between atoms: C_1  and  C_2
REMARK    2  A    between atoms: C_7  and  C_8
REMARK    3  A    between atoms: N_24  and  C_27
REMARK    4  A    between atoms: C_28  and  C_34
REMARK    5  A    between atoms: C_29  and  C_33
REMARK    6  A    between atoms: C_30  and  C_32
REMARK    7  A    between atoms: C_34  and  O_36
REMARK    8  A    between atoms: O_36  and  C_37
REMARK                            x       y       z     vdW  Elec       q    Type
REMARK                         _______ _______ _______ _____ _____    ______ ____
ROOT
ATOM      1  C   UNL     1     -10.018  -3.451   5.193  0.00  0.00    +0.044 C 
ATOM      2  C   UNL     1      -8.585  -3.361   4.734  0.00  0.00    -0.046 A 
ATOM      3  C   UNL     1      -8.257  -2.560   3.655  0.00  0.00    +0.004 A 
ATOM      4  C   UNL     1      -6.942  -2.477   3.233  0.00  0.00    +0.005 A 
ATOM      5  C   UNL     1      -5.963  -3.193   3.887  0.00  0.00    -0.027 A 
ATOM      6  C   UNL     1      -6.281  -4.001   4.973  0.00  0.00    +0.039 A 
ATOM      7  C   UNL     1      -7.608  -4.078   5.392  0.00  0.00    -0.026 A 
ATOM      8  C   UNL     1      -7.976  -4.948   6.566  0.00  0.00    +0.046 C 
ATOM      9  N   UNL     1      -5.131  -4.620   5.467  0.00  0.00    -0.286 N 
ATOM     10  C   UNL     1      -4.032  -4.280   4.770  0.00  0.00    +0.212 C 
ATOM     11  O   UNL     1      -2.901  -4.667   4.972  0.00  0.00    -0.277 OA
ATOM     12  C   UNL     1      -4.475  -3.324   3.688  0.00  0.00    +0.053 C 
ATOM     13  C   UNL     1      -3.750  -2.050   3.677  0.00  0.00    +0.089 C 
ATOM     14  C   UNL     1      -2.465  -2.381   2.814  0.00  0.00    +0.074 C 
ATOM     15  C   UNL     1      -3.205  -3.067   1.662  0.00  0.00    -0.054 C 
ATOM     16  C   UNL     1      -3.508  -5.246   2.555  0.00  0.00    -0.076 C 
ATOM     17  C   UNL     1      -2.728  -5.433   1.231  0.00  0.00    -0.020 C 
ATOM     18  C   UNL     1      -2.250  -4.000   0.904  0.00  0.00    -0.016 C 
ATOM     19  C   UNL     1      -2.011  -0.952   2.668  0.00  0.00    +0.229 C 
ATOM     20  O   UNL     1      -1.476  -0.448   1.704  0.00  0.00    -0.275 OA
ATOM     21  N   UNL     1      -2.324  -0.343   3.850  0.00  0.00    -0.203 N 
ATOM     22  C   UNL     1      -3.233  -1.057   4.591  0.00  0.00    +0.230 C 
ATOM     23  O   UNL     1      -3.534  -0.891   5.753  0.00  0.00    -0.275 OA
ATOM     24  H   UNL     1      -5.125  -5.225   6.225  0.00  0.00    +0.155 HD
ATOM     25  N   UNL     1      -4.154  -3.938   2.367  0.00  0.00    +0.395 N 
ATOM     26  H   UNL     1      -5.014  -4.047   1.816  0.00  0.00    -0.079 HD
ENDROOT
BRANCH  21  27
ATOM     27  C   UNL     1      -1.785   0.873   4.256  0.00  0.00    +0.096 A 
ATOM     28  C   UNL     1      -0.601   1.105   4.946  0.00  0.00    +0.091 A 
ATOM     29  C   UNL     1      -0.278   2.481   5.236  0.00  0.00    -0.025 A 
ATOM     30  C   UNL     1      -1.149   3.418   4.820  0.00  0.00    -0.008 A 
ATOM     31  S   UNL     1      -2.428   2.464   4.027  0.00  0.00    -0.077 S 
ATOM     32  C   UNL     1      -1.065   4.913   4.986  0.00  0.00    +0.052 C 
ATOM     33  C   UNL     1       0.982   2.853   5.974  0.00  0.00    +0.045 C 
BRANCH  28  34
ATOM     34  C   UNL     1       0.279   0.006   5.354  0.00  0.00    +0.342 C 
ATOM     35  O   UNL     1       0.129  -0.522   6.439  0.00  0.00    -0.245 OA
BRANCH  34  36
ATOM     36  O   UNL     1       1.254  -0.419   4.526  0.00  0.00    -0.464 OA
ATOM     37  C   UNL     1       2.088  -1.512   4.996  0.00  0.00    +0.280 C 
ENDBRANCH  34  36
ENDBRANCH  28  34
ENDBRANCH  21  27
TORSDOF 3
