REMARK  Name = ZINC40337826
REMARK  8 active torsions:
REMARK  status: ('A' for Active; 'I' for Inactive)
REMARK    1  A    between atoms: C_1  and  C_2
REMARK    2  A    between atoms: C_2  and  O_3
REMARK    3  A    between atoms: O_3  and  C_4
REMARK    4  A    between atoms: C_6  and  C_11
REMARK    5  A    between atoms: C_9  and  O_10
REMARK    6  A    between atoms: C_14  and  C_32
REMARK    7  A    between atoms: N_21  and  C_22
REMARK    8  A    between atoms: C_22  and  C_23
REMARK                            x       y       z     vdW  Elec       q    Type
REMARK                         _______ _______ _______ _____ _____    ______ ____
ROOT
ATOM      1  C   UNL     1      -0.229  -4.969   0.477  0.00  0.00    +0.142 C 
ATOM      2  C   UNL     1      -1.549  -5.511   0.002  0.00  0.00    +0.035 A 
ATOM      3  C   UNL     1      -2.861  -5.237  -0.398  0.00  0.00    +0.099 A 
ATOM      4  N   UNL     1      -3.435  -6.388  -0.686  0.00  0.00    -0.173 NA
ATOM      5  N   UNL     1      -2.615  -7.362  -0.508  0.00  0.00    -0.272 N 
ATOM      6  H   UNL     1      -2.821  -8.298  -0.658  0.00  0.00    +0.189 HD
ATOM      7  C   UNL     1      -1.411  -6.883  -0.076  0.00  0.00    +0.126 A 
ATOM      8  C   UNL     1      -0.048  -7.239   0.334  0.00  0.00    +0.266 C 
ATOM      9  O   UNL     1       0.392  -8.372   0.375  0.00  0.00    -0.268 OA
ATOM     10  N   UNL     1       0.648  -6.132   0.659  0.00  0.00    -0.281 N 
ENDROOT
BRANCH   1  13
ATOM     11  C   UNL     1       0.777  -1.811  -1.336  0.00  0.00    +0.162 A 
ATOM     12  C   UNL     1       0.243  -2.669  -0.388  0.00  0.00    +0.055 A 
ATOM     13  C   UNL     1       0.352  -4.037  -0.555  0.00  0.00    -0.019 A 
ATOM     14  C   UNL     1       0.992  -4.552  -1.667  0.00  0.00    +0.009 A 
ATOM     15  C   UNL     1       1.526  -3.702  -2.616  0.00  0.00    +0.049 A 
ATOM     16  C   UNL     1       1.416  -2.330  -2.458  0.00  0.00    +0.158 A 
BRANCH  16  17
ATOM     17  O   UNL     1       1.936  -1.492  -3.394  0.00  0.00    -0.503 OA
ATOM     18  H   UNL     1       2.856  -1.241  -3.231  0.00  0.00    +0.292 HD
ENDBRANCH  16  17
BRANCH  11  19
ATOM     19  O   UNL     1       0.671  -0.465  -1.174  0.00  0.00    -0.489 OA
BRANCH  19  21
ATOM     20  C   UNL     1      -0.019   1.526   0.010  0.00  0.00    +0.048 C 
ATOM     21  C   UNL     1       0.002  -0.004   0.002  0.00  0.00    +0.226 C 
ENDBRANCH  19  21
ENDBRANCH  11  19
ENDBRANCH   1  13
BRANCH   3  22
ATOM     22  C   UNL     1      -3.492  -3.895  -0.482  0.00  0.00    +0.002 A 
ATOM     23  C   UNL     1      -3.156  -2.906   0.439  0.00  0.00    +0.010 A 
ATOM     24  C   UNL     1      -3.746  -1.661   0.356  0.00  0.00    +0.001 A 
ATOM     25  C   UNL     1      -4.668  -1.394  -0.640  0.00  0.00    +0.000 A 
ATOM     26  C   UNL     1      -5.005  -2.373  -1.557  0.00  0.00    +0.001 A 
ATOM     27  C   UNL     1      -4.418  -3.620  -1.486  0.00  0.00    +0.010 A 
ENDBRANCH   3  22
BRANCH  10  28
ATOM     28  C   UNL     1       2.041  -6.095   1.114  0.00  0.00    +0.144 C 
BRANCH  28  29
ATOM     29  C   UNL     1       2.081  -6.202   2.617  0.00  0.00    -0.026 A 
ATOM     30  C   UNL     1       2.033  -5.058   3.391  0.00  0.00    +0.009 A 
ATOM     31  C   UNL     1       2.069  -5.151   4.770  0.00  0.00    +0.050 A 
ATOM     32  C   UNL     1       2.154  -6.392   5.379  0.00  0.00    +0.166 A 
ATOM     33  C   UNL     1       2.202  -7.545   4.599  0.00  0.00    +0.167 A 
ATOM     34  C   UNL     1       2.159  -7.444   3.218  0.00  0.00    +0.054 A 
ATOM     35  O   UNL     1       2.283  -8.628   5.425  0.00  0.00    -0.453 OA
ATOM     36  C   UNL     1       2.695  -8.107   6.703  0.00  0.00    +0.466 C 
ATOM     37  O   UNL     1       2.204  -6.753   6.694  0.00  0.00    -0.453 OA
ENDBRANCH  28  29
ENDBRANCH  10  28
TORSDOF 7
