REMARK  Name = ZINC39696187
REMARK  9 active torsions:
REMARK  status: ('A' for Active; 'I' for Inactive)
REMARK    1  A    between atoms: C_1  and  C_2
REMARK    2  A    between atoms: C_2  and  C_3
REMARK    3  A    between atoms: C_6  and  C_9
REMARK    4  A    between atoms: C_9  and  C_11
REMARK    5  A    between atoms: C_9  and  N_12
REMARK    6  A    between atoms: C_13  and  C_15
REMARK    7  A    between atoms: C_26  and  C_28
REMARK    8  A    between atoms: C_33  and  S_34
REMARK    9  A    between atoms: S_34  and  C_35
REMARK                            x       y       z     vdW  Elec       q    Type
REMARK                         _______ _______ _______ _____ _____    ______ ____
ROOT
ATOM      1  C   UNL     1       6.472  -0.543  -6.224  0.00  0.00    +0.100 C 
ATOM      2  C   UNL     1       6.090   0.908  -5.856  0.00  0.00    +0.121 C 
ATOM      3  N   UNL     1       6.797   1.745  -6.854  0.00  0.00    -0.296 N 
ATOM      4  C   UNL     1       6.675   0.989  -8.123  0.00  0.00    +0.115 C 
ATOM      5  C   UNL     1       6.854  -0.487  -7.713  0.00  0.00    -0.004 C 
ATOM      6  C   UNL     1       5.925  -1.378  -8.531  0.00  0.00    -0.010 C 
ATOM      7  C   UNL     1       6.361  -1.351  -9.999  0.00  0.00    -0.082 C 
ATOM      8  N   UNL     1       7.747  -1.823 -10.108  0.00  0.00    +0.379 N 
ATOM      9  C   UNL     1       8.645  -0.907  -9.395  0.00  0.00    -0.082 C 
ATOM     10  C   UNL     1       8.306  -0.915  -7.902  0.00  0.00    -0.010 C 
ATOM     11  C   UNL     1       7.413   2.927  -6.653  0.00  0.00    +0.249 C 
ATOM     12  O   UNL     1       7.870   3.543  -7.597  0.00  0.00    -0.270 OA
ATOM     13  H   UNL     1       7.819  -2.745  -9.705  0.00  0.00    -0.086 HD
ATOM     14  H   UNL     1       8.011  -1.862 -11.081  0.00  0.00    -0.086 HD
ENDROOT
BRANCH  11  15
ATOM     15  C   UNL     1       7.534   3.473  -5.289  0.00  0.00    +0.069 A 
ATOM     16  C   UNL     1       6.510   3.284  -4.353  0.00  0.00    +0.017 A 
ATOM     17  C   UNL     1       6.671   3.816  -3.086  0.00  0.00    +0.020 A 
ATOM     18  C   UNL     1       7.828   4.513  -2.781  0.00  0.00    +0.112 A 
ATOM     19  N   UNL     1       8.781   4.680  -3.677  0.00  0.00    -0.248 NA
ATOM     20  C   UNL     1       8.681   4.188  -4.903  0.00  0.00    +0.114 A 
BRANCH  20  21
ATOM     21  S   UNL     1       9.989   4.436  -6.057  0.00  0.00    -0.069 S 
BRANCH  21  22
ATOM     22  C   UNL     1      11.112   5.494  -5.206  0.00  0.00    +0.014 A 
ATOM     23  C   UNL     1      12.187   4.954  -4.511  0.00  0.00    +0.015 A 
ATOM     24  C   UNL     1      13.066   5.787  -3.846  0.00  0.00    +0.001 A 
ATOM     25  C   UNL     1      12.876   7.156  -3.871  0.00  0.00    +0.000 A 
ATOM     26  C   UNL     1      11.807   7.697  -4.562  0.00  0.00    +0.001 A 
ATOM     27  C   UNL     1      10.928   6.871  -5.234  0.00  0.00    +0.015 A 
ENDBRANCH  21  22
ENDBRANCH  20  21
ENDBRANCH  11  15
BRANCH   1  29
ATOM     28  N   UNL     1       5.499  -2.758  -5.707  0.00  0.00    -0.308 N 
ATOM     29  C   UNL     1       5.295  -1.463  -6.019  0.00  0.00    +0.219 C 
ATOM     30  O   UNL     1       4.165  -1.037  -6.135  0.00  0.00    -0.275 OA
ATOM     31  H   UNL     1       6.402  -3.099  -5.614  0.00  0.00    +0.149 HD
BRANCH  28  32
ATOM     32  C   UNL     1       4.355  -3.652  -5.508  0.00  0.00    +0.100 C 
ATOM     33  C   UNL     1       3.896  -4.202  -6.859  0.00  0.00    +0.033 C 
BRANCH  32  37
ATOM     34  C   UNL     1       5.503  -6.891  -2.970  0.00  0.00    -0.048 A 
ATOM     35  C   UNL     1       4.260  -6.306  -2.824  0.00  0.00    +0.004 A 
ATOM     36  C   UNL     1       3.888  -5.258  -3.645  0.00  0.00    +0.006 A 
ATOM     37  C   UNL     1       4.761  -4.794  -4.612  0.00  0.00    -0.027 A 
ATOM     38  C   UNL     1       6.005  -5.379  -4.758  0.00  0.00    +0.006 A 
ATOM     39  C   UNL     1       6.378  -6.425  -3.934  0.00  0.00    +0.004 A 
BRANCH  34  41
ATOM     40  C   UNL     1       6.592  -7.483  -0.823  0.00  0.00    +0.009 C 
ATOM     41  C   UNL     1       5.909  -8.034  -2.076  0.00  0.00    +0.032 C 
ENDBRANCH  34  41
ENDBRANCH  32  37
ENDBRANCH  28  32
ENDBRANCH   1  29
TORSDOF 7
