REMARK  Name = ZINC34755382
REMARK  2 active torsions:
REMARK  status: ('A' for Active; 'I' for Inactive)
REMARK    1  A    between atoms: C_3  and  O_8
REMARK    2  A    between atoms: O_8  and  C_9
REMARK                            x       y       z     vdW  Elec       q    Type
REMARK                         _______ _______ _______ _____ _____    ______ ____
ROOT
ATOM      1  C   UNL     1       4.706   1.409   0.069  0.00  0.00    +0.230 A 
ATOM      2  C   UNL     1       5.929   2.076   0.176  0.00  0.00    +0.050 A 
ATOM      3  C   UNL     1       7.081   1.329   0.267  0.00  0.00    +0.056 A 
ATOM      4  N   UNL     1       6.997   0.004   0.246  0.00  0.00    -0.219 NA
ATOM      5  C   UNL     1       5.824  -0.603   0.143  0.00  0.00    +0.221 A 
ATOM      6  N   UNL     1       4.693   0.082   0.061  0.00  0.00    -0.179 NA
ATOM      7  N   UNL     1       5.779  -1.986   0.125  0.00  0.00    -0.300 N 
ATOM      8  C   UNL     1       6.941  -2.882   0.218  0.00  0.00    +0.108 C 
ATOM      9  C   UNL     1       6.411  -4.329   0.130  0.00  0.00    +0.020 C 
ATOM     10  C   UNL     1       5.041  -4.155  -0.576  0.00  0.00    +0.020 C 
ATOM     11  C   UNL     1       4.558  -2.804   0.015  0.00  0.00    +0.108 C 
ATOM     12  C   UNL     1       8.434   1.976   0.396  0.00  0.00    +0.071 C 
ATOM     13  C   UNL     1       8.348   3.447  -0.013  0.00  0.00    +0.087 C 
ATOM     14  N   UNL     1       7.227   4.071   0.709  0.00  0.00    -0.311 NA
ATOM     15  C   UNL     1       5.948   3.579   0.185  0.00  0.00    +0.123 C 
ATOM     16  H   UNL     1       7.299   3.905   1.701  0.00  0.00    +0.122 HD
ENDROOT
BRANCH   1  17
ATOM     17  O   UNL     1       3.548   2.107  -0.021  0.00  0.00    -0.437 OA
BRANCH  17  20
ATOM     18  C   UNL     1       0.698   0.190   1.179  0.00  0.00    +0.006 A 
ATOM     19  C   UNL     1       1.884   0.897   1.174  0.00  0.00    +0.046 A 
ATOM     20  C   UNL     1       2.381   1.411  -0.015  0.00  0.00    +0.133 A 
ATOM     21  C   UNL     1       1.685   1.213  -1.198  0.00  0.00    +0.084 A 
ATOM     22  C   UNL     1       0.497   0.504  -1.190  0.00  0.00    +0.127 A 
ATOM     23  C   UNL     1       0.004  -0.007  -0.000  0.00  0.00    +0.038 A 
ATOM     24  F   UNL     1      -0.183   0.311  -2.341  0.00  0.00    -0.205 F 
ENDBRANCH  17  20
ENDBRANCH   1  17
TORSDOF 2
