REMARK  Name = ZINC12642966
REMARK  8 active torsions:
REMARK  status: ('A' for Active; 'I' for Inactive)
REMARK    1  A    between atoms: C_2  and  C_3
REMARK    2  A    between atoms: C_3  and  N_4
REMARK    3  A    between atoms: C_13  and  S_14
REMARK    4  A    between atoms: S_14  and  C_15
REMARK    5  A    between atoms: C_15  and  C_16
REMARK    6  A    between atoms: N_18  and  C_19
REMARK    7  A    between atoms: C_24  and  C_25
REMARK    8  A    between atoms: N_27  and  C_28
REMARK                            x       y       z     vdW  Elec       q    Type
REMARK                         _______ _______ _______ _____ _____    ______ ____
ROOT
ATOM      1  C   UNL     1      -0.799   1.548  -1.198  0.00  0.00    +0.228 C 
ATOM      2  O   UNL     1      -1.792   2.235  -1.086  0.00  0.00    -0.275 OA
ATOM      3  N   UNL     1      -0.325   1.242  -2.422  0.00  0.00    -0.284 N 
ATOM      4  H   UNL     1       0.506   0.750  -2.511  0.00  0.00    +0.155 HD
ENDROOT
BRANCH   3   5
ATOM      5  C   UNL     1      -1.029   1.633  -3.559  0.00  0.00    +0.046 A 
ATOM      6  C   UNL     1      -1.715   2.840  -3.574  0.00  0.00    +0.024 A 
ATOM      7  C   UNL     1      -2.408   3.228  -4.703  0.00  0.00    +0.002 A 
ATOM      8  C   UNL     1      -2.433   2.414  -5.824  0.00  0.00    +0.001 A 
ATOM      9  C   UNL     1      -1.762   1.210  -5.825  0.00  0.00    +0.015 A 
ATOM     10  C   UNL     1      -1.053   0.807  -4.692  0.00  0.00    +0.058 A 
BRANCH  10  11
ATOM     11  C   UNL     1      -0.333  -0.481  -4.686  0.00  0.00    +0.250 C 
ATOM     12  O   UNL     1       0.203  -0.873  -3.668  0.00  0.00    -0.270 OA
ATOM     13  N   UNL     1      -0.270  -1.222  -5.810  0.00  0.00    -0.281 N 
ATOM     14  H   UNL     1      -0.767  -0.953  -6.598  0.00  0.00    +0.155 HD
BRANCH  13  15
ATOM     15  C   UNL     1       0.514  -2.382  -5.840  0.00  0.00    +0.034 A 
ATOM     16  C   UNL     1       0.196  -3.413  -6.714  0.00  0.00    +0.026 A 
ATOM     17  C   UNL     1       0.974  -4.554  -6.746  0.00  0.00    +0.040 A 
ATOM     18  C   UNL     1       2.064  -4.674  -5.900  0.00  0.00    +0.124 A 
ATOM     19  C   UNL     1       2.379  -3.649  -5.023  0.00  0.00    +0.040 A 
ATOM     20  C   UNL     1       1.607  -2.505  -4.992  0.00  0.00    +0.026 A 
ATOM     21  F   UNL     1       2.820  -5.793  -5.929  0.00  0.00    -0.205 F 
ENDBRANCH  13  15
ENDBRANCH  10  11
ENDBRANCH   3   5
BRANCH   1  22
ATOM     22  C   UNL     1      -0.094   1.037   0.032  0.00  0.00    +0.173 C 
BRANCH  22  23
ATOM     23  S   UNL     1      -0.965   1.614   1.510  0.00  0.00    -0.078 S 
BRANCH  23  33
ATOM     24  N   UNL     1      -0.288   1.103   4.069  0.00  0.00    -0.283 N 
ATOM     25  C   UNL     1       0.475   0.549   5.042  0.00  0.00    +0.269 A 
ATOM     26  O   UNL     1       0.205   0.715   6.220  0.00  0.00    -0.266 OA
ATOM     27  C   UNL     1       1.579  -0.210   4.662  0.00  0.00    +0.102 A 
ATOM     28  C   UNL     1       1.905  -0.411   3.309  0.00  0.00    +0.086 A 
ATOM     29  C   UNL     1       3.042  -1.196   3.072  0.00  0.00    +0.036 A 
ATOM     30  C   UNL     1       3.745  -1.703   4.107  0.00  0.00    +0.048 A 
ATOM     31  S   UNL     1       2.844  -1.104   5.527  0.00  0.00    -0.090 S 
ATOM     32  N   UNL     1       1.076   0.181   2.397  0.00  0.00    -0.222 NA
ATOM     33  C   UNL     1       0.043   0.891   2.761  0.00  0.00    +0.173 A 
BRANCH  24  34
ATOM     34  C   UNL     1      -1.457   1.914   4.416  0.00  0.00    +0.154 C 
BRANCH  34  36
ATOM     35  C   UNL     1      -3.391   1.026   5.613  0.00  0.00    +0.005 C 
ATOM     36  C   UNL     1      -2.671   1.028   4.518  0.00  0.00    -0.013 C 
ENDBRANCH  34  36
ENDBRANCH  24  34
ENDBRANCH  23  33
ENDBRANCH  22  23
ENDBRANCH   1  22
TORSDOF 8
