REMARK  Name = ZINC39710047
REMARK  7 active torsions:
REMARK  status: ('A' for Active; 'I' for Inactive)
REMARK    1  A    between atoms: C_4  and  C_7
REMARK    2  A    between atoms: N_9  and  C_10
REMARK    3  A    between atoms: C_13  and  C_17
REMARK    4  A    between atoms: C_17  and  C_18
REMARK    5  A    between atoms: N_20  and  C_21
REMARK    6  A    between atoms: C_21  and  C_22
REMARK    7  A    between atoms: C_22  and  C_23
REMARK                            x       y       z     vdW  Elec       q    Type
REMARK                         _______ _______ _______ _____ _____    ______ ____
ROOT
ATOM      1  C   UNL     1       4.636  -6.463  -0.681  0.00  0.00    +0.115 C 
ENDROOT
BRANCH   1   4
ATOM      2  C   UNL     1       4.997  -2.744  -0.061  0.00  0.00    +0.202 C 
ATOM      3  N   UNL     1       4.802  -4.189   0.230  0.00  0.00    -0.286 NA
ATOM      4  C   UNL     1       4.544  -4.969  -0.994  0.00  0.00    +0.075 C 
ATOM      5  C   UNL     1       5.617  -4.591  -2.059  0.00  0.00    +0.091 C 
ATOM      6  S   UNL     1       5.711  -2.767  -1.758  0.00  0.00    -0.121 S 
ATOM      7  H   UNL     1       5.588  -4.564   0.739  0.00  0.00    +0.125 HD
BRANCH   2  10
ATOM      8  C   UNL     1       3.696  -0.685  -0.037  0.00  0.00    +0.246 C 
ATOM      9  O   UNL     1       4.738  -0.060  -0.044  0.00  0.00    -0.270 OA
ATOM     10  N   UNL     1       3.717  -2.032  -0.045  0.00  0.00    -0.287 N 
ATOM     11  H   UNL     1       2.885  -2.531  -0.039  0.00  0.00    +0.151 HD
BRANCH   8  15
ATOM     12  C   UNL     1      -0.017   1.379   0.010  0.00  0.00    +0.000 A 
ATOM     13  C   UNL     1       1.168   2.094   0.002  0.00  0.00    +0.001 A 
ATOM     14  C   UNL     1       2.377   1.429  -0.013  0.00  0.00    +0.013 A 
ATOM     15  C   UNL     1       2.403   0.034  -0.021  0.00  0.00    +0.037 A 
ATOM     16  C   UNL     1       1.204  -0.681  -0.013  0.00  0.00    +0.013 A 
ATOM     17  C   UNL     1       0.002  -0.004   0.002  0.00  0.00    +0.001 A 
ENDBRANCH   8  15
ENDBRANCH   2  10
ENDBRANCH   1   4
BRANCH   1  18
ATOM     18  C   UNL     1       3.512  -6.853   0.244  0.00  0.00    +0.215 C 
ATOM     19  O   UNL     1       2.716  -6.018   0.616  0.00  0.00    -0.276 OA
ATOM     20  N   UNL     1       3.392  -8.130   0.657  0.00  0.00    -0.315 N 
ATOM     21  H   UNL     1       4.029  -8.799   0.360  0.00  0.00    +0.149 HD
BRANCH  20  22
ATOM     22  C   UNL     1       2.299  -8.509   1.557  0.00  0.00    +0.109 C 
BRANCH  22  23
ATOM     23  C   UNL     1       2.391 -10.004   1.870  0.00  0.00    +0.056 C 
BRANCH  23  24
ATOM     24  C   UNL     1       1.267 -10.393   2.795  0.00  0.00    -0.021 A 
ATOM     25  C   UNL     1      -0.097 -10.757   2.404  0.00  0.00    +0.003 A 
ATOM     26  C   UNL     1      -0.761 -10.861   1.180  0.00  0.00    +0.010 A 
ATOM     27  C   UNL     1      -2.074 -11.237   1.150  0.00  0.00    +0.001 A 
ATOM     28  C   UNL     1      -2.754 -11.516   2.328  0.00  0.00    +0.002 A 
ATOM     29  C   UNL     1      -2.119 -11.421   3.546  0.00  0.00    +0.026 A 
ATOM     30  C   UNL     1      -0.782 -11.040   3.600  0.00  0.00    +0.047 A 
ATOM     31  N   UNL     1       0.111 -10.858   4.632  0.00  0.00    -0.360 N 
ATOM     32  C   UNL     1       1.327 -10.478   4.133  0.00  0.00    +0.087 A 
ATOM     33  H   UNL     1      -0.091 -10.983   5.572  0.00  0.00    +0.165 HD
ENDBRANCH  23  24
ENDBRANCH  22  23
ENDBRANCH  20  22
ENDBRANCH   1  18
TORSDOF 7
