REMARK  Name = ZINC36485047
REMARK  13 active torsions:
REMARK  status: ('A' for Active; 'I' for Inactive)
REMARK    1  A    between atoms: C_1  and  C_2
REMARK    2  A    between atoms: C_2  and  C_3
REMARK    3  A    between atoms: C_2  and  C_4
REMARK    4  A    between atoms: C_2  and  N_5
REMARK    5  A    between atoms: C_6  and  C_8
REMARK    6  A    between atoms: C_8  and  C_10
REMARK    7  A    between atoms: C_8  and  N_18
REMARK    8  A    between atoms: C_14  and  O_16
REMARK    9  A    between atoms: O_16  and  C_17
REMARK   10  A    between atoms: N_18  and  C_19
REMARK   11  A    between atoms: C_26  and  C_28
REMARK   12  A    between atoms: C_32  and  O_35
REMARK   13  A    between atoms: C_33  and  O_34
REMARK                            x       y       z     vdW  Elec       q    Type
REMARK                         _______ _______ _______ _____ _____    ______ ____
ROOT
ATOM      1  N   UNL     1       2.859   0.238  -4.629  0.00  0.00    -0.251 N 
ATOM      2  C   UNL     1       3.344   1.420  -4.201  0.00  0.00    +0.255 C 
ATOM      3  O   UNL     1       4.395   1.843  -4.644  0.00  0.00    -0.269 OA
ENDROOT
BRANCH   1   4
ATOM      4  C   UNL     1       3.504  -0.450  -5.662  0.00  0.00    +0.039 A 
ATOM      5  C   UNL     1       2.936  -0.496  -6.929  0.00  0.00    +0.023 A 
ATOM      6  C   UNL     1       3.575  -1.176  -7.947  0.00  0.00    +0.003 A 
ATOM      7  C   UNL     1       4.780  -1.810  -7.707  0.00  0.00    +0.020 A 
ATOM      8  C   UNL     1       5.349  -1.766  -6.447  0.00  0.00    +0.043 A 
ATOM      9  C   UNL     1       4.717  -1.083  -5.425  0.00  0.00    +0.043 A 
ATOM     10 CL   UNL     1       6.862  -2.565  -6.150  0.00  0.00    -0.083 Cl
ENDBRANCH   1   4
BRANCH   2  11
ATOM     11  C   UNL     1       2.600   2.202  -3.196  0.00  0.00    +0.082 A 
ATOM     12  C   UNL     1       2.175   1.598  -2.009  0.00  0.00    +0.017 A 
ATOM     13  C   UNL     1       1.480   2.331  -1.073  0.00  0.00    +0.005 A 
ATOM     14  C   UNL     1       1.198   3.668  -1.300  0.00  0.00    +0.049 A 
ATOM     15  C   UNL     1       1.611   4.281  -2.470  0.00  0.00    +0.159 A 
ATOM     16  C   UNL     1       2.320   3.555  -3.423  0.00  0.00    +0.171 A 
BRANCH  16  17
ATOM     17  O   UNL     1       2.733   4.154  -4.569  0.00  0.00    -0.503 OA
ATOM     18  H   UNL     1       2.092   4.105  -5.291  0.00  0.00    +0.292 HD
ENDBRANCH  16  17
BRANCH  15  19
ATOM     19  O   UNL     1       1.330   5.594  -2.686  0.00  0.00    -0.503 OA
ATOM     20  H   UNL     1       2.010   6.200  -2.361  0.00  0.00    +0.292 HD
ENDBRANCH  15  19
ENDBRANCH   2  11
BRANCH   1  21
ATOM     21  C   UNL     1       1.656  -0.327  -4.013  0.00  0.00    +0.198 C 
BRANCH  21  22
ATOM     22  C   UNL     1       0.581  -0.480  -5.057  0.00  0.00    -0.014 A 
ATOM     23  C   UNL     1       0.544  -1.612  -5.851  0.00  0.00    +0.006 A 
ATOM     24  C   UNL     1      -0.441  -1.755  -6.810  0.00  0.00    +0.004 A 
ATOM     25  C   UNL     1      -1.392  -0.767  -6.978  0.00  0.00    +0.045 A 
ATOM     26  C   UNL     1      -1.358   0.369  -6.183  0.00  0.00    +0.120 A 
ATOM     27  C   UNL     1      -0.371   0.508  -5.217  0.00  0.00    +0.051 A 
BRANCH  26  28
ATOM     28  O   UNL     1      -2.292   1.343  -6.346  0.00  0.00    -0.495 OA
ATOM     29  C   UNL     1      -3.281   1.130  -7.356  0.00  0.00    +0.277 C 
ENDBRANCH  26  28
ENDBRANCH  21  22
BRANCH  21  31
ATOM     30  N   UNL     1       1.019  -2.387  -2.800  0.00  0.00    -0.309 N 
ATOM     31  C   UNL     1       1.980  -1.676  -3.424  0.00  0.00    +0.239 C 
ATOM     32  O   UNL     1       3.104  -2.122  -3.510  0.00  0.00    -0.273 OA
ATOM     33  H   UNL     1       0.120  -2.031  -2.731  0.00  0.00    +0.149 HD
BRANCH  30  35
ATOM     34  C   UNL     1       2.426  -3.543  -1.167  0.00  0.00    +0.031 C 
ATOM     35  C   UNL     1       1.334  -3.698  -2.228  0.00  0.00    +0.026 C 
ATOM     36  C   UNL     1       1.827  -4.633  -3.335  0.00  0.00    +0.031 C 
ATOM     37  C   UNL     1       0.078  -4.288  -1.584  0.00  0.00    +0.031 C 
ENDBRANCH  30  35
ENDBRANCH  21  31
ENDBRANCH   1  21
TORSDOF 9
