REMARK  Name = ZINC64701112
REMARK  9 active torsions:
REMARK  status: ('A' for Active; 'I' for Inactive)
REMARK    1  A    between atoms: C_1  and  C_2
REMARK    2  A    between atoms: C_5  and  N_8
REMARK    3  A    between atoms: C_9  and  C_11
REMARK    4  A    between atoms: C_11  and  S_12
REMARK    5  A    between atoms: S_12  and  C_13
REMARK    6  A    between atoms: C_23  and  C_25
REMARK    7  A    between atoms: C_28  and  C_31
REMARK    8  A    between atoms: C_31  and  C_32
REMARK    9  A    between atoms: C_31  and  C_33
REMARK                            x       y       z     vdW  Elec       q    Type
REMARK                         _______ _______ _______ _____ _____    ______ ____
ROOT
ATOM      1  C   UNL     1       0.597  -8.760   2.631  0.00  0.00    +0.272 C 
ATOM      2  N   UNL     1      -0.581  -9.291   1.922  0.00  0.00    -0.163 NA
ATOM      3  N   UNL     1      -0.530 -10.234   1.129  0.00  0.00    -0.081 NA
ATOM      4  C   UNL     1       0.609 -10.917   0.844  0.00  0.00    +0.276 C 
ATOM      5  O   UNL     1       0.646 -11.762  -0.019  0.00  0.00    -0.270 OA
ATOM      6  C   UNL     1       1.815 -10.563   1.658  0.00  0.00    +0.193 C 
ATOM      7  N   UNL     1       1.756  -9.075   1.823  0.00  0.00    -0.178 NA
ATOM      8  N   UNL     1       3.021  -8.814   2.226  0.00  0.00    -0.274 N 
ATOM      9  C   UNL     1       3.839  -9.598   1.377  0.00  0.00    +0.047 C 
ATOM     10  C   UNL     1       3.151 -10.715   0.982  0.00  0.00    +0.027 C 
ATOM     11  H   UNL     1       3.305  -8.220   2.938  0.00  0.00    +0.167 HD
ENDROOT
BRANCH   9  12
ATOM     12  C   UNL     1       5.229  -9.271   0.985  0.00  0.00    -0.003 A 
ATOM     13  C   UNL     1       5.936 -10.120   0.135  0.00  0.00    +0.010 A 
ATOM     14  C   UNL     1       7.231  -9.810  -0.226  0.00  0.00    +0.004 A 
ATOM     15  C   UNL     1       7.828  -8.658   0.254  0.00  0.00    -0.045 A 
ATOM     16  C   UNL     1       7.132  -7.811   1.098  0.00  0.00    +0.004 A 
ATOM     17  C   UNL     1       5.835  -8.108   1.461  0.00  0.00    +0.010 A 
BRANCH  15  18
ATOM     18  C   UNL     1       9.243  -8.325  -0.144  0.00  0.00    +0.013 C 
ATOM     19  C   UNL     1       9.265  -6.978  -0.869  0.00  0.00    +0.012 C 
ATOM     20  C   UNL     1      10.119  -8.245   1.108  0.00  0.00    +0.012 C 
ENDBRANCH  15  18
ENDBRANCH   9  12
BRANCH   1  21
ATOM     21  S   UNL     1       0.446  -6.963   2.823  0.00  0.00    -0.107 S 
BRANCH  21  22
ATOM     22  C   UNL     1       0.309  -6.349   1.121  0.00  0.00    +0.168 C 
BRANCH  22  24
ATOM     23  N   UNL     1       0.059  -4.170  -0.021  0.00  0.00    -0.285 N 
ATOM     24  C   UNL     1       0.175  -4.848   1.138  0.00  0.00    +0.227 C 
ATOM     25  O   UNL     1       0.173  -4.251   2.193  0.00  0.00    -0.275 OA
ATOM     26  H   UNL     1      -0.017  -4.651  -0.860  0.00  0.00    +0.155 HD
BRANCH  23  31
ATOM     27  C   UNL     1       0.008   1.503   0.007  0.00  0.00    +0.044 C 
ATOM     28  C   UNL     1       0.022  -0.004  -0.001  0.00  0.00    -0.050 A 
ATOM     29  C   UNL     1       0.777  -0.692   0.931  0.00  0.00    +0.005 A 
ATOM     30  C   UNL     1       0.791  -2.073   0.927  0.00  0.00    +0.023 A 
ATOM     31  C   UNL     1       0.046  -2.771  -0.014  0.00  0.00    +0.033 A 
ATOM     32  C   UNL     1      -0.712  -2.077  -0.948  0.00  0.00    +0.023 A 
ATOM     33  C   UNL     1      -0.726  -0.696  -0.936  0.00  0.00    +0.005 A 
ENDBRANCH  23  31
ENDBRANCH  22  24
ENDBRANCH  21  22
ENDBRANCH   1  21
TORSDOF 6
