REMARK  Name = ZINC01868035
REMARK  6 active torsions:
REMARK  status: ('A' for Active; 'I' for Inactive)
REMARK    1  A    between atoms: C_1  and  N_2
REMARK    2  A    between atoms: N_2  and  C_3
REMARK    3  A    between atoms: C_3  and  N_5
REMARK    4  A    between atoms: C_6  and  C_29
REMARK    5  A    between atoms: C_9  and  C_11
REMARK    6  A    between atoms: C_12  and  C_23
REMARK                            x       y       z     vdW  Elec       q    Type
REMARK                         _______ _______ _______ _____ _____    ______ ____
ROOT
ATOM      1  C   UNL     1      -0.324  -5.346   0.331  0.00  0.00    +0.070 A 
ATOM      2  C   UNL     1      -0.770  -5.157   1.638  0.00  0.00    +0.005 A 
ATOM      3  C   UNL     1      -1.035  -6.344   2.462  0.00  0.00    +0.008 A 
ATOM      4  C   UNL     1      -1.484  -6.209   3.780  0.00  0.00    +0.030 A 
ATOM      5  C   UNL     1      -1.727  -7.333   4.537  0.00  0.00    +0.042 A 
ATOM      6  C   UNL     1      -1.528  -8.598   3.998  0.00  0.00    +0.022 A 
ATOM      7  C   UNL     1      -1.086  -8.747   2.702  0.00  0.00    +0.028 A 
ATOM      8  C   UNL     1      -0.834  -7.624   1.918  0.00  0.00    +0.050 A 
ATOM      9  N   UNL     1      -0.392  -7.771   0.618  0.00  0.00    -0.322 N 
ATOM     10  C   UNL     1      -0.144  -6.710  -0.168  0.00  0.00    +0.259 A 
ATOM     11  O   UNL     1       0.240  -6.886  -1.311  0.00  0.00    -0.267 OA
ATOM     12 CL   UNL     1      -2.284  -7.170   6.173  0.00  0.00    -0.084 Cl
ATOM     13  H   UNL     1      -0.260  -8.664   0.262  0.00  0.00    +0.169 HD
ENDROOT
BRANCH   1  17
ATOM     14  N   UNL     1       1.130  -2.752  -1.884  0.00  0.00    -0.223 N 
ATOM     15  C   UNL     1      -0.253  -2.261  -1.770  0.00  0.00    +0.151 C 
ATOM     16  C   UNL     1      -0.946  -3.263  -0.873  0.00  0.00    +0.027 C 
ATOM     17  C   UNL     1      -0.044  -4.188  -0.540  0.00  0.00    +0.056 C 
ATOM     18  N   UNL     1       1.190  -3.926  -1.120  0.00  0.00    -0.261 N 
ATOM     19  H   UNL     1       1.982  -4.475  -1.010  0.00  0.00    +0.170 HD
BRANCH  15  20
ATOM     20  C   UNL     1      -0.273  -0.890  -1.145  0.00  0.00    -0.021 A 
ATOM     21  C   UNL     1       0.580  -0.596  -0.098  0.00  0.00    +0.007 A 
ATOM     22  C   UNL     1       0.562   0.661   0.477  0.00  0.00    +0.020 A 
ATOM     23  C   UNL     1      -0.310   1.625   0.004  0.00  0.00    +0.041 A 
ATOM     24  C   UNL     1      -1.164   1.330  -1.044  0.00  0.00    +0.020 A 
ATOM     25  C   UNL     1      -1.141   0.074  -1.622  0.00  0.00    +0.007 A 
ATOM     26 CL   UNL     1      -0.334   3.204   0.725  0.00  0.00    -0.084 Cl
ENDBRANCH  15  20
BRANCH  14  27
ATOM     27  C   UNL     1       2.134  -2.191  -2.586  0.00  0.00    +0.150 C 
ATOM     28  S   UNL     1       1.861  -0.746  -3.463  0.00  0.00    -0.017 S 
BRANCH  27  30
ATOM     29  C   UNL     1       4.444  -2.155  -3.360  0.00  0.00    +0.127 C 
ATOM     30  N   UNL     1       3.352  -2.766  -2.598  0.00  0.00    -0.328 N 
ATOM     31  H   UNL     1       3.507  -3.585  -2.101  0.00  0.00    +0.147 HD
ENDBRANCH  27  30
ENDBRANCH  14  27
ENDBRANCH   1  17
BRANCH   2  32
ATOM     32  C   UNL     1      -0.971  -3.797   2.180  0.00  0.00    -0.016 A 
ATOM     33  C   UNL     1       0.126  -2.959   2.396  0.00  0.00    +0.008 A 
ATOM     34  C   UNL     1      -0.069  -1.691   2.902  0.00  0.00    +0.001 A 
ATOM     35  C   UNL     1      -1.347  -1.248   3.197  0.00  0.00    +0.000 A 
ATOM     36  C   UNL     1      -2.438  -2.073   2.985  0.00  0.00    +0.001 A 
ATOM     37  C   UNL     1      -2.258  -3.342   2.474  0.00  0.00    +0.008 A 
ENDBRANCH   2  32
TORSDOF 5
