REMARK  Name = ZINC63373604
REMARK  6 active torsions:
REMARK  status: ('A' for Active; 'I' for Inactive)
REMARK    1  A    between atoms: C_1  and  O_2
REMARK    2  A    between atoms: O_2  and  C_3
REMARK    3  A    between atoms: C_10  and  C_18
REMARK    4  A    between atoms: C_20  and  O_40
REMARK    5  A    between atoms: N_22  and  C_34
REMARK    6  A    between atoms: N_25  and  C_28
REMARK                            x       y       z     vdW  Elec       q    Type
REMARK                         _______ _______ _______ _____ _____    ______ ____
ROOT
ATOM      1  C   UNL     1       1.095  -3.690  -5.146  0.00  0.00    +0.142 C 
ATOM      2  C   UNL     1       0.191  -4.815  -5.653  0.00  0.00    +0.224 C 
ATOM      3  N   UNL     1       0.158  -4.794  -7.117  0.00  0.00    -0.228 N 
ATOM      4  C   UNL     1       0.191  -3.633  -7.791  0.00  0.00    +0.322 C 
ATOM      5  O   UNL     1       0.057  -3.645  -8.999  0.00  0.00    -0.251 OA
ATOM      6  N   UNL     1       0.368  -2.459  -7.163  0.00  0.00    -0.193 N 
ATOM      7  C   UNL     1       0.756  -2.413  -5.874  0.00  0.00    +0.236 C 
ATOM      8  O   UNL     1       0.832  -1.349  -5.299  0.00  0.00    -0.274 OA
ENDROOT
BRANCH   1  15
ATOM      9  C   UNL     1       2.528  -0.006  -1.342  0.00  0.00    +0.121 A 
ATOM     10  C   UNL     1       2.383   0.850  -2.448  0.00  0.00    +0.047 A 
ATOM     11  C   UNL     1       2.543   0.426  -3.719  0.00  0.00    +0.029 A 
ATOM     12  C   UNL     1       2.881  -0.975  -3.984  0.00  0.00    +0.043 A 
ATOM     13  N   UNL     1       3.065  -1.635  -5.105  0.00  0.00    -0.376 N 
ATOM     14  C   UNL     1       3.471  -2.998  -4.776  0.00  0.00    +0.124 C 
ATOM     15  C   UNL     1       2.558  -4.053  -5.405  0.00  0.00    +0.096 C 
ATOM     16  N   UNL     1       2.863  -5.355  -4.790  0.00  0.00    -0.310 NA
ATOM     17  C   UNL     1       2.502  -5.423  -3.371  0.00  0.00    +0.085 C 
ATOM     18  C   UNL     1       3.371  -4.445  -2.558  0.00  0.00    +0.048 C 
ATOM     19  C   UNL     1       3.315  -3.111  -3.268  0.00  0.00    -0.036 C 
ATOM     20  C   UNL     1       3.024  -1.884  -2.819  0.00  0.00    +0.003 A 
ATOM     21  C   UNL     1       2.838  -1.317  -1.478  0.00  0.00    +0.055 A 
ATOM     22  H   UNL     1       2.437  -6.108  -5.308  0.00  0.00    +0.122 HD
ATOM     23  H   UNL     1       2.950  -1.278  -5.999  0.00  0.00    +0.160 HD
BRANCH   9  25
ATOM     24  C   UNL     1       2.028   1.889   0.005  0.00  0.00    +0.277 C 
ATOM     25  O   UNL     1       2.355   0.501  -0.093  0.00  0.00    -0.495 OA
ENDBRANCH   9  25
ENDBRANCH   1  15
BRANCH   6  26
ATOM     26  C   UNL     1       0.145  -1.263  -7.859  0.00  0.00    +0.045 A 
ATOM     27  C   UNL     1      -1.121  -0.695  -7.879  0.00  0.00    +0.024 A 
ATOM     28  C   UNL     1      -1.337   0.484  -8.566  0.00  0.00    +0.002 A 
ATOM     29  C   UNL     1      -0.293   1.098  -9.232  0.00  0.00    +0.000 A 
ATOM     30  C   UNL     1       0.969   0.535  -9.214  0.00  0.00    +0.002 A 
ATOM     31  C   UNL     1       1.193  -0.640  -8.524  0.00  0.00    +0.024 A 
ENDBRANCH   6  26
BRANCH   3  32
ATOM     32  C   UNL     1       0.092  -6.000  -7.823  0.00  0.00    +0.040 A 
ATOM     33  C   UNL     1      -1.140  -6.580  -8.096  0.00  0.00    +0.023 A 
ATOM     34  C   UNL     1      -1.201  -7.771  -8.793  0.00  0.00    +0.002 A 
ATOM     35  C   UNL     1      -0.038  -8.386  -9.218  0.00  0.00    +0.000 A 
ATOM     36  C   UNL     1       1.190  -7.811  -8.947  0.00  0.00    +0.002 A 
ATOM     37  C   UNL     1       1.258  -6.617  -8.256  0.00  0.00    +0.023 A 
ENDBRANCH   3  32
BRANCH   2  38
ATOM     38  O   UNL     1       0.700  -6.073  -5.207  0.00  0.00    -0.373 OA
ATOM     39  H   UNL     1       0.128  -6.825  -5.412  0.00  0.00    +0.212 HD
ENDBRANCH   2  38
TORSDOF 5
