REMARK  Name = ZINC34683791
REMARK  11 active torsions:
REMARK  status: ('A' for Active; 'I' for Inactive)
REMARK    1  A    between atoms: C_1  and  C_2
REMARK    2  A    between atoms: C_5  and  N_8
REMARK    3  A    between atoms: N_8  and  C_9
REMARK    4  A    between atoms: N_8  and  S_26
REMARK    5  A    between atoms: N_12  and  C_15
REMARK    6  A    between atoms: C_15  and  C_16
REMARK    7  A    between atoms: C_20  and  O_24
REMARK    8  A    between atoms: C_21  and  O_22
REMARK    9  A    between atoms: O_22  and  C_23
REMARK   10  A    between atoms: O_24  and  C_25
REMARK   11  A    between atoms: S_26  and  C_29
REMARK                            x       y       z     vdW  Elec       q    Type
REMARK                         _______ _______ _______ _____ _____    ______ ____
ROOT
ATOM      1  N   UNL     1       0.054  -4.154  -0.028  0.00  0.00    -0.200 N 
ENDROOT
BRANCH   1   6
ATOM      2  C   UNL     1      -0.946   1.411   0.414  0.00  0.00    +0.044 C 
ATOM      3  C   UNL     1      -0.680  -0.068   0.297  0.00  0.00    -0.050 A 
ATOM      4  C   UNL     1       0.610  -0.523   0.093  0.00  0.00    +0.005 A 
ATOM      5  C   UNL     1       0.857  -1.877  -0.015  0.00  0.00    +0.025 A 
ATOM      6  C   UNL     1      -0.193  -2.783   0.082  0.00  0.00    +0.052 A 
ATOM      7  C   UNL     1      -1.487  -2.322   0.286  0.00  0.00    +0.025 A 
ATOM      8  C   UNL     1      -1.726  -0.967   0.399  0.00  0.00    +0.005 A 
ENDBRANCH   1   6
BRANCH   1   9
ATOM      9  C   UNL     1       0.733  -4.864   1.058  0.00  0.00    +0.095 C 
ATOM     10  C   UNL     1      -0.009  -4.617   2.375  0.00  0.00    +0.006 C 
ATOM     11  C   UNL     1       0.750  -5.296   3.517  0.00  0.00    -0.077 C 
ATOM     12  N   UNL     1       2.107  -4.742   3.606  0.00  0.00    +0.383 N 
ATOM     13  C   UNL     1       2.847  -5.039   2.374  0.00  0.00    -0.077 C 
ATOM     14  C   UNL     1       2.169  -4.349   1.188  0.00  0.00    +0.006 C 
ATOM     15  H   UNL     1       2.053  -3.743   3.732  0.00  0.00    -0.081 HD
BRANCH  12  16
ATOM     16  C   UNL     1       2.805  -5.341   4.751  0.00  0.00    -0.039 C 
BRANCH  16  17
ATOM     17  C   UNL     1       4.151  -4.685   4.918  0.00  0.00    -0.019 A 
ATOM     18  C   UNL     1       5.288  -5.309   4.439  0.00  0.00    +0.005 A 
ATOM     19  C   UNL     1       6.525  -4.711   4.590  0.00  0.00    +0.004 A 
ATOM     20  C   UNL     1       6.630  -3.485   5.221  0.00  0.00    +0.049 A 
ATOM     21  C   UNL     1       5.495  -2.854   5.704  0.00  0.00    +0.162 A 
ATOM     22  C   UNL     1       4.249  -3.454   5.546  0.00  0.00    +0.163 A 
BRANCH  22  23
ATOM     23  O   UNL     1       3.131  -2.837   6.013  0.00  0.00    -0.491 OA
ATOM     24  C   UNL     1       2.743  -3.126   7.357  0.00  0.00    +0.277 C 
ENDBRANCH  22  23
BRANCH  21  25
ATOM     25  O   UNL     1       5.597  -1.649   6.325  0.00  0.00    -0.491 OA
ATOM     26  C   UNL     1       6.907  -1.090   6.446  0.00  0.00    +0.277 C 
ENDBRANCH  21  25
ENDBRANCH  16  17
ENDBRANCH  12  16
ENDBRANCH   1   9
BRANCH   1  27
ATOM     27  S   UNL     1      -0.422  -4.975  -1.385  0.00  0.00    +0.075 S 
ATOM     28  O   UNL     1      -0.708  -6.305  -0.975  0.00  0.00    -0.150 OA
ATOM     29  O   UNL     1      -1.382  -4.156  -2.039  0.00  0.00    -0.150 OA
BRANCH  27  30
ATOM     30  C   UNL     1       0.974  -5.066  -2.455  0.00  0.00    +0.109 A 
ATOM     31  C   UNL     1       1.151  -4.115  -3.442  0.00  0.00    +0.031 A 
ATOM     32  C   UNL     1       2.247  -4.186  -4.282  0.00  0.00    +0.040 A 
ATOM     33  C   UNL     1       3.167  -5.210  -4.134  0.00  0.00    +0.124 A 
ATOM     34  C   UNL     1       2.989  -6.162  -3.144  0.00  0.00    +0.040 A 
ATOM     35  C   UNL     1       1.895  -6.086  -2.303  0.00  0.00    +0.031 A 
ATOM     36  F   UNL     1       4.238  -5.280  -4.955  0.00  0.00    -0.205 F 
ENDBRANCH  27  30
ENDBRANCH   1  27
TORSDOF 8
