REMARK  Name = ZINC36006030
REMARK  12 active torsions:
REMARK  status: ('A' for Active; 'I' for Inactive)
REMARK    1  A    between atoms: C_1  and  C_2
REMARK    2  A    between atoms: C_2  and  O_3
REMARK    3  A    between atoms: O_3  and  C_4
REMARK    4  A    between atoms: C_4  and  C_6
REMARK    5  A    between atoms: C_7  and  C_23
REMARK    6  A    between atoms: N_8  and  C_22
REMARK    7  A    between atoms: C_12  and  C_14
REMARK    8  A    between atoms: C_23  and  N_24
REMARK    9  A    between atoms: C_28  and  C_31
REMARK   10  A    between atoms: N_34  and  C_35
REMARK   11  A    between atoms: C_35  and  C_36
REMARK   12  A    between atoms: C_35  and  C_37
REMARK                            x       y       z     vdW  Elec       q    Type
REMARK                         _______ _______ _______ _____ _____    ______ ____
ROOT
ATOM      1  C   UNL     1       1.306  -2.371  -2.855  0.00  0.00    +0.080 C 
ATOM      2  C   UNL     1       1.525  -3.692  -3.028  0.00  0.00    +0.041 C 
ATOM      3  N   UNL     1       1.996  -4.179  -4.213  0.00  0.00    -0.260 N 
ATOM      4  C   UNL     1       2.274  -3.411  -5.274  0.00  0.00    +0.307 C 
ATOM      5  O   UNL     1       2.690  -3.936  -6.288  0.00  0.00    -0.252 OA
ATOM      6  N   UNL     1       2.107  -2.074  -5.254  0.00  0.00    -0.288 N 
ATOM      7  C   UNL     1       1.596  -1.450  -4.022  0.00  0.00    +0.144 C 
ATOM      8  C   UNL     1       2.211  -5.624  -4.331  0.00  0.00    +0.139 C 
ATOM      9  H   UNL     1       2.314  -1.536  -6.034  0.00  0.00    +0.151 HD
ENDROOT
BRANCH   7  10
ATOM     10  C   UNL     1       0.324  -0.715  -4.361  0.00  0.00    -0.021 A 
ATOM     11  C   UNL     1      -0.656  -1.339  -5.109  0.00  0.00    +0.007 A 
ATOM     12  C   UNL     1      -1.823  -0.666  -5.421  0.00  0.00    +0.022 A 
ATOM     13  C   UNL     1      -2.010   0.632  -4.983  0.00  0.00    +0.059 A 
ATOM     14  C   UNL     1      -1.029   1.258  -4.233  0.00  0.00    +0.060 A 
ATOM     15  C   UNL     1       0.136   0.581  -3.917  0.00  0.00    +0.027 A 
ATOM     16 CL   UNL     1      -1.262   2.888  -3.683  0.00  0.00    -0.082 Cl
ATOM     17 CL   UNL     1      -3.475   1.478  -5.374  0.00  0.00    -0.082 Cl
ENDBRANCH   7  10
BRANCH   1  18
ATOM     18  C   UNL     1       0.817  -1.865  -1.627  0.00  0.00    +0.339 C 
ATOM     19  O   UNL     1      -0.347  -1.526  -1.530  0.00  0.00    -0.245 OA
BRANCH  18  20
ATOM     20  O   UNL     1       1.642  -1.760  -0.565  0.00  0.00    -0.462 OA
BRANCH  20  22
ATOM     21  C   UNL     1       2.159  -1.195   1.728  0.00  0.00    +0.048 C 
ATOM     22  C   UNL     1       1.081  -1.241   0.643  0.00  0.00    +0.229 C 
ENDBRANCH  20  22
ENDBRANCH  18  20
ENDBRANCH   1  18
BRANCH   2  23
ATOM     23  C   UNL     1       1.245  -4.645  -1.894  0.00  0.00    +0.136 C 
BRANCH  23  24
ATOM     24  N   UNL     1       0.143  -5.542  -2.268  0.00  0.00    -0.294 NA
ATOM     25  C   UNL     1      -1.112  -4.796  -2.426  0.00  0.00    +0.104 C 
ATOM     26  C   UNL     1      -2.189  -5.729  -2.990  0.00  0.00    +0.125 C 
ATOM     27  N   UNL     1      -2.276  -6.917  -2.127  0.00  0.00    -0.280 N 
ATOM     28  C   UNL     1      -1.034  -7.640  -1.811  0.00  0.00    +0.088 C 
ATOM     29  C   UNL     1      -0.003  -6.631  -1.294  0.00  0.00    +0.107 C 
ATOM     30  C   UNL     1      -1.312  -8.694  -0.738  0.00  0.00    +0.029 C 
ATOM     31  C   UNL     1      -3.461  -7.334  -1.640  0.00  0.00    +0.303 C 
ATOM     32  O   UNL     1      -3.505  -8.265  -0.860  0.00  0.00    -0.253 OA
ATOM     33  N   UNL     1      -4.599  -6.717  -2.017  0.00  0.00    -0.297 N 
ATOM     34  H   UNL     1      -4.572  -6.021  -2.692  0.00  0.00    +0.150 HD
BRANCH  33  35
ATOM     35  C   UNL     1      -5.875  -7.097  -1.407  0.00  0.00    +0.068 C 
ATOM     36  C   UNL     1      -6.065  -6.327  -0.098  0.00  0.00    +0.027 C 
ATOM     37  C   UNL     1      -7.019  -6.762  -2.366  0.00  0.00    +0.027 C 
ENDBRANCH  33  35
ENDBRANCH  23  24
ENDBRANCH   2  23
TORSDOF 7
