REMARK  Name = ZINC08914466
REMARK  1 active torsions:
REMARK  status: ('A' for Active; 'I' for Inactive)
REMARK    1  A    between atoms: C_1  and  C_2
REMARK                            x       y       z     vdW  Elec       q    Type
REMARK                         _______ _______ _______ _____ _____    ______ ____
ROOT
ATOM      1  C   UNL     1      -0.018   1.503   0.010  0.00  0.00    +0.070 C 
ATOM      2  C   UNL     1       0.002  -0.004   0.002  0.00  0.00    +0.086 A 
ATOM      3  C   UNL     1       0.006  -0.699  -1.202  0.00  0.00    +0.094 A 
ATOM      4  C   UNL     1       0.025  -2.107  -1.157  0.00  0.00    +0.158 A 
ATOM      5  C   UNL     1       0.040  -2.716   0.107  0.00  0.00    +0.316 A 
ATOM      6  O   UNL     1       0.059  -4.068   0.218  0.00  0.00    -0.262 OA
ATOM      7  N   UNL     1       0.035  -1.956   1.188  0.00  0.00    -0.104 NA
ATOM      8  N   UNL     1       0.022  -0.675   1.136  0.00  0.00    -0.149 NA
ATOM      9  N   UNL     1       0.025  -2.543  -2.436  0.00  0.00    -0.230 NA
ATOM     10  C   UNL     1       0.007  -1.523  -3.245  0.00  0.00    +0.197 A 
ATOM     11  N   UNL     1      -0.005  -0.362  -2.534  0.00  0.00    -0.343 N 
ATOM     12  H   UNL     1      -0.020   0.536  -2.900  0.00  0.00    +0.167 HD
ENDROOT
TORSDOF 0
