REMARK  Name = ZINC19842468
REMARK  7 active torsions:
REMARK  status: ('A' for Active; 'I' for Inactive)
REMARK    1  A    between atoms: C_1  and  C_2
REMARK    2  A    between atoms: C_2  and  N_3
REMARK    3  A    between atoms: C_7  and  C_8
REMARK    4  A    between atoms: C_8  and  N_9
REMARK    5  A    between atoms: C_22  and  C_24
REMARK    6  A    between atoms: C_28  and  O_30
REMARK    7  A    between atoms: O_30  and  C_31
REMARK                            x       y       z     vdW  Elec       q    Type
REMARK                         _______ _______ _______ _____ _____    ______ ____
ROOT
ATOM      1  N   UNL     1       3.139   5.776   1.049  0.00  0.00    -0.283 NA
ATOM      2  C   UNL     1       2.075   5.367   0.121  0.00  0.00    +0.090 C 
ATOM      3  C   UNL     1       1.259   4.228   0.750  0.00  0.00    +0.053 C 
ATOM      4  C   UNL     1       2.227   3.194   1.266  0.00  0.00    -0.016 A 
ATOM      5  C   UNL     1       1.967   1.816   1.659  0.00  0.00    +0.003 A 
ATOM      6  C   UNL     1       0.827   1.009   1.704  0.00  0.00    +0.010 A 
ATOM      7  C   UNL     1       0.924  -0.282   2.138  0.00  0.00    +0.001 A 
ATOM      8  C   UNL     1       2.148  -0.803   2.536  0.00  0.00    +0.002 A 
ATOM      9  C   UNL     1       3.285  -0.027   2.500  0.00  0.00    +0.026 A 
ATOM     10  C   UNL     1       3.211   1.291   2.062  0.00  0.00    +0.047 A 
ATOM     11  N   UNL     1       4.145   2.294   1.916  0.00  0.00    -0.356 N 
ATOM     12  H   UNL     1       5.198   2.106   2.173  0.00  0.00    +0.166 HD
ATOM     13  C   UNL     1       3.545   3.423   1.442  0.00  0.00    +0.042 A 
ATOM     14  C   UNL     1       4.195   4.754   1.143  0.00  0.00    +0.135 C 
ENDROOT
BRANCH  14  15
ATOM     15  C   UNL     1       5.151   5.112   2.251  0.00  0.00    -0.021 A 
ATOM     16  C   UNL     1       4.671   5.659   3.427  0.00  0.00    +0.008 A 
ATOM     17  C   UNL     1       5.545   5.983   4.449  0.00  0.00    +0.042 A 
ATOM     18  C   UNL     1       6.903   5.773   4.291  0.00  0.00    +0.165 A 
ATOM     19  C   UNL     1       7.387   5.229   3.108  0.00  0.00    +0.155 A 
ATOM     20  C   UNL     1       6.507   4.900   2.088  0.00  0.00    +0.054 A 
ATOM     21  F   UNL     1       7.757   6.094   5.287  0.00  0.00    -0.202 F 
BRANCH  19  22
ATOM     22  O   UNL     1       8.721   5.021   2.950  0.00  0.00    -0.492 OA
ATOM     23  C   UNL     1       9.147   4.460   1.707  0.00  0.00    +0.277 C 
ENDBRANCH  19  22
ENDBRANCH  14  15
BRANCH   1  24
ATOM     24  C   UNL     1       3.700   7.078   0.666  0.00  0.00    +0.157 C 
BRANCH  24  29
ATOM     25  N   UNL     1       2.016   8.795   1.491  0.00  0.00    -0.335 N 
ATOM     26  C   UNL     1       1.050   9.580   0.921  0.00  0.00    +0.104 A 
ATOM     27  C   UNL     1       1.054   9.307  -0.398  0.00  0.00    +0.101 A 
ATOM     28  N   UNL     1       2.001   8.385  -0.627  0.00  0.00    -0.349 N 
ATOM     29  C   UNL     1       2.583   8.076   0.499  0.00  0.00    +0.101 A 
ATOM     30  H   UNL     1       2.174   8.017  -1.649  0.00  0.00    +0.166 HD
BRANCH  25  32
ATOM     31  C   UNL     1       3.555   9.679   3.174  0.00  0.00    +0.027 C 
ATOM     32  C   UNL     1       2.370   8.747   2.912  0.00  0.00    +0.119 C 
ENDBRANCH  25  32
ENDBRANCH  24  29
ENDBRANCH   1  24
TORSDOF 5
