REMARK  Name = ZINC39217864
REMARK  6 active torsions:
REMARK  status: ('A' for Active; 'I' for Inactive)
REMARK    1  A    between atoms: C_1  and  C_2
REMARK    2  A    between atoms: C_13  and  S_17
REMARK    3  A    between atoms: S_17  and  C_18
REMARK    4  A    between atoms: C_18  and  C_19
REMARK    5  A    between atoms: C_27  and  N_31
REMARK    6  A    between atoms: C_28  and  C_29
REMARK                            x       y       z     vdW  Elec       q    Type
REMARK                         _______ _______ _______ _____ _____    ______ ____
ROOT
ATOM      1  C   UNL     1      -0.018   1.503   0.010  0.00  0.00    +0.044 C 
ATOM      2  C   UNL     1       0.002  -0.004   0.002  0.00  0.00    -0.050 A 
ATOM      3  C   UNL     1       0.005  -0.673  -1.205  0.00  0.00    +0.005 A 
ATOM      4  C   UNL     1       0.023  -2.057  -1.277  0.00  0.00    +0.024 A 
ATOM      5  C   UNL     1       0.038  -2.759  -0.070  0.00  0.00    +0.038 A 
ATOM      6  C   UNL     1       0.036  -2.068   1.147  0.00  0.00    -0.005 A 
ATOM      7  C   UNL     1       0.023  -0.691   1.211  0.00  0.00    +0.010 A 
ATOM      8  C   UNL     1       0.057  -3.110   2.221  0.00  0.00    +0.129 C 
ATOM      9  C   UNL     1      -1.200  -3.022   3.089  0.00  0.00    +0.167 C 
ATOM     10  C   UNL     1      -0.991  -1.911   4.091  0.00  0.00    +0.137 C 
ATOM     11  N   UNL     1      -1.817  -0.914   4.194  0.00  0.00    -0.211 NA
ATOM     12  C   UNL     1      -2.886  -0.787   3.398  0.00  0.00    +0.182 C 
ATOM     13  N   UNL     1      -3.156  -1.666   2.443  0.00  0.00    -0.154 NA
ATOM     14  C   UNL     1      -2.401  -2.735   2.237  0.00  0.00    +0.250 C 
ATOM     15  O   UNL     1      -2.688  -3.501   1.338  0.00  0.00    -0.273 OA
ATOM     16  N   UNL     1       0.126  -1.993   4.879  0.00  0.00    -0.185 NA
ATOM     17  C   UNL     1       1.285  -2.460   4.295  0.00  0.00    +0.106 C 
ATOM     18  C   UNL     1       1.291  -2.991   3.067  0.00  0.00    +0.085 C 
ATOM     19  C   UNL     1       0.068  -4.424   1.467  0.00  0.00    +0.234 C 
ATOM     20  O   UNL     1       0.085  -5.534   1.954  0.00  0.00    -0.274 OA
ATOM     21  N   UNL     1       0.057  -4.124   0.151  0.00  0.00    -0.284 N 
ATOM     22  H   UNL     1       0.060  -4.788  -0.556  0.00  0.00    +0.155 HD
ENDROOT
BRANCH  17  23
ATOM     23  N   UNL     1       2.486  -2.376   5.006  0.00  0.00    -0.403 NA
ATOM     24  H   UNL     1       2.315  -1.956   5.907  0.00  0.00    +0.122 HD
ATOM     25  H   UNL     1       2.866  -3.302   5.133  0.00  0.00    +0.122 HD
ATOM     26  H   UNL     1       3.143  -1.811   4.490  0.00  0.00    +0.122 HD
ENDBRANCH  17  23
BRANCH  18  27
ATOM     27  C   UNL     1       2.532  -3.467   2.534  0.00  0.00    +0.099 C 
ATOM     28  N   UNL     1       3.517  -3.844   2.112  0.00  0.00    -0.191 NA
ENDBRANCH  18  27
BRANCH  12  29
ATOM     29  S   UNL     1      -3.965   0.587   3.628  0.00  0.00    -0.084 S 
BRANCH  29  30
ATOM     30  C   UNL     1      -5.243   0.357   2.361  0.00  0.00    +0.112 C 
BRANCH  30  31
ATOM     31  C   UNL     1      -6.244   1.480   2.448  0.00  0.00    -0.034 A 
ATOM     32  C   UNL     1      -7.352   1.356   3.266  0.00  0.00    +0.004 A 
ATOM     33  C   UNL     1      -8.272   2.385   3.347  0.00  0.00    +0.003 A 
ATOM     34  C   UNL     1      -8.084   3.539   2.609  0.00  0.00    +0.038 A 
ATOM     35  C   UNL     1      -6.976   3.664   1.790  0.00  0.00    +0.124 A 
ATOM     36  C   UNL     1      -6.052   2.635   1.715  0.00  0.00    +0.042 A 
ATOM     37  F   UNL     1      -6.792   4.792   1.069  0.00  0.00    -0.205 F 
ENDBRANCH  30  31
ENDBRANCH  29  30
ENDBRANCH  12  29
TORSDOF 5
