REMARK  Name = ZINC62324857
REMARK  3 active torsions:
REMARK  status: ('A' for Active; 'I' for Inactive)
REMARK    1  A    between atoms: C_1  and  C_2
REMARK    2  A    between atoms: N_14  and  C_15
REMARK    3  A    between atoms: C_21  and  C_23
REMARK                            x       y       z     vdW  Elec       q    Type
REMARK                         _______ _______ _______ _____ _____    ______ ____
ROOT
ATOM      1  C   UNL     1      -0.018   1.503   0.010  0.00  0.00    +0.044 C 
ATOM      2  C   UNL     1       0.002  -0.004   0.002  0.00  0.00    -0.048 A 
ATOM      3  C   UNL     1       0.006  -0.689  -1.200  0.00  0.00    +0.005 A 
ATOM      4  C   UNL     1       0.023  -2.069  -1.215  0.00  0.00    +0.025 A 
ATOM      5  C   UNL     1       0.037  -2.776  -0.018  0.00  0.00    +0.061 A 
ATOM      6  C   UNL     1       0.036  -2.079   1.185  0.00  0.00    +0.134 A 
ATOM      7  C   UNL     1       0.023  -0.702   1.197  0.00  0.00    +0.034 A 
ATOM      8  S   UNL     1       0.062  -2.997   2.691  0.00  0.00    +0.103 S 
ATOM      9  O   UNL     1       1.137  -2.484   3.466  0.00  0.00    -0.146 OA
ATOM     10  O   UNL     1      -1.275  -3.037   3.170  0.00  0.00    -0.146 OA
ATOM     11  N   UNL     1       0.472  -4.548   2.271  0.00  0.00    -0.097 NA
ATOM     12  C   UNL     1       0.428  -4.936   1.038  0.00  0.00    +0.205 C 
ATOM     13  N   UNL     1       0.051  -4.168  -0.021  0.00  0.00    -0.285 N 
ATOM     14  N   UNL     1       0.793  -6.235   0.774  0.00  0.00    -0.313 N 
ATOM     15  H   UNL     1      -0.228  -4.622  -0.832  0.00  0.00    +0.155 HD
ATOM     16  H   UNL     1       0.775  -6.569  -0.136  0.00  0.00    +0.149 HD
ENDROOT
BRANCH  14  17
ATOM     17  C   UNL     1       1.210  -7.115   1.869  0.00  0.00    +0.076 C 
ATOM     18  C   UNL     1      -0.025  -7.748   2.513  0.00  0.00    +0.022 C 
ATOM     19  C   UNL     1       0.410  -8.668   3.656  0.00  0.00    +0.002 C 
ATOM     20  C   UNL     1       1.319  -9.768   3.107  0.00  0.00    +0.000 C 
ATOM     21  C   UNL     1       2.554  -9.136   2.463  0.00  0.00    +0.005 C 
ATOM     22  C   UNL     1       2.119  -8.216   1.320  0.00  0.00    +0.006 C 
ATOM     23  C   UNL     1       3.354  -7.584   0.675  0.00  0.00    +0.009 C 
ENDBRANCH  14  17
TORSDOF 1
