REMARK  Name = ZINC40135288
REMARK  5 active torsions:
REMARK  status: ('A' for Active; 'I' for Inactive)
REMARK    1  A    between atoms: C_3  and  C_7
REMARK    2  A    between atoms: N_20  and  C_21
REMARK    3  A    between atoms: C_21  and  C_22
REMARK    4  A    between atoms: C_22  and  C_23
REMARK    5  A    between atoms: C_23  and  N_24
REMARK                            x       y       z     vdW  Elec       q    Type
REMARK                         _______ _______ _______ _____ _____    ______ ____
ROOT
ATOM      1  C   UNL     1       3.697   2.046   0.197  0.00  0.00    +0.164 A 
ATOM      2  N   UNL     1       4.814   1.326   0.169  0.00  0.00    -0.212 NA
ATOM      3  C   UNL     1       5.997   1.872  -0.051  0.00  0.00    +0.131 A 
ATOM      4  C   UNL     1       6.084   3.277  -0.267  0.00  0.00    +0.051 A 
ATOM      5  C   UNL     1       7.274   4.090  -0.524  0.00  0.00    -0.025 A 
ATOM      6  C   UNL     1       7.085   5.414  -0.697  0.00  0.00    -0.004 A 
ATOM      7  S   UNL     1       5.336   5.658  -0.530  0.00  0.00    -0.073 S 
ATOM      8  C   UNL     1       4.860   3.976  -0.225  0.00  0.00    +0.114 A 
ATOM      9  N   UNL     1       3.719   3.358  -0.004  0.00  0.00    -0.220 NA
ATOM     10  C   UNL     1       8.130   6.453  -0.969  0.00  0.00    +0.043 C 
ATOM     11  C   UNL     1       9.506   5.848  -0.656  0.00  0.00    +0.005 C 
ATOM     12  C   UNL     1       9.598   4.469  -1.316  0.00  0.00    +0.005 C 
ATOM     13  C   UNL     1       8.674   3.486  -0.597  0.00  0.00    +0.037 C 
ATOM     14  N   UNL     1       7.136   1.089  -0.072  0.00  0.00    -0.328 N 
ATOM     15  H   UNL     1       8.009   1.504  -0.151  0.00  0.00    +0.147 HD
ENDROOT
BRANCH   1  18
ATOM     16  C   UNL     1       0.029   1.426   0.719  0.00  0.00    +0.020 A 
ATOM     17  C   UNL     1       1.212   2.104   0.478  0.00  0.00    +0.014 A 
ATOM     18  C   UNL     1       2.402   1.371   0.450  0.00  0.00    +0.037 A 
ATOM     19  C   UNL     1       2.351  -0.006   0.663  0.00  0.00    +0.122 A 
ATOM     20  N   UNL     1       1.200  -0.607   0.888  0.00  0.00    -0.263 NA
ATOM     21  C   UNL     1       0.062   0.058   0.921  0.00  0.00    +0.111 A 
ENDBRANCH   1  18
BRANCH  14  22
ATOM     22  C   UNL     1       7.025  -0.369   0.025  0.00  0.00    +0.105 C 
BRANCH  22  23
ATOM     23  C   UNL     1       8.422  -0.991  -0.021  0.00  0.00    +0.042 C 
BRANCH  23  24
ATOM     24  C   UNL     1       8.306  -2.514   0.080  0.00  0.00    +0.150 C 
BRANCH  24  25
ATOM     25  N   UNL     1       9.643  -3.109   0.036  0.00  0.00    -0.213 N 
ATOM     26  C   UNL     1      10.438  -3.373   1.096  0.00  0.00    +0.347 A 
ATOM     27  O   UNL     1      10.184  -3.138   2.264  0.00  0.00    -0.245 OA
ATOM     28  N   UNL     1      11.560  -3.941   0.625  0.00  0.00    -0.279 N 
ATOM     29  C   UNL     1      11.474  -3.994  -0.751  0.00  0.00    +0.134 A 
ATOM     30  N   UNL     1      10.333  -3.518  -1.116  0.00  0.00    -0.154 NA
ATOM     31  C   UNL     1      12.578  -4.517  -1.641  0.00  0.00    +0.076 C 
ATOM     32  C   UNL     1      13.522  -5.365  -0.777  0.00  0.00    +0.009 C 
ATOM     33  C   UNL     1      13.911  -4.566   0.471  0.00  0.00    +0.022 C 
ATOM     34  C   UNL     1      12.697  -4.450   1.400  0.00  0.00    +0.128 C 
ENDBRANCH  24  25
ENDBRANCH  23  24
ENDBRANCH  22  23
ENDBRANCH  14  22
TORSDOF 5
