REMARK  Name = ZINC38748416
REMARK  4 active torsions:
REMARK  status: ('A' for Active; 'I' for Inactive)
REMARK    1  A    between atoms: C_2  and  C_3
REMARK    2  A    between atoms: C_3  and  N_4
REMARK    3  A    between atoms: C_15  and  C_20
REMARK    4  A    between atoms: C_17  and  N_19
REMARK                            x       y       z     vdW  Elec       q    Type
REMARK                         _______ _______ _______ _____ _____    ______ ____
ROOT
ATOM      1  N   UNL     1       1.367  -1.676   1.111  0.00  0.00    -0.323 N 
ATOM      2  C   UNL     1       1.850  -1.369   2.374  0.00  0.00    +0.143 A 
ATOM      3  C   UNL     1       1.768  -2.473   3.238  0.00  0.00    +0.092 A 
ATOM      4  N   UNL     1       2.174  -2.392   4.483  0.00  0.00    -0.246 NA
ATOM      5  C   UNL     1       2.678  -1.242   4.948  0.00  0.00    +0.090 A 
ATOM      6  C   UNL     1       3.122  -1.129   6.276  0.00  0.00    +0.030 A 
ATOM      7  C   UNL     1       3.630   0.054   6.719  0.00  0.00    +0.002 A 
ATOM      8  C   UNL     1       3.718   1.157   5.872  0.00  0.00    +0.002 A 
ATOM      9  C   UNL     1       3.298   1.083   4.580  0.00  0.00    +0.030 A 
ATOM     10  C   UNL     1       2.767  -0.121   4.086  0.00  0.00    +0.091 A 
ATOM     11  N   UNL     1       2.348  -0.223   2.821  0.00  0.00    -0.229 NA
ATOM     12  C   UNL     1       1.168  -3.631   2.470  0.00  0.00    +0.109 C 
ATOM     13  C   UNL     1       0.909  -3.066   1.064  0.00  0.00    +0.031 C 
ENDROOT
BRANCH  12  14
ATOM     14  C   UNL     1      -0.126  -4.070   3.105  0.00  0.00    +0.117 A 
ATOM     15  N   UNL     1      -0.562  -5.295   3.139  0.00  0.00    -0.232 NA
ATOM     16  C   UNL     1      -1.755  -5.338   3.785  0.00  0.00    +0.089 A 
ATOM     17  C   UNL     1      -2.644  -6.369   4.100  0.00  0.00    +0.030 A 
ATOM     18  C   UNL     1      -3.797  -6.090   4.778  0.00  0.00    +0.002 A 
ATOM     19  C   UNL     1      -4.098  -4.790   5.159  0.00  0.00    +0.002 A 
ATOM     20  C   UNL     1      -3.235  -3.757   4.858  0.00  0.00    +0.028 A 
ATOM     21  C   UNL     1      -2.059  -4.021   4.171  0.00  0.00    +0.066 A 
ATOM     22  N   UNL     1      -1.006  -3.243   3.731  0.00  0.00    -0.341 N 
ATOM     23  H   UNL     1      -0.913  -2.284   3.846  0.00  0.00    +0.167 HD
ENDBRANCH  12  14
BRANCH  13  24
ATOM     24  N   UNL     1       1.677  -3.821   0.066  0.00  0.00    +0.391 N 
ATOM     25  H   UNL     1       2.658  -3.785   0.299  0.00  0.00    -0.087 HD
ATOM     26  H   UNL     1       1.368  -4.782   0.060  0.00  0.00    -0.087 HD
ATOM     27  H   UNL     1       1.533  -3.416  -0.847  0.00  0.00    -0.087 HD
ENDBRANCH  13  24
BRANCH   1  28
ATOM     28  C   UNL     1       1.317  -0.740  -0.015  0.00  0.00    +0.131 C 
BRANCH  28  30
ATOM     29  C   UNL     1      -0.016   1.306   0.009  0.00  0.00    +0.005 C 
ATOM     30  C   UNL     1       0.002  -0.004   0.002  0.00  0.00    -0.016 C 
ENDBRANCH  28  30
ENDBRANCH   1  28
TORSDOF 4
