REMARK  Name = ZINC22332761
REMARK  13 active torsions:
REMARK  status: ('A' for Active; 'I' for Inactive)
REMARK    1  A    between atoms: C_1  and  C_2
REMARK    2  A    between atoms: C_2  and  C_3
REMARK    3  A    between atoms: C_3  and  C_5
REMARK    4  A    between atoms: C_3  and  N_13
REMARK    5  A    between atoms: C_8  and  O_11
REMARK    6  A    between atoms: O_11  and  C_12
REMARK    7  A    between atoms: C_14  and  C_16
REMARK    8  A    between atoms: C_16  and  N_17
REMARK    9  A    between atoms: N_17  and  C_18
REMARK   10  A    between atoms: N_17  and  S_26
REMARK   11  A    between atoms: C_21  and  O_24
REMARK   12  A    between atoms: O_24  and  C_25
REMARK   13  A    between atoms: S_26  and  C_29
REMARK                            x       y       z     vdW  Elec       q    Type
REMARK                         _______ _______ _______ _____ _____    ______ ____
ROOT
ATOM      1  N   UNL     1      -0.729   1.234  -2.463  0.00  0.00    -0.307 N 
ATOM      2  C   UNL     1      -1.052   1.525  -1.187  0.00  0.00    +0.233 C 
ATOM      3  O   UNL     1      -2.090   2.103  -0.942  0.00  0.00    -0.274 OA
ATOM      4  H   UNL     1       0.213   0.710  -2.685  0.00  0.00    +0.149 HD
ENDROOT
BRANCH   1   5
ATOM      5  C   UNL     1      -1.630   1.615  -3.553  0.00  0.00    +0.103 C 
BRANCH   5   6
ATOM      6  C   UNL     1      -0.842   1.759  -4.829  0.00  0.00    -0.027 A 
ATOM      7  C   UNL     1       0.169   0.862  -5.121  0.00  0.00    +0.009 A 
ATOM      8  C   UNL     1       0.889   0.989  -6.293  0.00  0.00    +0.046 A 
ATOM      9  C   UNL     1       0.604   2.023  -7.173  0.00  0.00    +0.120 A 
ATOM     10  C   UNL     1      -0.407   2.925  -6.875  0.00  0.00    +0.046 A 
ATOM     11  C   UNL     1      -1.128   2.791  -5.704  0.00  0.00    +0.009 A 
BRANCH   9  12
ATOM     12  O   UNL     1       1.315   2.153  -8.323  0.00  0.00    -0.495 OA
ATOM     13  C   UNL     1       2.342   1.189  -8.564  0.00  0.00    +0.277 C 
ENDBRANCH   9  12
ENDBRANCH   5   6
BRANCH   5  15
ATOM     14  C   UNL     1      -3.578   0.476  -2.481  0.00  0.00    +0.006 C 
ATOM     15  C   UNL     1      -2.699   0.535  -3.732  0.00  0.00    +0.024 C 
ENDBRANCH   5  15
ENDBRANCH   1   5
BRANCH   2  16
ATOM     16  C   UNL     1      -0.125   1.133  -0.066  0.00  0.00    +0.226 C 
BRANCH  16  17
ATOM     17  N   UNL     1      -0.698   1.558   1.213  0.00  0.00    -0.199 N 
BRANCH  17  18
ATOM     18  C   UNL     1      -0.488   2.862   1.675  0.00  0.00    +0.052 A 
ATOM     19  C   UNL     1       0.801   3.310   1.929  0.00  0.00    +0.028 A 
ATOM     20  C   UNL     1       1.008   4.599   2.380  0.00  0.00    +0.047 A 
ATOM     21  C   UNL     1      -0.073   5.443   2.590  0.00  0.00    +0.120 A 
ATOM     22  C   UNL     1      -1.362   4.994   2.342  0.00  0.00    +0.047 A 
ATOM     23  C   UNL     1      -1.570   3.708   1.886  0.00  0.00    +0.028 A 
BRANCH  21  24
ATOM     24  O   UNL     1       0.131   6.710   3.039  0.00  0.00    -0.495 OA
ATOM     25  C   UNL     1       1.484   7.105   3.274  0.00  0.00    +0.277 C 
ENDBRANCH  21  24
ENDBRANCH  17  18
BRANCH  17  26
ATOM     26  S   UNL     1      -1.595   0.495   2.113  0.00  0.00    +0.043 S 
ATOM     27  O   UNL     1      -2.369   1.315   2.977  0.00  0.00    -0.155 OA
ATOM     28  O   UNL     1      -2.225  -0.347   1.157  0.00  0.00    -0.155 OA
ATOM     29  C   UNL     1      -0.377  -0.448   3.071  0.00  0.00    +0.218 C 
ENDBRANCH  17  26
ENDBRANCH  16  17
ENDBRANCH   2  16
TORSDOF 9
