REMARK  Name = ZINC33893210
REMARK  10 active torsions:
REMARK  status: ('A' for Active; 'I' for Inactive)
REMARK    1  A    between atoms: C_1  and  C_2
REMARK    2  A    between atoms: C_2  and  C_3
REMARK    3  A    between atoms: C_3  and  O_4
REMARK    4  A    between atoms: O_4  and  C_5
REMARK    5  A    between atoms: C_5  and  C_6
REMARK    6  A    between atoms: C_6  and  N_7
REMARK    7  A    between atoms: C_12  and  C_30
REMARK    8  A    between atoms: C_15  and  C_20
REMARK    9  A    between atoms: C_15  and  C_27
REMARK   10  A    between atoms: C_20  and  C_21
REMARK                            x       y       z     vdW  Elec       q    Type
REMARK                         _______ _______ _______ _____ _____    ______ ____
ROOT
ATOM      1  N   UNL     1      -0.040  -4.478  -2.385  0.00  0.00    -0.239 N 
ATOM      2  C   UNL     1      -0.852  -4.637  -1.289  0.00  0.00    +0.228 C 
ATOM      3  O   UNL     1      -0.659  -4.234  -0.162  0.00  0.00    -0.275 OA
ATOM      4  C   UNL     1      -1.984  -5.387  -1.774  0.00  0.00    +0.111 C 
ATOM      5  C   UNL     1      -3.385  -5.680  -1.430  0.00  0.00    +0.104 C 
ATOM      6  N   UNL     1      -3.877  -6.372  -2.671  0.00  0.00    -0.293 NA
ATOM      7  C   UNL     1      -2.999  -5.954  -3.805  0.00  0.00    +0.138 C 
ATOM      8  C   UNL     1      -2.139  -4.814  -3.239  0.00  0.00    +0.121 C 
ATOM      9  C   UNL     1      -0.670  -4.789  -3.557  0.00  0.00    +0.228 C 
ATOM     10  O   UNL     1      -0.152  -5.004  -4.632  0.00  0.00    -0.275 OA
ATOM     11  H   UNL     1      -3.865  -7.374  -2.555  0.00  0.00    +0.124 HD
ENDROOT
BRANCH   5  12
ATOM     12  C   UNL     1      -3.466  -6.595  -0.235  0.00  0.00    +0.009 A 
ATOM     13  C   UNL     1      -3.717  -6.286   1.060  0.00  0.00    +0.014 A 
ATOM     14  C   UNL     1      -3.743  -7.301   1.999  0.00  0.00    +0.023 A 
ATOM     15  C   UNL     1      -3.516  -8.576   1.594  0.00  0.00    +0.055 A 
ATOM     16  S   UNL     1      -3.263  -8.367  -0.161  0.00  0.00    -0.085 S 
ATOM     17 BR   UNL     1      -3.483 -10.163   2.621  0.00  0.00    -0.043 Br
ENDBRANCH   5  12
BRANCH   7  18
ATOM     18  C   UNL     1      -3.834  -5.443  -4.950  0.00  0.00    +0.377 C 
ATOM     19  O   UNL     1      -5.050  -5.444  -4.866  0.00  0.00    -0.244 OA
ATOM     20  O   UNL     1      -3.294  -5.029  -5.962  0.00  0.00    -0.244 OA
ENDBRANCH   7  18
BRANCH   1  21
ATOM     21  C   UNL     1       1.349  -4.019  -2.308  0.00  0.00    +0.144 C 
BRANCH  21  22
ATOM     22  C   UNL     1       1.387  -2.493  -2.405  0.00  0.00    +0.179 C 
BRANCH  22  23
ATOM     23  O   UNL     1       0.738  -1.926  -1.265  0.00  0.00    -0.378 OA
BRANCH  23  24
ATOM     24  C   UNL     1       0.718  -0.497  -1.257  0.00  0.00    +0.159 C 
BRANCH  24  26
ATOM     25  C   UNL     1      -0.019   1.526   0.010  0.00  0.00    +0.006 C 
ATOM     26  C   UNL     1       0.002  -0.004   0.002  0.00  0.00    +0.025 C 
ENDBRANCH  24  26
ENDBRANCH  23  24
ENDBRANCH  22  23
ENDBRANCH  21  22
ENDBRANCH   1  21
BRANCH   7  27
ATOM     27  C   UNL     1      -2.131  -7.128  -4.263  0.00  0.00    +0.069 C 
BRANCH  27  28
ATOM     28  C   UNL     1      -3.015  -8.247  -4.750  0.00  0.00    -0.045 A 
ATOM     29  C   UNL     1      -3.458  -9.213  -3.866  0.00  0.00    +0.004 A 
ATOM     30  C   UNL     1      -4.269 -10.239  -4.312  0.00  0.00    +0.000 A 
ATOM     31  C   UNL     1      -4.638 -10.299  -5.643  0.00  0.00    +0.000 A 
ATOM     32  C   UNL     1      -4.196  -9.333  -6.527  0.00  0.00    +0.000 A 
ATOM     33  C   UNL     1      -3.388  -8.304  -6.080  0.00  0.00    +0.004 A 
ENDBRANCH  27  28
ENDBRANCH   7  27
TORSDOF 9
