REMARK  Name = ZINC20347445
REMARK  11 active torsions:
REMARK  status: ('A' for Active; 'I' for Inactive)
REMARK    1  A    between atoms: C_1  and  C_2
REMARK    2  A    between atoms: C_2  and  C_3
REMARK    3  A    between atoms: C_8  and  N_9
REMARK    4  A    between atoms: C_10  and  C_12
REMARK    5  A    between atoms: C_12  and  S_13
REMARK    6  A    between atoms: S_13  and  C_14
REMARK    7  A    between atoms: C_15  and  C_37
REMARK    8  A    between atoms: C_16  and  C_31
REMARK    9  A    between atoms: C_18  and  C_22
REMARK   10  A    between atoms: C_19  and  C_21
REMARK   11  A    between atoms: N_24  and  C_25
REMARK                            x       y       z     vdW  Elec       q    Type
REMARK                         _______ _______ _______ _____ _____    ______ ____
ROOT
ATOM      1  C   UNL     1       5.581   0.579   1.672  0.00  0.00    +0.080 C 
ATOM      2  C   UNL     1       4.526  -0.268   1.808  0.00  0.00    +0.069 C 
ATOM      3  C   UNL     1       3.691  -0.669   0.626  0.00  0.00    +0.098 C 
ATOM      4  C   UNL     1       4.398  -0.350  -0.660  0.00  0.00    +0.044 C 
ATOM      5  C   UNL     1       5.443   0.489  -0.702  0.00  0.00    +0.014 C 
ATOM      6  N   UNL     1       5.915   1.086   0.436  0.00  0.00    -0.312 N 
ATOM      7  C   UNL     1       6.109   0.780  -2.022  0.00  0.00    +0.061 C 
ATOM      8  H   UNL     1       6.562   1.972   0.361  0.00  0.00    +0.152 HD
ENDROOT
BRANCH   3   9
ATOM      9  C   UNL     1       2.381   0.075   0.669  0.00  0.00    -0.035 A 
ATOM     10  C   UNL     1       1.191  -0.624   0.754  0.00  0.00    +0.004 A 
ATOM     11  C   UNL     1      -0.010   0.059   0.795  0.00  0.00    +0.000 A 
ATOM     12  C   UNL     1      -0.022   1.440   0.750  0.00  0.00    +0.000 A 
ATOM     13  C   UNL     1       1.168   2.139   0.665  0.00  0.00    +0.000 A 
ATOM     14  C   UNL     1       2.369   1.456   0.624  0.00  0.00    +0.004 A 
ENDBRANCH   3   9
BRANCH   4  15
ATOM     15  C   UNL     1       3.949  -0.951  -1.861  0.00  0.00    +0.247 C 
ATOM     16  O   UNL     1       4.511  -0.704  -2.912  0.00  0.00    -0.270 OA
ATOM     17  N   UNL     1       2.901  -1.798  -1.840  0.00  0.00    -0.282 N 
ATOM     18  H   UNL     1       2.344  -1.961  -0.905  0.00  0.00    +0.155 HD
BRANCH  17  19
ATOM     19  C   UNL     1       2.520  -2.468  -3.006  0.00  0.00    +0.034 A 
ATOM     20  C   UNL     1       2.030  -3.765  -2.935  0.00  0.00    +0.023 A 
ATOM     21  C   UNL     1       1.650  -4.423  -4.089  0.00  0.00    +0.002 A 
ATOM     22  C   UNL     1       1.767  -3.794  -5.315  0.00  0.00    +0.000 A 
ATOM     23  C   UNL     1       2.259  -2.504  -5.390  0.00  0.00    +0.002 A 
ATOM     24  C   UNL     1       2.636  -1.839  -4.239  0.00  0.00    +0.023 A 
ENDBRANCH  17  19
ENDBRANCH   4  15
BRANCH   2  25
ATOM     25  C   UNL     1       4.206  -0.788   3.104  0.00  0.00    +0.098 C 
ATOM     26  N   UNL     1       3.952  -1.200   4.131  0.00  0.00    -0.191 NA
ENDBRANCH   2  25
BRANCH   1  27
ATOM     27  S   UNL     1       6.528   1.032   3.087  0.00  0.00    -0.100 S 
BRANCH  27  28
ATOM     28  C   UNL     1       7.741   2.131   2.315  0.00  0.00    +0.171 C 
BRANCH  28  30
ATOM     29  N   UNL     1       9.679   3.497   3.021  0.00  0.00    -0.285 N 
ATOM     30  C   UNL     1       8.685   2.655   3.366  0.00  0.00    +0.227 C 
ATOM     31  O   UNL     1       8.551   2.319   4.524  0.00  0.00    -0.275 OA
ATOM     32  H   UNL     1       9.858   3.730   1.961  0.00  0.00    +0.155 HD
BRANCH  29  38
ATOM     33  C   UNL     1      11.766   4.505   3.700  0.00  0.00    -0.026 A 
ATOM     34  C   UNL     1      12.557   5.074   4.679  0.00  0.00    +0.005 A 
ATOM     35  C   UNL     1      12.072   5.217   5.965  0.00  0.00    +0.000 A 
ATOM     36  C   UNL     1      10.794   4.790   6.277  0.00  0.00    +0.002 A 
ATOM     37  C   UNL     1       9.996   4.224   5.302  0.00  0.00    +0.023 A 
ATOM     38  C   UNL     1      10.483   4.075   4.010  0.00  0.00    +0.037 A 
BRANCH  33  40
ATOM     39  C   UNL     1      11.850   5.542   1.449  0.00  0.00    +0.009 C 
ATOM     40  C   UNL     1      12.296   4.349   2.298  0.00  0.00    +0.033 C 
ENDBRANCH  33  40
ENDBRANCH  29  38
ENDBRANCH  28  30
ENDBRANCH  27  28
ENDBRANCH   1  27
TORSDOF 9
