REMARK  Name = ZINC33959524
REMARK  10 active torsions:
REMARK  status: ('A' for Active; 'I' for Inactive)
REMARK    1  A    between atoms: C_4  and  C_7
REMARK    2  A    between atoms: N_9  and  C_10
REMARK    3  A    between atoms: C_10  and  C_11
REMARK    4  A    between atoms: C_11  and  C_12
REMARK    5  A    between atoms: C_12  and  C_13
REMARK    6  A    between atoms: C_13  and  C_14
REMARK    7  A    between atoms: C_14  and  C_16
REMARK    8  A    between atoms: C_14  and  N_29
REMARK    9  A    between atoms: N_18  and  N_19
REMARK   10  A    between atoms: C_20  and  C_21
REMARK                            x       y       z     vdW  Elec       q    Type
REMARK                         _______ _______ _______ _____ _____    ______ ____
ROOT
ATOM      1  C   UNL     1       7.208  -7.155  -0.036  0.00  0.00    +0.021 C 
ENDROOT
BRANCH   1   2
ATOM      2  N   UNL     1       7.828  -6.880   1.267  0.00  0.00    +0.387 N 
ATOM      3  C   UNL     1       7.844  -5.432   1.504  0.00  0.00    -0.078 C 
ATOM      4  C   UNL     1       8.415  -5.145   2.894  0.00  0.00    -0.019 C 
ATOM      5  C   UNL     1       9.843  -5.693   2.977  0.00  0.00    -0.004 C 
ATOM      6  C   UNL     1       9.823  -7.190   2.655  0.00  0.00    -0.019 C 
ATOM      7  C   UNL     1       9.200  -7.401   1.274  0.00  0.00    -0.078 C 
ATOM      8  H   UNL     1       7.294  -7.332   1.994  0.00  0.00    -0.081 HD
ENDBRANCH   1   2
BRANCH   1   9
ATOM      9  C   UNL     1       7.072  -8.644  -0.224  0.00  0.00    +0.219 C 
ATOM     10  O   UNL     1       7.103  -9.382   0.739  0.00  0.00    -0.276 OA
ATOM     11  N   UNL     1       6.917  -9.156  -1.461  0.00  0.00    -0.208 N 
ATOM     12  H   UNL     1       6.892  -8.566  -2.230  0.00  0.00    +0.177 HD
BRANCH  11  13
ATOM     13  N   UNL     1       6.791 -10.540  -1.635  0.00  0.00    -0.188 NA
ATOM     14  C   UNL     1       6.641 -11.033  -2.826  0.00  0.00    +0.139 C 
BRANCH  14  15
ATOM     15  C   UNL     1       6.508 -12.490  -3.010  0.00  0.00    +0.013 A 
ATOM     16  C   UNL     1       6.352 -13.025  -4.291  0.00  0.00    +0.012 A 
ATOM     17  C   UNL     1       6.229 -14.388  -4.456  0.00  0.00    +0.021 A 
ATOM     18  C   UNL     1       6.259 -15.228  -3.355  0.00  0.00    +0.042 A 
ATOM     19  C   UNL     1       6.413 -14.706  -2.082  0.00  0.00    +0.040 A 
ATOM     20  C   UNL     1       6.543 -13.344  -1.903  0.00  0.00    +0.051 A 
ATOM     21 CL   UNL     1       6.744 -12.691  -0.307  0.00  0.00    -0.083 Cl
ATOM     22 CL   UNL     1       6.103 -16.943  -3.572  0.00  0.00    -0.083 Cl
ENDBRANCH  14  15
ENDBRANCH  11  13
ENDBRANCH   1   9
BRANCH   1  23
ATOM     23  C   UNL     1       5.823  -6.506  -0.089  0.00  0.00    -0.006 C 
BRANCH  23  24
ATOM     24  C   UNL     1       4.966  -7.041   1.060  0.00  0.00    +0.000 C 
BRANCH  24  25
ATOM     25  C   UNL     1       3.623  -6.307   1.078  0.00  0.00    +0.019 C 
BRANCH  25  26
ATOM     26  C   UNL     1       2.765  -6.842   2.227  0.00  0.00    +0.104 C 
BRANCH  26  29
ATOM     27  C   UNL     1       0.556  -6.447   3.176  0.00  0.00    +0.244 C 
ATOM     28  O   UNL     1       0.790  -7.306   4.003  0.00  0.00    -0.270 OA
ATOM     29  N   UNL     1       1.479  -6.140   2.244  0.00  0.00    -0.311 N 
ATOM     30  H   UNL     1       1.292  -5.454   1.584  0.00  0.00    +0.149 HD
BRANCH  27  34
ATOM     31  C   UNL     1      -3.171  -4.411   3.226  0.00  0.00    +0.000 A 
ATOM     32  C   UNL     1      -2.908  -5.389   4.169  0.00  0.00    +0.001 A 
ATOM     33  C   UNL     1      -1.700  -6.054   4.158  0.00  0.00    +0.013 A 
ATOM     34  C   UNL     1      -0.741  -5.739   3.193  0.00  0.00    +0.037 A 
ATOM     35  C   UNL     1      -1.013  -4.751   2.245  0.00  0.00    +0.013 A 
ATOM     36  C   UNL     1      -2.226  -4.093   2.267  0.00  0.00    +0.001 A 
ENDBRANCH  27  34
ENDBRANCH  26  29
ENDBRANCH  25  26
ENDBRANCH  24  25
ENDBRANCH  23  24
ENDBRANCH   1  23
TORSDOF 10
