REMARK  Name = ZINC65322130
REMARK  6 active torsions:
REMARK  status: ('A' for Active; 'I' for Inactive)
REMARK    1  A    between atoms: C_1  and  C_2
REMARK    2  A    between atoms: C_4  and  C_12
REMARK    3  A    between atoms: C_18  and  C_20
REMARK    4  A    between atoms: C_20  and  S_21
REMARK    5  A    between atoms: S_21  and  C_22
REMARK    6  A    between atoms: C_26  and  C_28
REMARK                            x       y       z     vdW  Elec       q    Type
REMARK                         _______ _______ _______ _____ _____    ______ ____
ROOT
ATOM      1  C   UNL     1       0.379  -0.285  -2.575  0.00  0.00    +0.079 A 
ATOM      2  C   UNL     1       1.196  -0.730  -3.606  0.00  0.00    +0.076 A 
ATOM      3  S   UNL     1       0.358  -0.230  -4.976  0.00  0.00    -0.060 S 
ATOM      4  C   UNL     1      -1.030   0.543  -4.167  0.00  0.00    +0.165 A 
ATOM      5  N   UNL     1      -0.752   0.356  -2.895  0.00  0.00    -0.225 NA
ATOM      6  N   UNL     1      -2.126   1.176  -4.734  0.00  0.00    -0.264 N 
ATOM      7  C   UNL     1      -2.236   1.262  -6.075  0.00  0.00    +0.229 C 
ATOM      8  O   UNL     1      -1.375   0.787  -6.785  0.00  0.00    -0.275 OA
ATOM      9  H   UNL     1      -2.814   1.557  -4.166  0.00  0.00    +0.157 HD
ENDROOT
BRANCH   1  12
ATOM     10  C   UNL     1       1.782  -2.769  -1.166  0.00  0.00    +0.035 C 
ATOM     11  C   UNL     1       1.898  -1.315  -0.705  0.00  0.00    +0.109 C 
ATOM     12  C   UNL     1       0.728  -0.508  -1.226  0.00  0.00    +0.009 C 
ATOM     13  C   UNL     1       0.068  -0.033  -0.096  0.00  0.00    +0.005 A 
ATOM     14  C   UNL     1      -1.082   0.770   0.069  0.00  0.00    +0.010 A 
ATOM     15  C   UNL     1      -1.509   1.086   1.318  0.00  0.00    +0.001 A 
ATOM     16  C   UNL     1      -0.837   0.636   2.457  0.00  0.00    +0.002 A 
ATOM     17  C   UNL     1       0.273  -0.138   2.373  0.00  0.00    +0.026 A 
ATOM     18  C   UNL     1       0.779  -0.510   1.101  0.00  0.00    +0.043 A 
ATOM     19  N   UNL     1       1.824  -1.241   0.757  0.00  0.00    -0.377 N 
ATOM     20  H   UNL     1       2.443  -1.662   1.373  0.00  0.00    +0.160 HD
ENDBRANCH   1  12
BRANCH   7  21
ATOM     21  C   UNL     1      -3.426   1.950  -6.691  0.00  0.00    +0.173 C 
BRANCH  21  22
ATOM     22  S   UNL     1      -3.284   1.902  -8.499  0.00  0.00    -0.079 S 
BRANCH  22  23
ATOM     23  C   UNL     1      -4.731   2.734  -9.063  0.00  0.00    +0.167 A 
ATOM     24  H   UNL     1      -4.560   2.673 -11.145  0.00  0.00    +0.168 HD
ATOM     25  N   UNL     1      -5.662   3.256  -8.297  0.00  0.00    -0.230 NA
ATOM     26  C   UNL     1      -6.614   3.809  -9.059  0.00  0.00    +0.139 A 
ATOM     27  C   UNL     1      -6.272   3.630 -10.362  0.00  0.00    +0.067 A 
ATOM     28  N   UNL     1      -5.067   2.948 -10.365  0.00  0.00    -0.333 N 
BRANCH  27  29
ATOM     29  C   UNL     1      -7.034   4.080 -11.545  0.00  0.00    -0.000 A 
ATOM     30  C   UNL     1      -6.556   3.816 -12.830  0.00  0.00    +0.010 A 
ATOM     31  C   UNL     1      -7.273   4.238 -13.930  0.00  0.00    +0.001 A 
ATOM     32  C   UNL     1      -8.464   4.922 -13.762  0.00  0.00    +0.000 A 
ATOM     33  C   UNL     1      -8.944   5.187 -12.492  0.00  0.00    +0.001 A 
ATOM     34  C   UNL     1      -8.240   4.766 -11.383  0.00  0.00    +0.010 A 
ENDBRANCH  27  29
ENDBRANCH  22  23
ENDBRANCH  21  22
ENDBRANCH   7  21
TORSDOF 5
