REMARK  Name = ZINC45915889
REMARK  11 active torsions:
REMARK  status: ('A' for Active; 'I' for Inactive)
REMARK    1  A    between atoms: C_1  and  C_2
REMARK    2  A    between atoms: C_2  and  C_3
REMARK    3  A    between atoms: C_3  and  C_5
REMARK    4  A    between atoms: C_3  and  C_6
REMARK    5  A    between atoms: C_11  and  N_12
REMARK    6  A    between atoms: C_13  and  C_15
REMARK    7  A    between atoms: C_15  and  C_17
REMARK    8  A    between atoms: C_15  and  O_18
REMARK    9  A    between atoms: O_18  and  C_19
REMARK   10  A    between atoms: C_19  and  C_21
REMARK   11  A    between atoms: C_23  and  N_29
REMARK                            x       y       z     vdW  Elec       q    Type
REMARK                         _______ _______ _______ _____ _____    ______ ____
ROOT
ATOM      1  C   UNL     1      -4.295  -1.475  -3.963  0.00  0.00    +0.259 C 
ATOM      2  C   UNL     1      -5.307  -0.565  -3.264  0.00  0.00    +0.062 C 
ENDROOT
BRANCH   1   4
ATOM      3  N   UNL     1      -2.825  -1.792  -1.999  0.00  0.00    -0.282 N 
ATOM      4  C   UNL     1      -3.613  -2.347  -2.941  0.00  0.00    +0.258 C 
ATOM      5  O   UNL     1      -3.772  -3.549  -2.967  0.00  0.00    -0.271 OA
ATOM      6  H   UNL     1      -2.743  -0.827  -1.943  0.00  0.00    +0.155 HD
BRANCH   3  12
ATOM      7  C   UNL     1      -0.955  -2.149  -0.514  0.00  0.00    -0.023 A 
ATOM      8  C   UNL     1      -0.270  -2.954   0.376  0.00  0.00    +0.006 A 
ATOM      9  C   UNL     1      -0.748  -4.216   0.677  0.00  0.00    +0.000 A 
ATOM     10  C   UNL     1      -1.912  -4.677   0.089  0.00  0.00    +0.002 A 
ATOM     11  C   UNL     1      -2.601  -3.877  -0.801  0.00  0.00    +0.023 A 
ATOM     12  C   UNL     1      -2.127  -2.607  -1.102  0.00  0.00    +0.037 A 
BRANCH   7  13
ATOM     13  C   UNL     1      -0.434  -0.774  -0.841  0.00  0.00    +0.017 C 
ATOM     14  C   UNL     1      -0.478   0.100   0.414  0.00  0.00    +0.012 C 
BRANCH  13  16
ATOM     15  C   UNL     1       1.497   0.499  -1.788  0.00  0.00    +0.004 C 
ATOM     16  C   UNL     1       1.009  -0.880  -1.339  0.00  0.00    +0.004 C 
ENDBRANCH  13  16
ENDBRANCH   7  13
ENDBRANCH   3  12
ENDBRANCH   1   4
BRANCH   1  17
ATOM     17  O   UNL     1      -4.973  -2.297  -4.915  0.00  0.00    -0.448 OA
BRANCH  17  18
ATOM     18  C   UNL     1      -5.093  -1.812  -6.166  0.00  0.00    +0.360 C 
ATOM     19  O   UNL     1      -4.636  -0.721  -6.441  0.00  0.00    -0.243 OA
BRANCH  18  20
ATOM     20  C   UNL     1      -5.783  -2.608  -7.205  0.00  0.00    +0.169 A 
ATOM     21  C   UNL     1      -5.899  -2.103  -8.497  0.00  0.00    +0.095 A 
ATOM     22  C   UNL     1      -6.552  -2.867  -9.465  0.00  0.00    +0.067 A 
ATOM     23  C   UNL     1      -7.063  -4.110  -9.094  0.00  0.00    +0.100 A 
ATOM     24  C   UNL     1      -6.907  -4.543  -7.787  0.00  0.00    +0.150 A 
ATOM     25  N   UNL     1      -6.281  -3.802  -6.897  0.00  0.00    -0.226 NA
ATOM     26 CL   UNL     1      -7.540  -6.090  -7.318  0.00  0.00    -0.060 Cl
ATOM     27 CL   UNL     1      -7.885  -5.103 -10.256  0.00  0.00    -0.078 Cl
ATOM     28 CL   UNL     1      -5.242  -0.547  -8.898  0.00  0.00    -0.079 Cl
BRANCH  22  29
ATOM     29  N   UNL     1      -6.691  -2.399 -10.770  0.00  0.00    -0.356 N 
ATOM     30  H   UNL     1      -6.331  -1.532 -11.015  0.00  0.00    +0.142 HD
ATOM     31  H   UNL     1      -7.147  -2.940 -11.434  0.00  0.00    +0.142 HD
ENDBRANCH  22  29
ENDBRANCH  18  20
ENDBRANCH  17  18
ENDBRANCH   1  17
TORSDOF 8
