REMARK  Name = ZINC11997909
REMARK  10 active torsions:
REMARK  status: ('A' for Active; 'I' for Inactive)
REMARK    1  A    between atoms: C_1  and  C_2
REMARK    2  A    between atoms: C_2  and  C_3
REMARK    3  A    between atoms: C_2  and  C_4
REMARK    4  A    between atoms: C_4  and  N_5
REMARK    5  A    between atoms: C_8  and  C_12
REMARK    6  A    between atoms: C_8  and  C_20
REMARK    7  A    between atoms: C_12  and  C_13
REMARK    8  A    between atoms: C_25  and  C_26
REMARK    9  A    between atoms: C_25  and  N_65
REMARK   10  A    between atoms: C_29  and  O_33
REMARK                            x       y       z     vdW  Elec       q    Type
REMARK                         _______ _______ _______ _____ _____    ______ ____
ROOT
ATOM      1  N   UNL     1       2.171   0.463  -2.465  0.00  0.00    -0.224 N 
ATOM      2  C   UNL     1       1.442   1.596  -2.433  0.00  0.00    +0.247 C 
ATOM      3  O   UNL     1       1.858   2.733  -2.371  0.00  0.00    -0.273 OA
ATOM      4  C   UNL     1      -0.007   1.154  -2.491  0.00  0.00    +0.119 C 
ATOM      5  N   UNL     1       0.082  -0.315  -2.555  0.00  0.00    -0.284 N 
ATOM      6  C   UNL     1       1.392  -0.623  -2.534  0.00  0.00    +0.309 C 
ATOM      7  O   UNL     1       1.820  -1.759  -2.574  0.00  0.00    -0.252 OA
ATOM      8  H   UNL     1      -0.659  -0.939  -2.602  0.00  0.00    +0.151 HD
ENDROOT
BRANCH   4   9
ATOM      9  C   UNL     1      -0.755   1.594  -1.231  0.00  0.00    +0.018 C 
ATOM     10  C   UNL     1      -0.013   1.086   0.008  0.00  0.00    -0.013 C 
ATOM     11  C   UNL     1      -0.731   1.580   1.266  0.00  0.00    -0.078 C 
ATOM     12  C   UNL     1      -1.519   3.558   0.108  0.00  0.00    -0.078 C 
ATOM     13  C   UNL     1      -0.823   3.123  -1.184  0.00  0.00    -0.013 C 
ATOM     14  N   UNL     1      -0.742   3.058   1.262  0.00  0.00    +0.382 N 
ATOM     15  H   UNL     1       0.224   3.399   1.186  0.00  0.00    -0.081 HD
BRANCH  14  16
ATOM     16  C   UNL     1      -1.329   3.562   2.521  0.00  0.00    -0.043 C 
BRANCH  16  17
ATOM     17  C   UNL     1      -0.401   3.224   3.659  0.00  0.00    -0.062 A 
ATOM     18  C   UNL     1       0.604   4.104   4.015  0.00  0.00    +0.005 A 
ATOM     19  C   UNL     1       1.456   3.797   5.057  0.00  0.00    +0.047 A 
ATOM     20  C   UNL     1       1.304   2.604   5.748  0.00  0.00    +0.135 A 
ATOM     21  C   UNL     1       0.295   1.721   5.389  0.00  0.00    +0.082 A 
ATOM     22  C   UNL     1      -0.559   2.036   4.349  0.00  0.00    +0.025 A 
ATOM     23 CL   UNL     1       0.101   0.226   6.251  0.00  0.00    -0.080 Cl
BRANCH  20  24
ATOM     24  O   UNL     1       2.143   2.300   6.774  0.00  0.00    -0.505 OA
ATOM     25  H   UNL     1       1.836   2.609   7.637  0.00  0.00    +0.292 HD
ENDBRANCH  20  24
ENDBRANCH  16  17
ENDBRANCH  14  16
ENDBRANCH   4   9
BRANCH   1  26
ATOM     26  C   UNL     1       3.635   0.425  -2.429  0.00  0.00    +0.121 C 
BRANCH  26  28
ATOM     27  C   UNL     1       3.652  -0.978  -0.362  0.00  0.00    +0.009 C 
ATOM     28  C   UNL     1       4.107   0.347  -0.976  0.00  0.00    +0.001 C 
ATOM     29  C   UNL     1       5.634   0.433  -0.931  0.00  0.00    +0.009 C 
ENDBRANCH  26  28
ENDBRANCH   1  26
BRANCH   4  30
ATOM     30  C   UNL     1      -0.690   1.710  -3.743  0.00  0.00    +0.070 C 
BRANCH  30  31
ATOM     31  C   UNL     1      -0.009   1.163  -4.971  0.00  0.00    -0.042 A 
ATOM     32  C   UNL     1      -0.450  -0.018  -5.537  0.00  0.00    +0.004 A 
ATOM     33  C   UNL     1       0.174  -0.521  -6.664  0.00  0.00    +0.003 A 
ATOM     34  C   UNL     1       1.238   0.158  -7.226  0.00  0.00    +0.038 A 
ATOM     35  C   UNL     1       1.680   1.342  -6.660  0.00  0.00    +0.124 A 
ATOM     36  C   UNL     1       1.051   1.847  -5.534  0.00  0.00    +0.042 A 
ATOM     37  F   UNL     1       2.721   2.007  -7.209  0.00  0.00    -0.205 F 
ENDBRANCH  30  31
ENDBRANCH   4  30
TORSDOF 8
