REMARK  Name = ZINC32759325
REMARK  8 active torsions:
REMARK  status: ('A' for Active; 'I' for Inactive)
REMARK    1  A    between atoms: C_1  and  C_2
REMARK    2  A    between atoms: C_2  and  O_3
REMARK    3  A    between atoms: O_3  and  C_4
REMARK    4  A    between atoms: C_4  and  C_6
REMARK    5  A    between atoms: C_7  and  C_19
REMARK    6  A    between atoms: C_12  and  C_14
REMARK    7  A    between atoms: C_19  and  N_20
REMARK    8  A    between atoms: C_23  and  C_26
REMARK                            x       y       z     vdW  Elec       q    Type
REMARK                         _______ _______ _______ _____ _____    ______ ____
ROOT
ATOM      1  C   UNL     1      -1.961   0.420  -3.976  0.00  0.00    +0.079 C 
ATOM      2  C   UNL     1      -1.023   1.313  -3.594  0.00  0.00    +0.008 C 
ATOM      3  N   UNL     1      -0.891   2.513  -4.232  0.00  0.00    -0.274 N 
ATOM      4  C   UNL     1      -1.652   2.891  -5.268  0.00  0.00    +0.304 C 
ATOM      5  O   UNL     1      -1.456   3.978  -5.775  0.00  0.00    -0.252 OA
ATOM      6  N   UNL     1      -2.631   2.108  -5.762  0.00  0.00    -0.285 N 
ATOM      7  C   UNL     1      -2.858   0.793  -5.139  0.00  0.00    +0.179 C 
ATOM      8  H   UNL     1      -0.126   3.231  -3.901  0.00  0.00    +0.156 HD
ATOM      9  H   UNL     1      -3.253   2.430  -6.610  0.00  0.00    +0.151 HD
ENDROOT
BRANCH   7  10
ATOM     10  C   UNL     1      -2.698  -0.260  -6.205  0.00  0.00    +0.130 A 
ATOM     11  C   UNL     1      -3.542  -1.283  -6.433  0.00  0.00    +0.047 A 
ATOM     12  C   UNL     1      -3.010  -2.018  -7.517  0.00  0.00    +0.041 A 
ATOM     13  C   UNL     1      -1.873  -1.401  -7.886  0.00  0.00    +0.195 A 
ATOM     14  O   UNL     1      -1.693  -0.333  -7.092  0.00  0.00    -0.466 OA
ENDBRANCH   7  10
BRANCH   1  15
ATOM     15  C   UNL     1      -2.102  -0.821  -3.312  0.00  0.00    +0.339 C 
ATOM     16  O   UNL     1      -1.450  -1.054  -2.312  0.00  0.00    -0.245 OA
BRANCH  15  17
ATOM     17  O   UNL     1      -2.960  -1.747  -3.789  0.00  0.00    -0.462 OA
BRANCH  17  19
ATOM     18  C   UNL     1      -4.066  -3.896  -3.754  0.00  0.00    +0.048 C 
ATOM     19  C   UNL     1      -3.051  -2.978  -3.069  0.00  0.00    +0.229 C 
ENDBRANCH  17  19
ENDBRANCH  15  17
ENDBRANCH   1  15
BRANCH   2  20
ATOM     20  C   UNL     1      -0.110   0.983  -2.442  0.00  0.00    -0.026 C 
BRANCH  20  21
ATOM     21  N   UNL     1      -0.768   1.340  -1.178  0.00  0.00    +0.383 N 
ATOM     22  C   UNL     1      -0.017   0.820  -0.028  0.00  0.00    -0.078 C 
ATOM     23  C   UNL     1      -0.804   1.084   1.258  0.00  0.00    -0.006 C 
ATOM     24  C   UNL     1      -1.030   2.590   1.412  0.00  0.00    +0.072 C 
ATOM     25  C   UNL     1      -1.771   3.116   0.179  0.00  0.00    -0.006 C 
ATOM     26  C   UNL     1      -0.957   2.793  -1.075  0.00  0.00    -0.078 C 
ATOM     27  H   UNL     1      -1.763   0.871  -1.168  0.00  0.00    -0.081 HD
BRANCH  24  28
ATOM     28  C   UNL     1      -1.855   2.853   2.646  0.00  0.00    +0.200 A 
ATOM     29  N   UNL     1      -3.053   2.395   2.849  0.00  0.00    -0.213 NA
ATOM     30  C   UNL     1      -3.488   2.828   4.064  0.00  0.00    +0.110 A 
ATOM     31  C   UNL     1      -4.668   2.649   4.787  0.00  0.00    +0.031 A 
ATOM     32  C   UNL     1      -4.808   3.241   6.023  0.00  0.00    +0.002 A 
ATOM     33  C   UNL     1      -3.784   4.013   6.551  0.00  0.00    +0.004 A 
ATOM     34  C   UNL     1      -2.612   4.198   5.847  0.00  0.00    +0.048 A 
ATOM     35  C   UNL     1      -2.454   3.610   4.602  0.00  0.00    +0.155 A 
ATOM     36  O   UNL     1      -1.459   3.599   3.689  0.00  0.00    -0.439 OA
ENDBRANCH  24  28
ENDBRANCH  20  21
ENDBRANCH   2  20
TORSDOF 7
