REMARK  Name = ZINC04290119
REMARK  8 active torsions:
REMARK  status: ('A' for Active; 'I' for Inactive)
REMARK    1  A    between atoms: C_1  and  C_2
REMARK    2  A    between atoms: C_2  and  C_3
REMARK    3  A    between atoms: C_9  and  C_10
REMARK    4  A    between atoms: C_9  and  N_62
REMARK    5  A    between atoms: C_11  and  O_36
REMARK    6  A    between atoms: C_17  and  C_32
REMARK    7  A    between atoms: C_18  and  O_21
REMARK    8  A    between atoms: O_21  and  C_22
REMARK                            x       y       z     vdW  Elec       q    Type
REMARK                         _______ _______ _______ _____ _____    ______ ____
ROOT
ATOM      1  C   UNL     1       1.620   2.332  -2.173  0.00  0.00    +0.020 A 
ATOM      2  C   UNL     1       2.872   2.008  -1.677  0.00  0.00    +0.122 A 
ATOM      3  C   UNL     1       4.016   2.226  -2.442  0.00  0.00    +0.046 A 
ATOM      4  C   UNL     1       3.918   2.764  -3.694  0.00  0.00    +0.019 A 
ATOM      5  C   UNL     1       2.664   3.096  -4.208  0.00  0.00    +0.068 A 
ATOM      6  C   UNL     1       1.503   2.874  -3.446  0.00  0.00    +0.144 A 
ATOM      7  O   UNL     1       0.297   3.204  -3.950  0.00  0.00    -0.447 OA
ATOM      8  C   UNL     1       0.151   3.734  -5.172  0.00  0.00    +0.254 A 
ATOM      9  C   UNL     1       1.194   3.983  -5.988  0.00  0.00    +0.222 A 
ATOM     10  C   UNL     1       2.515   3.678  -5.553  0.00  0.00    +0.235 A 
ATOM     11  O   UNL     1       3.483   3.890  -6.264  0.00  0.00    -0.283 OA
ENDROOT
BRANCH   8  12
ATOM     12  C   UNL     1      -1.238   4.065  -5.653  0.00  0.00    +0.454 C 
ATOM     13  F   UNL     1      -1.570   3.233  -6.728  0.00  0.00    -0.163 F 
ATOM     14  F   UNL     1      -2.152   3.869  -4.612  0.00  0.00    -0.163 F 
ATOM     15  F   UNL     1      -1.282   5.401  -6.067  0.00  0.00    -0.163 F 
ENDBRANCH   8  12
BRANCH   2  16
ATOM     16  O   UNL     1       2.985   1.473  -0.435  0.00  0.00    -0.506 OA
ATOM     17  H   UNL     1       2.944   0.507  -0.417  0.00  0.00    +0.292 HD
ENDBRANCH   2  16
BRANCH   1  18
ATOM     18  C   UNL     1       0.389   2.092  -1.337  0.00  0.00    -0.035 C 
BRANCH  18  24
ATOM     19  C   UNL     1      -0.962   2.992   0.458  0.00  0.00    -0.068 C 
ATOM     20  C   UNL     1      -1.049   4.116   1.494  0.00  0.00    -0.015 C 
ATOM     21  C   UNL     1      -1.191   5.459   0.772  0.00  0.00    -0.003 C 
ATOM     22  C   UNL     1       0.000   5.651  -0.171  0.00  0.00    -0.019 C 
ATOM     23  C   UNL     1       0.056   4.483  -1.158  0.00  0.00    -0.078 C 
ATOM     24  N   UNL     1       0.218   3.223  -0.402  0.00  0.00    +0.384 N 
ATOM     25  H   UNL     1       1.053   3.295   0.191  0.00  0.00    -0.081 HD
BRANCH  19  27
ATOM     26  C   UNL     1      -2.046   1.368   2.016  0.00  0.00    +0.002 C 
ATOM     27  C   UNL     1      -0.800   1.650   1.175  0.00  0.00    -0.019 C 
ENDBRANCH  19  27
ENDBRANCH  18  24
ENDBRANCH   1  18
BRANCH   9  28
ATOM     28  O   UNL     1       0.986   4.523  -7.220  0.00  0.00    -0.448 OA
BRANCH  28  29
ATOM     29  C   UNL     1       0.787   3.675  -8.263  0.00  0.00    +0.129 A 
ATOM     30  C   UNL     1       0.808   2.294  -8.043  0.00  0.00    +0.047 A 
ATOM     31  C   UNL     1       0.607   1.420  -9.065  0.00  0.00    +0.012 A 
ATOM     32  C   UNL     1       0.386   1.907 -10.365  0.00  0.00    -0.018 A 
ATOM     33  C   UNL     1       0.181   1.032 -11.445  0.00  0.00    +0.008 A 
ATOM     34  C   UNL     1      -0.029   1.537 -12.691  0.00  0.00    +0.001 A 
ATOM     35  C   UNL     1      -0.045   2.913 -12.915  0.00  0.00    +0.001 A 
ATOM     36  C   UNL     1       0.150   3.791 -11.893  0.00  0.00    +0.008 A 
ATOM     37  C   UNL     1       0.370   3.306 -10.592  0.00  0.00    -0.014 A 
ATOM     38  C   UNL     1       0.576   4.182  -9.513  0.00  0.00    +0.054 A 
ENDBRANCH  28  29
ENDBRANCH   9  28
TORSDOF 7
