REMARK  Name = ZINC00684042
REMARK  5 active torsions:
REMARK  status: ('A' for Active; 'I' for Inactive)
REMARK    1  A    between atoms: C_1  and  C_2
REMARK    2  A    between atoms: C_5  and  C_8
REMARK    3  A    between atoms: C_8  and  S_9
REMARK    4  A    between atoms: S_9  and  C_10
REMARK    5  A    between atoms: C_23  and  C_26
REMARK                            x       y       z     vdW  Elec       q    Type
REMARK                         _______ _______ _______ _____ _____    ______ ____
ROOT
ATOM      1  C   UNL     1       2.257  -0.006  -0.016  0.00  0.00    +0.213 A 
ATOM      2  N   UNL     1       2.313   1.322  -0.004  0.00  0.00    -0.184 NA
ATOM      3  C   UNL     1       1.188   2.017   0.002  0.00  0.00    +0.248 A 
ATOM      4  C   UNL     1      -0.041   1.320  -0.010  0.00  0.00    +0.156 A 
ATOM      5  N   UNL     1      -0.027  -0.004  -0.020  0.00  0.00    -0.141 NA
ATOM      6  N   UNL     1       1.092  -0.642  -0.024  0.00  0.00    -0.122 NA
ATOM      7  C   UNL     1      -1.311   2.076  -0.016  0.00  0.00    +0.028 A 
ATOM      8  C   UNL     1      -2.353   1.758   0.846  0.00  0.00    +0.012 A 
ATOM      9  C   UNL     1      -3.530   2.478   0.794  0.00  0.00    +0.001 A 
ATOM     10  C   UNL     1      -3.678   3.514  -0.111  0.00  0.00    +0.002 A 
ATOM     11  C   UNL     1      -2.647   3.847  -0.965  0.00  0.00    +0.024 A 
ATOM     12  C   UNL     1      -1.460   3.141  -0.922  0.00  0.00    +0.039 A 
ATOM     13  N   UNL     1      -0.390   3.464  -1.762  0.00  0.00    -0.305 N 
ATOM     14  C   UNL     1       0.813   4.045  -1.174  0.00  0.00    +0.294 C 
ATOM     15  O   UNL     1       1.196   3.371   0.020  0.00  0.00    -0.449 OA
ATOM     16  H   UNL     1      -0.446   3.305  -2.717  0.00  0.00    +0.150 HD
ENDROOT
BRANCH  14  17
ATOM     17  C   UNL     1       0.551   5.495  -0.858  0.00  0.00    +0.014 A 
ATOM     18  C   UNL     1      -0.224   6.277  -1.700  0.00  0.00    +0.028 A 
ATOM     19  C   UNL     1      -0.446   7.601  -1.375  0.00  0.00    +0.111 A 
ATOM     20  N   UNL     1       0.078   8.125  -0.284  0.00  0.00    -0.263 NA
ATOM     21  C   UNL     1       0.824   7.413   0.537  0.00  0.00    +0.111 A 
ATOM     22  C   UNL     1       1.085   6.080   0.280  0.00  0.00    +0.028 A 
ENDBRANCH  14  17
BRANCH   1  23
ATOM     23  S   UNL     1       3.753  -0.937  -0.024  0.00  0.00    -0.080 S 
BRANCH  23  24
ATOM     24  C   UNL     1       3.078  -2.617  -0.042  0.00  0.00    +0.112 C 
BRANCH  24  29
ATOM     25  C   UNL     1       7.415  -6.435  -0.076  0.00  0.00    +0.044 C 
ATOM     26  C   UNL     1       6.284  -5.439  -0.067  0.00  0.00    -0.050 A 
ATOM     27  C   UNL     1       5.764  -4.994   1.134  0.00  0.00    +0.003 A 
ATOM     28  C   UNL     1       4.727  -4.081   1.142  0.00  0.00    +0.005 A 
ATOM     29  C   UNL     1       4.209  -3.612  -0.051  0.00  0.00    -0.037 A 
ATOM     30  C   UNL     1       4.725  -4.061  -1.252  0.00  0.00    +0.005 A 
ATOM     31  C   UNL     1       5.765  -4.972  -1.260  0.00  0.00    +0.003 A 
ENDBRANCH  24  29
ENDBRANCH  23  24
ENDBRANCH   1  23
TORSDOF 4
