REMARK  Name = ZINC24224222
REMARK  5 active torsions:
REMARK  status: ('A' for Active; 'I' for Inactive)
REMARK    1  A    between atoms: C_1  and  C_2
REMARK    2  A    between atoms: N_11  and  C_12
REMARK    3  A    between atoms: C_12  and  C_13
REMARK    4  A    between atoms: N_18  and  C_19
REMARK    5  A    between atoms: C_24  and  C_25
REMARK                            x       y       z     vdW  Elec       q    Type
REMARK                         _______ _______ _______ _____ _____    ______ ____
ROOT
ATOM      1  C   UNL     1       2.059   0.300   3.429  0.00  0.00    +0.238 C 
ATOM      2  O   UNL     1       1.374  -0.095   4.348  0.00  0.00    -0.274 OA
ATOM      3  N   UNL     1       3.401   0.204   3.499  0.00  0.00    -0.239 N 
ATOM      4  C   UNL     1       3.982  -0.331   4.592  0.00  0.00    +0.310 C 
ATOM      5  O   UNL     1       3.295  -0.726   5.513  0.00  0.00    -0.252 OA
ATOM      6  N   UNL     1       5.324  -0.426   4.663  0.00  0.00    -0.268 N 
ATOM      7  H   UNL     1       4.023   0.561   2.665  0.00  0.00    +0.159 HD
ATOM      8  H   UNL     1       5.949   0.007   3.868  0.00  0.00    +0.156 HD
ENDROOT
BRANCH   6   9
ATOM      9  C   UNL     1       5.921  -1.075   5.743  0.00  0.00    +0.052 A 
ATOM     10  C   UNL     1       5.206  -2.014   6.474  0.00  0.00    +0.024 A 
ATOM     11  C   UNL     1       5.801  -2.659   7.540  0.00  0.00    +0.002 A 
ATOM     12  C   UNL     1       7.108  -2.368   7.895  0.00  0.00    +0.001 A 
ATOM     13  C   UNL     1       7.831  -1.435   7.185  0.00  0.00    +0.021 A 
ATOM     14  C   UNL     1       7.245  -0.778   6.100  0.00  0.00    +0.073 A 
BRANCH  14  15
ATOM     15  C   UNL     1       7.990   0.194   5.357  0.00  0.00    +0.101 C 
ATOM     16  N   UNL     1       8.582   0.964   4.769  0.00  0.00    -0.191 NA
ENDBRANCH  14  15
ENDBRANCH   6   9
BRANCH   1  17
ATOM     17  C   UNL     1       1.409   0.897   2.207  0.00  0.00    +0.201 C 
BRANCH  17  27
ATOM     18  C   UNL     1       0.736   3.102   3.524  0.00  0.00    +0.028 C 
ATOM     19  C   UNL     1      -0.328   2.002   3.496  0.00  0.00    +0.075 C 
ATOM     20  C   UNL     1      -1.697   2.575   3.063  0.00  0.00    +0.059 C 
ATOM     21  C   UNL     1      -1.696   2.353   1.564  0.00  0.00    -0.025 A 
ATOM     22  C   UNL     1      -2.474   2.889   0.559  0.00  0.00    +0.005 A 
ATOM     23  C   UNL     1      -2.256   2.522  -0.757  0.00  0.00    +0.000 A 
ATOM     24  C   UNL     1      -1.255   1.618  -1.063  0.00  0.00    +0.002 A 
ATOM     25  C   UNL     1      -0.476   1.077  -0.062  0.00  0.00    +0.023 A 
ATOM     26  C   UNL     1      -0.692   1.439   1.267  0.00  0.00    +0.034 A 
ATOM     27  N   UNL     1      -0.037   1.018   2.431  0.00  0.00    -0.318 N 
ENDBRANCH  17  27
ENDBRANCH   1  17
TORSDOF 4
