REMARK  Name = ZINC04100231
REMARK  9 active torsions:
REMARK  status: ('A' for Active; 'I' for Inactive)
REMARK    1  A    between atoms: C_4  and  N_7
REMARK    2  A    between atoms: N_10  and  C_11
REMARK    3  A    between atoms: C_11  and  C_12
REMARK    4  A    between atoms: C_12  and  S_13
REMARK    5  A    between atoms: S_13  and  S_14
REMARK    6  A    between atoms: S_14  and  C_15
REMARK    7  A    between atoms: C_15  and  C_16
REMARK    8  A    between atoms: C_16  and  N_17
REMARK    9  A    between atoms: N_20  and  C_21
REMARK                            x       y       z     vdW  Elec       q    Type
REMARK                         _______ _______ _______ _____ _____    ______ ____
ROOT
ATOM      1  S   UNL     1       2.672  -4.431  -0.047  0.00  0.00    -0.092 S 
ENDROOT
BRANCH   1   2
ATOM      2  C   UNL     1       2.647  -2.617  -0.037  0.00  0.00    +0.100 C 
BRANCH   2   3
ATOM      3  C   UNL     1       1.198  -2.127  -0.021  0.00  0.00    +0.117 C 
BRANCH   3   7
ATOM      4  N   UNL     1      -0.016   1.344   0.009  0.00  0.00    -0.297 N 
ATOM      5  C   UNL     1       0.002  -0.004   0.002  0.00  0.00    +0.300 C 
ATOM      6  O   UNL     1      -1.042  -0.626   0.009  0.00  0.00    -0.253 OA
ATOM      7  N   UNL     1       1.178  -0.662  -0.013  0.00  0.00    -0.299 N 
ATOM      8  H   UNL     1       0.817   1.840   0.004  0.00  0.00    +0.151 HD
ATOM      9  H   UNL     1       2.012  -0.166  -0.018  0.00  0.00    +0.150 HD
BRANCH   4  13
ATOM     10  C   UNL     1      -2.947   4.339  -0.788  0.00  0.00    +0.000 C 
ATOM     11  C   UNL     1      -2.434   4.192   0.646  0.00  0.00    +0.002 C 
ATOM     12  C   UNL     1      -1.099   3.445   0.636  0.00  0.00    +0.022 C 
ATOM     13  C   UNL     1      -1.295   2.059   0.019  0.00  0.00    +0.074 C 
ATOM     14  C   UNL     1      -1.808   2.206  -1.414  0.00  0.00    +0.022 C 
ATOM     15  C   UNL     1      -3.143   2.953  -1.404  0.00  0.00    +0.002 C 
ENDBRANCH   4  13
ENDBRANCH   3   7
ENDBRANCH   2   3
ENDBRANCH   1   2
BRANCH   1  16
ATOM     16  S   UNL     1       1.981  -4.926  -1.913  0.00  0.00    -0.092 S 
BRANCH  16  17
ATOM     17  C   UNL     1       3.459  -4.858  -2.961  0.00  0.00    +0.100 C 
BRANCH  17  18
ATOM     18  C   UNL     1       4.390  -6.019  -2.607  0.00  0.00    +0.117 C 
BRANCH  18  19
ATOM     19  N   UNL     1       5.584  -5.964  -3.454  0.00  0.00    -0.299 N 
ATOM     20  C   UNL     1       6.550  -6.894  -3.318  0.00  0.00    +0.300 C 
ATOM     21  O   UNL     1       6.430  -7.779  -2.493  0.00  0.00    -0.253 OA
ATOM     22  N   UNL     1       7.648  -6.843  -4.097  0.00  0.00    -0.297 N 
ATOM     23  H   UNL     1       5.679  -5.258  -4.112  0.00  0.00    +0.150 HD
ATOM     24  H   UNL     1       7.744  -6.137  -4.756  0.00  0.00    +0.151 HD
BRANCH  22  25
ATOM     25  C   UNL     1       8.698  -7.854  -3.950  0.00  0.00    +0.074 C 
ATOM     26  C   UNL     1       9.653  -7.439  -2.829  0.00  0.00    +0.022 C 
ATOM     27  C   UNL     1      10.750  -8.495  -2.675  0.00  0.00    +0.002 C 
ATOM     28  C   UNL     1      11.527  -8.618  -3.988  0.00  0.00    +0.000 C 
ATOM     29  C   UNL     1      10.572  -9.034  -5.109  0.00  0.00    +0.002 C 
ATOM     30  C   UNL     1       9.475  -7.978  -5.263  0.00  0.00    +0.022 C 
ENDBRANCH  22  25
ENDBRANCH  18  19
ENDBRANCH  17  18
ENDBRANCH  16  17
ENDBRANCH   1  16
TORSDOF 9
