REMARK  Name = ZINC63098954
REMARK  7 active torsions:
REMARK  status: ('A' for Active; 'I' for Inactive)
REMARK    1  A    between atoms: C_7  and  C_10
REMARK    2  A    between atoms: C_10  and  C_11
REMARK    3  A    between atoms: C_11  and  C_12
REMARK    4  A    between atoms: N_14  and  C_15
REMARK    5  A    between atoms: C_15  and  C_16
REMARK    6  A    between atoms: C_16  and  C_18
REMARK    7  A    between atoms: C_16  and  C_23
REMARK                            x       y       z     vdW  Elec       q    Type
REMARK                         _______ _______ _______ _____ _____    ______ ____
ROOT
ATOM      1  C   UNL     1      -1.752  -6.557  -2.622  0.00  0.00    +0.117 C 
ENDROOT
BRANCH   1   4
ATOM      2  C   UNL     1      -0.484  -4.830  -1.460  0.00  0.00    +0.213 C 
ATOM      3  O   UNL     1      -0.925  -5.254  -0.412  0.00  0.00    -0.276 OA
ATOM      4  N   UNL     1      -0.837  -5.413  -2.623  0.00  0.00    -0.314 N 
ATOM      5  H   UNL     1      -0.485  -5.075  -3.461  0.00  0.00    +0.149 HD
BRANCH   2   6
ATOM      6  C   UNL     1       0.457  -3.653  -1.462  0.00  0.00    +0.100 C 
BRANCH   6   7
ATOM      7  C   UNL     1       0.691  -3.186  -0.024  0.00  0.00    +0.042 C 
BRANCH   7  14
ATOM      8  C   UNL     1      -0.016   1.348   0.009  0.00  0.00    +0.001 A 
ATOM      9  C   UNL     1       1.166   2.101   0.002  0.00  0.00    +0.002 A 
ATOM     10  C   UNL     1       2.391   1.535  -0.013  0.00  0.00    +0.026 A 
ATOM     11  C   UNL     1       2.529   0.120  -0.022  0.00  0.00    +0.043 A 
ATOM     12  N   UNL     1       3.587  -0.654  -0.037  0.00  0.00    -0.380 N 
ATOM     13  C   UNL     1       3.143  -2.053  -0.041  0.00  0.00    +0.144 C 
ATOM     14  C   UNL     1       1.631  -2.008  -0.025  0.00  0.00    -0.041 C 
ATOM     15  C   UNL     1       1.295  -0.698  -0.014  0.00  0.00    -0.001 A 
ATOM     16  C   UNL     1       0.002  -0.004   0.002  0.00  0.00    +0.010 A 
ATOM     17  H   UNL     1       4.509  -0.353  -0.045  0.00  0.00    +0.160 HD
ENDBRANCH   7  14
ENDBRANCH   6   7
ENDBRANCH   2   6
ENDBRANCH   1   4
BRANCH   1  18
ATOM     18  C   UNL     1      -1.986  -7.025  -4.059  0.00  0.00    +0.071 C 
BRANCH  18  19
ATOM     19  C   UNL     1      -2.827  -8.275  -4.050  0.00  0.00    -0.032 C 
ATOM     20  C   UNL     1      -2.484  -9.490  -4.537  0.00  0.00    -0.000 A 
ATOM     21  C   UNL     1      -1.272  -9.991  -5.196  0.00  0.00    +0.010 A 
ATOM     22  C   UNL     1      -1.222 -11.287  -5.580  0.00  0.00    +0.001 A 
ATOM     23  C   UNL     1      -2.297 -12.161  -5.366  0.00  0.00    +0.002 A 
ATOM     24  C   UNL     1      -3.443 -11.774  -4.767  0.00  0.00    +0.026 A 
ATOM     25  C   UNL     1      -3.604 -10.433  -4.322  0.00  0.00    +0.043 A 
ATOM     26  N   UNL     1      -4.601  -9.826  -3.726  0.00  0.00    -0.380 N 
ATOM     27  C   UNL     1      -4.223  -8.428  -3.489  0.00  0.00    +0.145 C 
ATOM     28  H   UNL     1      -5.446 -10.233  -3.478  0.00  0.00    +0.160 HD
ENDBRANCH  18  19
BRANCH  18  29
ATOM     29  C   UNL     1      -2.700  -5.945  -4.829  0.00  0.00    -0.002 A 
ATOM     30  C   UNL     1      -2.302  -5.285  -5.944  0.00  0.00    +0.012 A 
ATOM     31  C   UNL     1      -3.131  -4.320  -6.485  0.00  0.00    +0.008 A 
ATOM     32  C   UNL     1      -4.318  -4.062  -5.884  0.00  0.00    +0.045 A 
ATOM     33  S   UNL     1      -4.295  -5.206  -4.514  0.00  0.00    -0.101 S 
ENDBRANCH  18  29
ENDBRANCH   1  18
TORSDOF 7
