REMARK  Name = ZINC08789924
REMARK  7 active torsions:
REMARK  status: ('A' for Active; 'I' for Inactive)
REMARK    1  A    between atoms: C_1  and  C_2
REMARK    2  A    between atoms: C_2  and  C_3
REMARK    3  A    between atoms: C_14  and  C_16
REMARK    4  A    between atoms: C_16  and  C_18
REMARK    5  A    between atoms: C_16  and  O_19
REMARK    6  A    between atoms: N_22  and  C_25
REMARK    7  A    between atoms: C_25  and  C_26
REMARK                            x       y       z     vdW  Elec       q    Type
REMARK                         _______ _______ _______ _____ _____    ______ ____
ROOT
ATOM      1  C   UNL     1      -0.439   5.861  -0.003  0.00  0.00    -0.047 A 
ATOM      2  C   UNL     1       0.939   5.745  -0.026  0.00  0.00    +0.005 A 
ATOM      3  C   UNL     1       1.532   4.500  -0.054  0.00  0.00    +0.024 A 
ATOM      4  C   UNL     1       0.748   3.349  -0.057  0.00  0.00    +0.036 A 
ATOM      5  C   UNL     1      -0.638   3.478  -0.033  0.00  0.00    -0.027 A 
ATOM      6  C   UNL     1      -1.226   4.723  -0.007  0.00  0.00    +0.008 A 
ATOM      7  C   UNL     1      -1.181   2.077  -0.047  0.00  0.00    +0.050 C 
ATOM      8  C   UNL     1      -2.083   1.830  -1.261  0.00  0.00    +0.088 C 
ATOM      9  C   UNL     1      -3.529   2.002  -0.717  0.00  0.00    +0.075 C 
ATOM     10  C   UNL     1      -3.350   2.360   0.774  0.00  0.00    -0.028 C 
ATOM     11  C   UNL     1      -4.039   3.216  -1.461  0.00  0.00    +0.224 C 
ATOM     12  O   UNL     1      -5.143   3.700  -1.337  0.00  0.00    -0.275 OA
ATOM     13  N   UNL     1      -3.082   3.671  -2.279  0.00  0.00    -0.237 N 
ATOM     14  C   UNL     1      -1.931   2.961  -2.252  0.00  0.00    +0.225 C 
ATOM     15  O   UNL     1      -0.938   3.188  -2.909  0.00  0.00    -0.275 OA
ATOM     16  C   UNL     1       0.032   1.188  -0.073  0.00  0.00    +0.211 C 
ATOM     17  O   UNL     1       0.041  -0.025  -0.088  0.00  0.00    -0.277 OA
ATOM     18  N   UNL     1       1.107   2.000  -0.082  0.00  0.00    -0.286 N 
ATOM     19  H   UNL     1       2.024   1.684  -0.104  0.00  0.00    +0.155 HD
ATOM     20  N   UNL     1      -2.026   1.830   1.108  0.00  0.00    +0.396 N 
ATOM     21  H   UNL     1      -1.649   2.311   1.933  0.00  0.00    -0.083 HD
ATOM     22  H   UNL     1      -2.084   0.822   1.296  0.00  0.00    -0.083 HD
ENDROOT
BRANCH   1  24
ATOM     23  C   UNL     1      -1.374   7.618   1.476  0.00  0.00    +0.009 C 
ATOM     24  C   UNL     1      -1.082   7.223   0.027  0.00  0.00    +0.032 C 
ENDBRANCH   1  24
BRANCH  10  25
ATOM     25  C   UNL     1      -4.446   1.703   1.615  0.00  0.00    +0.098 C 
ATOM     26  C   UNL     1      -4.249   2.071   3.087  0.00  0.00    +0.036 C 
BRANCH  25  27
ATOM     27  O   UNL     1      -5.725   2.164   1.175  0.00  0.00    -0.394 OA
ATOM     28  H   UNL     1      -5.844   3.121   1.249  0.00  0.00    +0.210 HD
ENDBRANCH  25  27
ENDBRANCH  10  25
BRANCH  13  29
ATOM     29  C   UNL     1      -3.267   4.841  -3.140  0.00  0.00    +0.151 C 
BRANCH  29  30
ATOM     30  C   UNL     1      -3.902   4.414  -4.438  0.00  0.00    -0.026 A 
ATOM     31  C   UNL     1      -3.112   3.942  -5.470  0.00  0.00    +0.009 A 
ATOM     32  C   UNL     1      -3.691   3.543  -6.660  0.00  0.00    +0.050 A 
ATOM     33  C   UNL     1      -5.064   3.628  -6.827  0.00  0.00    +0.166 A 
ATOM     34  C   UNL     1      -5.859   4.109  -5.790  0.00  0.00    +0.167 A 
ATOM     35  C   UNL     1      -5.272   4.502  -4.597  0.00  0.00    +0.054 A 
ATOM     36  O   UNL     1      -7.162   4.095  -6.196  0.00  0.00    -0.453 OA
ATOM     37  C   UNL     1      -7.116   3.986  -7.631  0.00  0.00    +0.466 C 
ATOM     38  O   UNL     1      -5.869   3.312  -7.883  0.00  0.00    -0.453 OA
ENDBRANCH  29  30
ENDBRANCH  13  29
TORSDOF 5
