REMARK  Name = ZINC38751599
REMARK  7 active torsions:
REMARK  status: ('A' for Active; 'I' for Inactive)
REMARK    1  A    between atoms: C_4  and  C_7
REMARK    2  A    between atoms: C_7  and  C_9
REMARK    3  A    between atoms: C_7  and  S_20
REMARK    4  A    between atoms: C_9  and  C_11
REMARK    5  A    between atoms: S_20  and  C_21
REMARK    6  A    between atoms: C_25  and  C_33
REMARK    7  A    between atoms: N_26  and  C_27
REMARK                            x       y       z     vdW  Elec       q    Type
REMARK                         _______ _______ _______ _____ _____    ______ ____
ROOT
ATOM      1  S   UNL     1       3.728  -1.047  -0.661  0.00  0.00    -0.102 S 
ENDROOT
BRANCH   1   2
ATOM      2  C   UNL     1       3.852  -0.496  -2.384  0.00  0.00    +0.242 C 
ATOM      3  N   UNL     1       2.652   0.266  -2.770  0.00  0.00    -0.237 N 
ATOM      4  N   UNL     1       3.092   1.551  -3.107  0.00  0.00    -0.168 NA
ATOM      5  C   UNL     1       4.374   1.662  -2.977  0.00  0.00    +0.153 C 
ATOM      6  N   UNL     1       4.954   0.468  -2.540  0.00  0.00    -0.254 N 
ATOM      7  H   UNL     1       1.738  -0.059  -2.788  0.00  0.00    +0.171 HD
BRANCH   5   8
ATOM      8  C   UNL     1       5.132   2.899  -3.258  0.00  0.00    +0.020 A 
ATOM      9  C   UNL     1       6.532   2.905  -3.235  0.00  0.00    +0.029 A 
ATOM     10  C   UNL     1       7.200   4.082  -3.503  0.00  0.00    +0.083 A 
ATOM     11  N   UNL     1       6.537   5.189  -3.779  0.00  0.00    -0.367 N 
ATOM     12  C   UNL     1       5.218   5.227  -3.812  0.00  0.00    +0.083 A 
ATOM     13  C   UNL     1       4.471   4.095  -3.562  0.00  0.00    +0.029 A 
ATOM     14  H   UNL     1       7.035   6.001  -3.963  0.00  0.00    +0.165 HD
ENDBRANCH   5   8
BRANCH   6  15
ATOM     15  C   UNL     1       6.309   0.234  -2.297  0.00  0.00    +0.038 A 
ATOM     16  C   UNL     1       6.876   0.618  -1.088  0.00  0.00    +0.023 A 
ATOM     17  C   UNL     1       8.217   0.385  -0.851  0.00  0.00    +0.002 A 
ATOM     18  C   UNL     1       8.994  -0.230  -1.815  0.00  0.00    +0.000 A 
ATOM     19  C   UNL     1       8.434  -0.613  -3.019  0.00  0.00    +0.002 A 
ATOM     20  C   UNL     1       7.093  -0.388  -3.261  0.00  0.00    +0.023 A 
ENDBRANCH   6  15
ENDBRANCH   1   2
BRANCH   1  21
ATOM     21  C   UNL     1       3.478   0.487   0.274  0.00  0.00    +0.150 C 
BRANCH  21  25
ATOM     22  C   UNL     1      -0.270   2.222  -0.817  0.00  0.00    +0.000 A 
ATOM     23  C   UNL     1       0.902   2.929  -1.013  0.00  0.00    +0.000 A 
ATOM     24  C   UNL     1       2.115   2.367  -0.660  0.00  0.00    +0.005 A 
ATOM     25  C   UNL     1       2.156   1.099  -0.110  0.00  0.00    -0.027 A 
ATOM     26  C   UNL     1       0.984   0.393   0.087  0.00  0.00    +0.005 A 
ATOM     27  C   UNL     1      -0.229   0.954  -0.268  0.00  0.00    +0.000 A 
ENDBRANCH  21  25
BRANCH  21  28
ATOM     28  C   UNL     1       3.480   0.182   1.750  0.00  0.00    +0.179 C 
ATOM     29  O   UNL     1       3.182  -0.928   2.141  0.00  0.00    -0.291 OA
BRANCH  28  30
ATOM     30  C   UNL     1       3.830   1.187   2.677  0.00  0.00    +0.024 C 
ATOM     31  C   UNL     1       3.887   1.071   4.055  0.00  0.00    +0.006 A 
ATOM     32  C   UNL     1       3.636  -0.003   4.941  0.00  0.00    +0.010 A 
ATOM     33  C   UNL     1       3.772   0.168   6.275  0.00  0.00    +0.001 A 
ATOM     34  C   UNL     1       4.162   1.392   6.841  0.00  0.00    +0.002 A 
ATOM     35  C   UNL     1       4.424   2.479   6.084  0.00  0.00    +0.026 A 
ATOM     36  C   UNL     1       4.300   2.378   4.620  0.00  0.00    +0.043 A 
ATOM     37  N   UNL     1       4.487   3.248   3.670  0.00  0.00    -0.380 N 
ATOM     38  C   UNL     1       4.226   2.615   2.373  0.00  0.00    +0.152 C 
ATOM     39  H   UNL     1       4.761   4.170   3.799  0.00  0.00    +0.160 HD
ENDBRANCH  28  30
ENDBRANCH  21  28
ENDBRANCH   1  21
TORSDOF 7
