REMARK  Name = ZINC29645140
REMARK  11 active torsions:
REMARK  status: ('A' for Active; 'I' for Inactive)
REMARK    1  A    between atoms: C_1  and  O_2
REMARK    2  A    between atoms: O_2  and  C_3
REMARK    3  A    between atoms: C_6  and  C_9
REMARK    4  A    between atoms: C_9  and  C_10
REMARK    5  A    between atoms: C_9  and  N_18
REMARK    6  A    between atoms: C_13  and  O_16
REMARK    7  A    between atoms: O_16  and  C_17
REMARK    8  A    between atoms: N_18  and  C_19
REMARK    9  A    between atoms: C_19  and  C_20
REMARK   10  A    between atoms: N_22  and  C_23
REMARK   11  A    between atoms: C_23  and  C_28
REMARK                            x       y       z     vdW  Elec       q    Type
REMARK                         _______ _______ _______ _____ _____    ______ ____
ROOT
ATOM      1  C   UNL     1      -0.013   1.086   0.008  0.00  0.00    -0.009 C 
ENDROOT
BRANCH   1   5
ATOM      2  C   UNL     1      -2.080   2.502  -3.454  0.00  0.00    +0.120 A 
ATOM      3  C   UNL     1      -2.274   1.201  -3.012  0.00  0.00    +0.046 A 
ATOM      4  C   UNL     1      -1.605   0.746  -1.893  0.00  0.00    +0.006 A 
ATOM      5  C   UNL     1      -0.742   1.585  -1.213  0.00  0.00    -0.057 A 
ATOM      6  C   UNL     1      -0.550   2.884  -1.648  0.00  0.00    +0.006 A 
ATOM      7  C   UNL     1      -1.213   3.342  -2.770  0.00  0.00    +0.046 A 
BRANCH   2   9
ATOM      8  C   UNL     1      -2.488   4.301  -4.952  0.00  0.00    +0.277 C 
ATOM      9  O   UNL     1      -2.736   2.951  -4.555  0.00  0.00    -0.495 OA
ENDBRANCH   2   9
ENDBRANCH   1   5
BRANCH   1  10
ATOM     10  C   UNL     1      -0.718   1.572   1.248  0.00  0.00    -0.057 A 
ATOM     11  C   UNL     1      -0.510   2.862   1.700  0.00  0.00    +0.006 A 
ATOM     12  C   UNL     1      -1.160   3.312   2.833  0.00  0.00    +0.046 A 
ATOM     13  C   UNL     1      -2.013   2.464   3.524  0.00  0.00    +0.120 A 
ATOM     14  C   UNL     1      -2.216   1.168   3.072  0.00  0.00    +0.046 A 
ATOM     15  C   UNL     1      -1.568   0.725   1.935  0.00  0.00    +0.006 A 
BRANCH  13  16
ATOM     16  O   UNL     1      -2.649   2.902   4.642  0.00  0.00    -0.495 OA
ATOM     17  C   UNL     1      -2.393   4.248   5.049  0.00  0.00    +0.277 C 
ENDBRANCH  13  16
ENDBRANCH   1  10
BRANCH   1  18
ATOM     18  N   UNL     1       1.365   1.594  -0.002  0.00  0.00    +0.392 N 
ATOM     19  H   UNL     1       1.731   1.642  -1.039  0.00  0.00    -0.084 HD
ATOM     20  H   UNL     1       1.388   2.601   0.441  0.00  0.00    -0.084 HD
BRANCH  18  21
ATOM     21  C   UNL     1       2.256   0.718   0.771  0.00  0.00    +0.016 C 
BRANCH  21  22
ATOM     22  C   UNL     1       3.657   1.271   0.738  0.00  0.00    +0.197 C 
ATOM     23  O   UNL     1       3.892   2.293   0.129  0.00  0.00    -0.278 OA
ATOM     24  N   UNL     1       4.651   0.628   1.384  0.00  0.00    -0.299 N 
ATOM     25  H   UNL     1       4.438  -0.299   1.935  0.00  0.00    +0.150 HD
BRANCH  24  26
ATOM     26  C   UNL     1       6.013   1.165   1.351  0.00  0.00    +0.121 C 
ATOM     27  C   UNL     1       6.536   1.192  -0.100  0.00  0.00    +0.041 C 
ATOM     28  C   UNL     1       8.035   0.821   0.030  0.00  0.00    +0.003 C 
ATOM     29  C   UNL     1       8.026  -0.252   1.147  0.00  0.00    +0.003 C 
ATOM     30  C   UNL     1       6.960   0.248   2.144  0.00  0.00    +0.041 C 
BRANCH  26  31
ATOM     31  C   UNL     1       6.033   2.523   1.920  0.00  0.00    +0.088 C 
ATOM     32  N   UNL     1       6.049   3.571   2.359  0.00  0.00    -0.194 NA
ENDBRANCH  26  31
ENDBRANCH  24  26
ENDBRANCH  21  22
ENDBRANCH  18  21
ENDBRANCH   1  18
TORSDOF 9
