REMARK  Name = ZINC03516594
REMARK  4 active torsions:
REMARK  status: ('A' for Active; 'I' for Inactive)
REMARK    1  A    between atoms: C_1  and  C_2
REMARK    2  A    between atoms: C_2  and  N_3
REMARK    3  A    between atoms: C_7  and  C_9
REMARK    4  A    between atoms: C_9  and  N_10
REMARK                            x       y       z     vdW  Elec       q    Type
REMARK                         _______ _______ _______ _____ _____    ______ ____
ROOT
ATOM      1  N   UNL     1       1.276   1.887   0.000  0.00  0.00    -0.215 N 
ATOM      2  C   UNL     1      -0.018   1.508   0.010  0.00  0.00    +0.251 C 
ATOM      3  O   UNL     1      -0.994   2.228   0.019  0.00  0.00    -0.272 OA
ATOM      4  C   UNL     1       0.002  -0.004   0.002  0.00  0.00    +0.138 C 
ATOM      5  C   UNL     1      -0.681  -0.535  -1.252  0.00  0.00    +0.040 C 
ATOM      6  C   UNL     1      -2.194  -0.329  -1.106  0.00  0.00    +0.008 C 
ATOM      7  C   UNL     1      -2.706  -1.269  -0.017  0.00  0.00    +0.035 C 
ATOM      8  C   UNL     1      -1.894  -1.118   1.242  0.00  0.00    -0.042 A 
ATOM      9  C   UNL     1      -0.643  -0.538   1.249  0.00  0.00    -0.012 A 
ATOM     10  C   UNL     1       0.059  -0.435   2.443  0.00  0.00    +0.006 A 
ATOM     11  C   UNL     1      -0.486  -0.905   3.620  0.00  0.00    +0.000 A 
ATOM     12  C   UNL     1      -1.741  -1.484   3.613  0.00  0.00    +0.000 A 
ATOM     13  C   UNL     1      -2.441  -1.589   2.428  0.00  0.00    +0.004 A 
ATOM     14  N   UNL     1       1.433  -0.339  -0.014  0.00  0.00    -0.281 N 
ATOM     15  C   UNL     1       2.099   0.831  -0.014  0.00  0.00    +0.310 C 
ATOM     16  O   UNL     1       3.311   0.919  -0.026  0.00  0.00    -0.252 OA
ATOM     17  H   UNL     1       1.821  -1.228  -0.022  0.00  0.00    +0.152 HD
ENDROOT
BRANCH   1  18
ATOM     18  C   UNL     1       1.726   3.281   0.003  0.00  0.00    +0.214 C 
BRANCH  18  23
ATOM     19  N   UNL     1       2.861   6.694   3.193  0.00  0.00    -0.299 N 
ATOM     20  C   UNL     1       2.452   5.434   2.944  0.00  0.00    +0.306 C 
ATOM     21  O   UNL     1       2.219   4.678   3.866  0.00  0.00    -0.252 OA
ATOM     22  N   UNL     1       2.302   5.012   1.673  0.00  0.00    -0.239 N 
ATOM     23  C   UNL     1       1.893   3.752   1.424  0.00  0.00    +0.238 C 
ATOM     24  O   UNL     1       1.660   2.998   2.344  0.00  0.00    -0.274 OA
ATOM     25  H   UNL     1       3.048   7.297   2.457  0.00  0.00    +0.150 HD
ATOM     26  H   UNL     1       2.489   5.616   0.937  0.00  0.00    +0.159 HD
BRANCH  19  28
ATOM     27  C   UNL     1       3.494   8.608   4.577  0.00  0.00    +0.024 C 
ATOM     28  C   UNL     1       3.024   7.152   4.575  0.00  0.00    +0.102 C 
ENDBRANCH  19  28
ENDBRANCH  18  23
ENDBRANCH   1  18
TORSDOF 3
