REMARK  Name = ZINC27439048
REMARK  8 active torsions:
REMARK  status: ('A' for Active; 'I' for Inactive)
REMARK    1  A    between atoms: C_1  and  C_2
REMARK    2  A    between atoms: C_2  and  C_3
REMARK    3  A    between atoms: C_6  and  C_39
REMARK    4  A    between atoms: C_8  and  C_38
REMARK    5  A    between atoms: N_11  and  C_12
REMARK    6  A    between atoms: C_12  and  C_13
REMARK    7  A    between atoms: C_16  and  C_19
REMARK    8  A    between atoms: C_24  and  C_25
REMARK                            x       y       z     vdW  Elec       q    Type
REMARK                         _______ _______ _______ _____ _____    ______ ____
ROOT
ATOM      1  C   UNL     1      -0.248   8.083  -0.315  0.00  0.00    -0.028 A 
ATOM      2  C   UNL     1       0.506   7.479   0.675  0.00  0.00    +0.006 A 
ATOM      3  C   UNL     1       0.562   6.103   0.760  0.00  0.00    +0.009 A 
ATOM      4  C   UNL     1      -0.142   5.321  -0.153  0.00  0.00    -0.018 A 
ATOM      5  C   UNL     1      -0.896   5.934  -1.151  0.00  0.00    +0.009 A 
ATOM      6  C   UNL     1      -0.950   7.312  -1.224  0.00  0.00    +0.006 A 
ENDROOT
BRANCH   4   7
ATOM      7  C   UNL     1      -0.085   3.841  -0.066  0.00  0.00    -0.012 A 
ATOM      8  C   UNL     1       1.143   3.184  -0.117  0.00  0.00    +0.009 A 
ATOM      9  C   UNL     1       1.191   1.808  -0.035  0.00  0.00    +0.001 A 
ATOM     10  C   UNL     1       0.022   1.079   0.096  0.00  0.00    +0.000 A 
ATOM     11  C   UNL     1      -1.200   1.725   0.141  0.00  0.00    +0.007 A 
ATOM     12  C   UNL     1      -1.259   3.102   0.066  0.00  0.00    -0.004 A 
BRANCH  12  13
ATOM     13  C   UNL     1      -2.591   3.805   0.121  0.00  0.00    +0.191 C 
ATOM     14  N   UNL     1      -3.647   2.888  -0.299  0.00  0.00    -0.322 N 
ATOM     15  C   UNL     1      -4.055   1.793   0.458  0.00  0.00    +0.055 A 
ATOM     16  C   UNL     1      -4.725   0.748  -0.178  0.00  0.00    +0.025 A 
ATOM     17  C   UNL     1      -5.174  -0.334   0.549  0.00  0.00    +0.002 A 
ATOM     18  C   UNL     1      -4.962  -0.392   1.915  0.00  0.00    +0.002 A 
ATOM     19  C   UNL     1      -4.291   0.637   2.552  0.00  0.00    +0.030 A 
ATOM     20  C   UNL     1      -3.838   1.719   1.827  0.00  0.00    +0.126 A 
ATOM     21  S   UNL     1      -2.970   3.025   2.643  0.00  0.00    +0.062 S 
ATOM     22  O   UNL     1      -1.648   2.561   2.879  0.00  0.00    -0.153 OA
ATOM     23  O   UNL     1      -3.817   3.500   3.681  0.00  0.00    -0.153 OA
ATOM     24  N   UNL     1      -2.865   4.240   1.505  0.00  0.00    -0.166 NA
ATOM     25  H   UNL     1      -4.163   3.045  -1.258  0.00  0.00    +0.148 HD
ATOM     26  H   UNL     1      -2.822   5.308   1.765  0.00  0.00    +0.150 HD
ENDBRANCH  12  13
ENDBRANCH   4   7
BRANCH   1  27
ATOM     27  C   UNL     1      -0.306   9.586  -0.403  0.00  0.00    +0.160 C 
BRANCH  27  36
ATOM     28  C   UNL     1       0.698  10.253  -2.617  0.00  0.00    +0.112 A 
ATOM     29  N   UNL     1       1.837  10.689  -3.071  0.00  0.00    -0.230 NA
ATOM     30  C   UNL     1       2.717  10.809  -2.044  0.00  0.00    +0.111 A 
ATOM     31  C   UNL     1       4.050  11.222  -1.954  0.00  0.00    -0.020 A 
ATOM     32  C   UNL     1       4.650  11.219  -0.709  0.00  0.00    +0.028 A 
ATOM     33  C   UNL     1       3.924  10.813   0.399  0.00  0.00    +0.041 A 
ATOM     34  N   UNL     1       2.669  10.428   0.293  0.00  0.00    -0.233 NA
ATOM     35  C   UNL     1       2.044  10.416  -0.874  0.00  0.00    +0.161 A 
ATOM     36  N   UNL     1       0.772  10.066  -1.271  0.00  0.00    -0.308 N 
ATOM     37  C   UNL     1       4.583  10.812   1.754  0.00  0.00    +0.065 C 
ATOM     38  C   UNL     1       4.811  11.657  -3.180  0.00  0.00    +0.046 C 
BRANCH  28  40
ATOM     39  C   UNL     1      -1.372  11.266  -3.532  0.00  0.00    +0.012 C 
ATOM     40  C   UNL     1      -0.524   9.995  -3.460  0.00  0.00    +0.071 C 
ENDBRANCH  28  40
ENDBRANCH  27  36
ENDBRANCH   1  27
TORSDOF 5
