REMARK  Name = ZINC16838391
REMARK  10 active torsions:
REMARK  status: ('A' for Active; 'I' for Inactive)
REMARK    1  A    between atoms: C_1  and  C_2
REMARK    2  A    between atoms: C_2  and  C_3
REMARK    3  A    between atoms: C_2  and  C_4
REMARK    4  A    between atoms: C_7  and  N_10
REMARK    5  A    between atoms: C_11  and  C_13
REMARK    6  A    between atoms: N_15  and  C_16
REMARK    7  A    between atoms: C_16  and  C_17
REMARK    8  A    between atoms: C_17  and  C_19
REMARK    9  A    between atoms: C_17  and  N_69
REMARK   10  A    between atoms: N_28  and  C_29
REMARK                            x       y       z     vdW  Elec       q    Type
REMARK                         _______ _______ _______ _____ _____    ______ ____
ROOT
ATOM      1  C   UNL     1       4.641  -2.808   4.975  0.00  0.00    +0.094 C 
ENDROOT
BRANCH   1   4
ATOM      2  C   UNL     1       6.454  -2.655   6.596  0.00  0.00    +0.299 C 
ATOM      3  O   UNL     1       7.214  -3.059   5.741  0.00  0.00    -0.265 OA
ATOM      4  N   UNL     1       5.146  -2.494   6.314  0.00  0.00    -0.309 N 
ATOM      5  H   UNL     1       4.538  -2.171   6.998  0.00  0.00    +0.149 HD
BRANCH   2   7
ATOM      6  N   UNL     1       8.276  -2.497   8.244  0.00  0.00    -0.278 N 
ATOM      7  C   UNL     1       6.968  -2.336   7.962  0.00  0.00    +0.303 C 
ATOM      8  O   UNL     1       6.208  -1.932   8.818  0.00  0.00    -0.265 OA
ATOM      9  H   UNL     1       8.897  -2.744   7.541  0.00  0.00    +0.155 HD
BRANCH   6  13
ATOM     10  C   UNL     1       9.653  -1.934  12.134  0.00  0.00    -0.045 A 
ATOM     11  C   UNL     1       8.384  -2.440  11.917  0.00  0.00    +0.006 A 
ATOM     12  C   UNL     1       7.924  -2.628  10.629  0.00  0.00    +0.023 A 
ATOM     13  C   UNL     1       8.738  -2.308   9.549  0.00  0.00    +0.034 A 
ATOM     14  C   UNL     1      10.014  -1.804   9.770  0.00  0.00    +0.023 A 
ATOM     15  C   UNL     1      10.465  -1.614  11.061  0.00  0.00    +0.006 A 
BRANCH  10  17
ATOM     16  C   UNL     1      11.408  -2.573  13.765  0.00  0.00    +0.012 C 
ATOM     17  C   UNL     1      10.150  -1.730  13.541  0.00  0.00    +0.013 C 
ATOM     18  C   UNL     1      10.483  -0.252  13.756  0.00  0.00    +0.012 C 
ENDBRANCH  10  17
ENDBRANCH   6  13
ENDBRANCH   2   7
ENDBRANCH   1   4
BRANCH   1  19
ATOM     19  C   UNL     1       3.115  -2.700   4.967  0.00  0.00    -0.020 C 
BRANCH  19  20
ATOM     20  C   UNL     1       2.603  -2.922   3.567  0.00  0.00    -0.059 A 
ATOM     21  C   UNL     1       2.595  -4.195   3.026  0.00  0.00    +0.004 A 
ATOM     22  C   UNL     1       2.129  -4.395   1.745  0.00  0.00    +0.023 A 
ATOM     23  C   UNL     1       1.664  -3.320   0.986  0.00  0.00    +0.033 A 
ATOM     24  C   UNL     1       1.670  -2.049   1.534  0.00  0.00    -0.026 A 
ATOM     25  C   UNL     1       2.142  -1.855   2.822  0.00  0.00    +0.007 A 
ATOM     26  C   UNL     1       1.166  -0.848   0.773  0.00  0.00    +0.038 C 
ATOM     27  C   UNL     1       1.057  -1.190  -0.715  0.00  0.00    +0.024 C 
ATOM     28  C   UNL     1       0.338  -2.539  -0.838  0.00  0.00    +0.105 C 
ATOM     29  N   UNL     1       1.213  -3.586  -0.306  0.00  0.00    -0.333 N 
ATOM     30  C   UNL     1       0.562  -4.901  -0.375  0.00  0.00    +0.129 C 
ENDBRANCH  19  20
BRANCH  19  35
ATOM     31  C   UNL     1       2.926  -3.453   7.275  0.00  0.00    -0.078 C 
ATOM     32  C   UNL     1       1.864  -4.242   8.080  0.00  0.00    -0.020 C 
ATOM     33  C   UNL     1       0.578  -4.043   7.245  0.00  0.00    -0.020 C 
ATOM     34  C   UNL     1       1.069  -3.687   5.829  0.00  0.00    -0.078 C 
ATOM     35  N   UNL     1       2.531  -3.725   5.884  0.00  0.00    +0.385 N 
ATOM     36  H   UNL     1       2.865  -4.655   5.604  0.00  0.00    -0.081 HD
ENDBRANCH  19  35
ENDBRANCH   1  19
TORSDOF 7
