REMARK  Name = ZINC57316099
REMARK  10 active torsions:
REMARK  status: ('A' for Active; 'I' for Inactive)
REMARK    1  A    between atoms: C_1  and  C_2
REMARK    2  A    between atoms: C_2  and  C_3
REMARK    3  A    between atoms: C_2  and  C_4
REMARK    4  A    between atoms: C_2  and  C_5
REMARK    5  A    between atoms: C_12  and  N_17
REMARK    6  A    between atoms: C_13  and  C_14
REMARK    7  A    between atoms: C_18  and  C_20
REMARK    8  A    between atoms: C_21  and  C_22
REMARK    9  A    between atoms: C_25  and  C_27
REMARK   10  A    between atoms: C_32  and  N_33
REMARK                            x       y       z     vdW  Elec       q    Type
REMARK                         _______ _______ _______ _____ _____    ______ ____
ROOT
ATOM      1  N   UNL     1       5.250  -0.620  -5.725  0.00  0.00    -0.276 N 
ATOM      2  C   UNL     1       6.538  -0.412  -5.386  0.00  0.00    +0.242 C 
ATOM      3  O   UNL     1       6.827  -0.129  -4.237  0.00  0.00    -0.270 OA
ATOM      4  H   UNL     1       5.020  -0.845  -6.640  0.00  0.00    +0.156 HD
ENDROOT
BRANCH   1  11
ATOM      5  C   UNL     1       0.718  -0.497  -1.257  0.00  0.00    -0.000 C 
ATOM      6  C   UNL     1      -0.017   0.013  -2.499  0.00  0.00    +0.009 C 
ATOM      7  C   UNL     1       0.538  -0.670  -3.751  0.00  0.00    +0.037 C 
ATOM      8  C   UNL     1       2.052  -0.516  -3.760  0.00  0.00    -0.023 A 
ATOM      9  C   UNL     1       2.731  -0.199  -2.636  0.00  0.00    -0.004 A 
ATOM     10  S   UNL     1       4.426  -0.135  -3.140  0.00  0.00    -0.077 S 
ATOM     11  C   UNL     1       4.255  -0.511  -4.768  0.00  0.00    +0.085 A 
ATOM     12  C   UNL     1       2.890  -0.688  -4.933  0.00  0.00    +0.068 A 
ATOM     13  C   UNL     1       2.158   0.038  -1.273  0.00  0.00    +0.046 C 
BRANCH  12  14
ATOM     14  C   UNL     1       2.317  -1.035  -6.237  0.00  0.00    +0.244 C 
ATOM     15  O   UNL     1       1.974  -0.154  -7.004  0.00  0.00    -0.270 OA
ATOM     16  N   UNL     1       2.170  -2.328  -6.587  0.00  0.00    -0.325 N 
ATOM     17  H   UNL     1       2.443  -3.030  -5.975  0.00  0.00    +0.145 HD
ATOM     18  H   UNL     1       1.791  -2.557  -7.449  0.00  0.00    +0.145 HD
ENDBRANCH  12  14
BRANCH   5  20
ATOM     19  C   UNL     1      -0.019   1.526   0.010  0.00  0.00    +0.011 C 
ATOM     20  C   UNL     1       0.002  -0.004   0.002  0.00  0.00    -0.035 C 
ATOM     21  C   UNL     1       0.742  -0.511   1.242  0.00  0.00    +0.011 C 
ATOM     22  C   UNL     1      -1.433  -0.534   0.013  0.00  0.00    +0.011 C 
ENDBRANCH   5  20
ENDBRANCH   1  11
BRANCH   2  23
ATOM     23  C   UNL     1       7.553  -0.522  -6.363  0.00  0.00    +0.071 C 
ATOM     24  C   UNL     1       8.851  -0.313  -6.021  0.00  0.00    +0.051 C 
BRANCH  24  25
ATOM     25  C   UNL     1       9.866  -0.423  -6.998  0.00  0.00    +0.129 A 
ATOM     26  C   UNL     1      11.220  -0.242  -6.787  0.00  0.00    +0.050 A 
ATOM     27  C   UNL     1      11.851  -0.446  -8.017  0.00  0.00    +0.050 A 
ATOM     28  C   UNL     1      10.874  -0.740  -8.926  0.00  0.00    +0.138 A 
ATOM     29  O   UNL     1       9.684  -0.729  -8.300  0.00  0.00    -0.455 OA
BRANCH  28  30
ATOM     30  C   UNL     1      11.090  -1.028 -10.357  0.00  0.00    +0.047 A 
ATOM     31  C   UNL     1      11.872  -0.172 -11.136  0.00  0.00    +0.014 A 
ATOM     32  C   UNL     1      12.070  -0.447 -12.472  0.00  0.00    +0.001 A 
ATOM     33  C   UNL     1      11.495  -1.569 -13.043  0.00  0.00    +0.002 A 
ATOM     34  C   UNL     1      10.719  -2.422 -12.279  0.00  0.00    +0.033 A 
ATOM     35  C   UNL     1      10.518  -2.162 -10.939  0.00  0.00    +0.137 A 
BRANCH  35  36
ATOM     36  N   UNL     1       9.693  -3.080 -10.121  0.00  0.00    +0.057 N 
ATOM     37  O   UNL     1       9.198  -4.061 -10.626  0.00  0.00    -0.126 OA
ATOM     38  O   UNL     1       9.513  -2.848  -8.948  0.00  0.00    -0.126 OA
ENDBRANCH  35  36
ENDBRANCH  28  30
ENDBRANCH  24  25
ENDBRANCH   2  23
TORSDOF 7
