REMARK  Name = ZINC20679860
REMARK  7 active torsions:
REMARK  status: ('A' for Active; 'I' for Inactive)
REMARK    1  A    between atoms: C_1  and  C_2
REMARK    2  A    between atoms: C_6  and  C_35
REMARK    3  A    between atoms: C_7  and  N_8
REMARK    4  A    between atoms: N_8  and  S_9
REMARK    5  A    between atoms: S_9  and  C_12
REMARK    6  A    between atoms: C_25  and  C_28
REMARK    7  A    between atoms: C_31  and  O_34
REMARK                            x       y       z     vdW  Elec       q    Type
REMARK                         _______ _______ _______ _____ _____    ______ ____
ROOT
ATOM      1  C   UNL     1      -0.578  -2.204   0.154  0.00  0.00    +0.109 A 
ATOM      2  C   UNL     1      -1.812  -1.642   0.428  0.00  0.00    +0.030 A 
ATOM      3  C   UNL     1      -1.914  -0.292   0.697  0.00  0.00    +0.025 A 
ATOM      4  C   UNL     1      -0.780   0.511   0.696  0.00  0.00    +0.031 A 
ATOM      5  C   UNL     1       0.466  -0.067   0.431  0.00  0.00    -0.018 A 
ATOM      6  C   UNL     1       0.557  -1.414   0.156  0.00  0.00    +0.034 A 
ATOM      7  C   UNL     1       1.652   0.815   0.481  0.00  0.00    +0.049 C 
ATOM      8  C   UNL     1       2.885   0.518  -0.293  0.00  0.00    -0.023 C 
ATOM      9  C   UNL     1       3.466   1.666  -0.622  0.00  0.00    -0.030 C 
ATOM     10  C   UNL     1       2.629   2.841  -0.112  0.00  0.00    +0.033 C 
ATOM     11  C   UNL     1       1.228   2.218  -0.049  0.00  0.00    +0.029 C 
ATOM     12  C   UNL     1       0.270   2.771   0.991  0.00  0.00    +0.105 C 
ATOM     13  N   UNL     1      -0.911   1.881   0.957  0.00  0.00    -0.336 N 
ATOM     14  H   UNL     1      -1.915   2.292   1.139  0.00  0.00    +0.147 HD
ENDROOT
BRANCH  12  15
ATOM     15  C   UNL     1      -0.129   4.179   0.635  0.00  0.00    -0.027 A 
ATOM     16  C   UNL     1      -1.044   4.403  -0.378  0.00  0.00    +0.009 A 
ATOM     17  C   UNL     1      -1.415   5.693  -0.702  0.00  0.00    +0.046 A 
ATOM     18  C   UNL     1      -0.861   6.766  -0.019  0.00  0.00    +0.117 A 
ATOM     19  C   UNL     1       0.061   6.539   0.993  0.00  0.00    +0.046 A 
ATOM     20  C   UNL     1       0.425   5.247   1.317  0.00  0.00    +0.009 A 
BRANCH  18  21
ATOM     21  O   UNL     1      -1.221   8.036  -0.340  0.00  0.00    -0.507 OA
ATOM     22  H   UNL     1      -0.781   8.886   0.202  0.00  0.00    +0.292 HD
ENDBRANCH  18  21
ENDBRANCH  12  15
BRANCH   1  23
ATOM     23  S   UNL     1      -0.453  -3.926  -0.197  0.00  0.00    +0.072 S 
ATOM     24  O   UNL     1      -1.756  -4.363  -0.555  0.00  0.00    -0.150 OA
ATOM     25  O   UNL     1       0.667  -4.085  -1.057  0.00  0.00    -0.150 OA
BRANCH  23  26
ATOM     26  N   UNL     1      -0.071  -4.689   1.222  0.00  0.00    -0.216 N 
ATOM     27  H   UNL     1       0.903  -5.187   1.335  0.00  0.00    +0.174 HD
BRANCH  26  34
ATOM     28  C   UNL     1       0.403  -2.957   3.429  0.00  0.00    +0.046 C 
ATOM     29  C   UNL     1      -0.794  -3.870   3.375  0.00  0.00    -0.028 A 
ATOM     30  C   UNL     1      -1.704  -3.880   4.414  0.00  0.00    +0.005 A 
ATOM     31  C   UNL     1      -2.800  -4.722   4.367  0.00  0.00    +0.001 A 
ATOM     32  C   UNL     1      -2.992  -5.553   3.279  0.00  0.00    +0.005 A 
ATOM     33  C   UNL     1      -2.089  -5.545   2.234  0.00  0.00    -0.028 A 
ATOM     34  C   UNL     1      -0.987  -4.700   2.277  0.00  0.00    +0.054 A 
ATOM     35  C   UNL     1      -2.298  -6.451   1.048  0.00  0.00    +0.046 C 
ENDBRANCH  26  34
ENDBRANCH  23  26
ENDBRANCH   1  23
TORSDOF 5
