REMARK  Name = ZINC58714948
REMARK  12 active torsions:
REMARK  status: ('A' for Active; 'I' for Inactive)
REMARK    1  A    between atoms: C_1  and  C_2
REMARK    2  A    between atoms: C_2  and  O_3
REMARK    3  A    between atoms: O_3  and  C_4
REMARK    4  A    between atoms: C_11  and  C_13
REMARK    5  A    between atoms: C_13  and  C_15
REMARK    6  A    between atoms: C_13  and  N_16
REMARK    7  A    between atoms: N_19  and  C_20
REMARK    8  A    between atoms: C_20  and  C_21
REMARK    9  A    between atoms: C_21  and  C_23
REMARK   10  A    between atoms: C_21  and  N_28
REMARK   11  A    between atoms: N_28  and  C_29
REMARK   12  A    between atoms: N_28  and  C_30
REMARK                            x       y       z     vdW  Elec       q    Type
REMARK                         _______ _______ _______ _____ _____    ______ ____
ROOT
ATOM      1  N   UNL     1      -6.375  -0.366   0.798  0.00  0.00    -0.290 N 
ATOM      2  C   UNL     1      -7.543  -0.594   1.431  0.00  0.00    +0.300 C 
ATOM      3  O   UNL     1      -8.149  -1.629   1.236  0.00  0.00    -0.253 OA
ATOM      4  N   UNL     1      -8.039   0.327   2.281  0.00  0.00    -0.301 N 
ATOM      5  H   UNL     1      -5.892   0.460   0.954  0.00  0.00    +0.151 HD
ATOM      6  H   UNL     1      -7.555   1.153   2.437  0.00  0.00    +0.150 HD
ENDROOT
BRANCH   1   7
ATOM      7  C   UNL     1      -5.837  -1.367  -0.127  0.00  0.00    +0.137 C 
ATOM      8  C   UNL     1      -6.458  -1.170  -1.511  0.00  0.00    +0.036 C 
BRANCH   7  16
ATOM      9  C   UNL     1      -1.269   0.641  -0.410  0.00  0.00    +0.163 A 
ATOM     10  C   UNL     1       0.014   0.131  -0.485  0.00  0.00    +0.049 A 
ATOM     11  C   UNL     1       0.230  -1.239  -0.501  0.00  0.00    +0.004 A 
ATOM     12  C   UNL     1      -0.835  -2.111  -0.442  0.00  0.00    +0.012 A 
ATOM     13  C   UNL     1      -2.135  -1.611  -0.365  0.00  0.00    +0.024 A 
ATOM     14  C   UNL     1      -2.358  -0.226  -0.343  0.00  0.00    +0.177 A 
ATOM     15  O   UNL     1      -3.691  -0.035  -0.259  0.00  0.00    -0.454 OA
ATOM     16  C   UNL     1      -4.341  -1.211  -0.220  0.00  0.00    +0.126 A 
ATOM     17  C   UNL     1      -3.466  -2.224  -0.288  0.00  0.00    +0.055 A 
BRANCH   9  18
ATOM     18  O   UNL     1      -1.468   1.986  -0.396  0.00  0.00    -0.489 OA
BRANCH  18  20
ATOM     19  C   UNL     1      -0.724   4.285  -0.440  0.00  0.00    +0.048 C 
ATOM     20  C   UNL     1      -0.305   2.814  -0.468  0.00  0.00    +0.226 C 
ENDBRANCH  18  20
ENDBRANCH   9  18
ENDBRANCH   7  16
ENDBRANCH   1   7
BRANCH   4  21
ATOM     21  C   UNL     1      -9.308   0.080   2.970  0.00  0.00    +0.095 C 
BRANCH  21  22
ATOM     22  C   UNL     1      -9.577   1.211   3.965  0.00  0.00    -0.014 C 
BRANCH  22  23
ATOM     23  C   UNL     1      -8.529   1.187   5.048  0.00  0.00    -0.022 A 
ATOM     24  C   UNL     1      -7.422   1.958   5.182  0.00  0.00    +0.009 A 
ATOM     25  C   UNL     1      -6.594   1.758   6.270  0.00  0.00    +0.008 A 
ATOM     26  C   UNL     1      -6.913   0.797   7.171  0.00  0.00    +0.045 A 
ATOM     27  S   UNL     1      -8.428   0.142   6.492  0.00  0.00    -0.103 S 
ENDBRANCH  22  23
BRANCH  22  28
ATOM     28  N   UNL     1     -10.905   1.030   4.565  0.00  0.00    +0.382 N 
ATOM     29  C   UNL     1     -11.135   2.075   5.572  0.00  0.00    -0.096 C 
ATOM     30  C   UNL     1     -11.932   1.125   3.518  0.00  0.00    -0.096 C 
ATOM     31  H   UNL     1     -10.955   0.123   5.004  0.00  0.00    -0.082 HD
ENDBRANCH  22  28
ENDBRANCH  21  22
ENDBRANCH   4  21
TORSDOF 8
