REMARK  Name = ZINC67466471
REMARK  8 active torsions:
REMARK  status: ('A' for Active; 'I' for Inactive)
REMARK    1  A    between atoms: C_1  and  C_2
REMARK    2  A    between atoms: C_2  and  C_3
REMARK    3  A    between atoms: C_2  and  C_4
REMARK    4  A    between atoms: C_4  and  C_6
REMARK    5  A    between atoms: C_4  and  N_20
REMARK    6  A    between atoms: N_8  and  C_9
REMARK    7  A    between atoms: C_9  and  C_10
REMARK    8  A    between atoms: C_10  and  N_11
REMARK                            x       y       z     vdW  Elec       q    Type
REMARK                         _______ _______ _______ _____ _____    ______ ____
ROOT
ATOM      1  C   UNL     1      -2.374  -0.017   0.801  0.00  0.00    +0.234 C 
ATOM      2  O   UNL     1      -3.390   0.526   0.422  0.00  0.00    -0.274 OA
ATOM      3  N   UNL     1      -2.098  -0.086   2.119  0.00  0.00    -0.316 N 
ATOM      4  H   UNL     1      -1.321  -0.578   2.427  0.00  0.00    +0.149 HD
ENDROOT
BRANCH   1   5
ATOM      5  C   UNL     1      -1.420  -0.615  -0.200  0.00  0.00    +0.163 C 
BRANCH   5   6
ATOM      6  N   UNL     1      -2.144  -0.939  -1.431  0.00  0.00    -0.288 N 
ATOM      7  C   UNL     1      -1.679  -1.901  -2.253  0.00  0.00    +0.298 C 
ATOM      8  O   UNL     1      -0.659  -2.499  -1.972  0.00  0.00    -0.253 OA
ATOM      9  N   UNL     1      -2.346  -2.200  -3.386  0.00  0.00    -0.313 N 
ATOM     10  H   UNL     1      -2.958  -0.462  -1.655  0.00  0.00    +0.151 HD
ATOM     11  H   UNL     1      -3.160  -1.723  -3.609  0.00  0.00    +0.146 HD
ATOM     12  H   UNL     1      -2.011  -2.893  -3.977  0.00  0.00    +0.146 HD
ENDBRANCH   5   6
BRANCH   5  14
ATOM     13  C   UNL     1       0.734  -0.264  -1.417  0.00  0.00    +0.009 C 
ATOM     14  C   UNL     1      -0.311   0.392  -0.512  0.00  0.00    +0.012 C 
ATOM     15  C   UNL     1      -0.910   1.608  -1.222  0.00  0.00    +0.009 C 
ENDBRANCH   5  14
ENDBRANCH   1   5
BRANCH   3  16
ATOM     16  C   UNL     1      -2.973   0.583   3.086  0.00  0.00    +0.086 C 
BRANCH  16  17
ATOM     17  C   UNL     1      -2.440   0.350   4.501  0.00  0.00    -0.059 C 
BRANCH  17  18
ATOM     18  N   UNL     1      -3.316   1.020   5.471  0.00  0.00    +0.384 N 
ATOM     19  C   UNL     1      -2.720   0.923   6.810  0.00  0.00    -0.073 C 
ATOM     20  C   UNL     1      -3.452   1.894   7.752  0.00  0.00    +0.024 C 
ATOM     21  C   UNL     1      -4.919   1.698   7.548  0.00  0.00    -0.011 A 
ATOM     22  C   UNL     1      -5.510   1.022   6.523  0.00  0.00    -0.054 A 
ATOM     23  C   UNL     1      -6.901   0.962   6.539  0.00  0.00    +0.009 A 
ATOM     24  C   UNL     1      -7.594   1.561   7.536  0.00  0.00    +0.045 A 
ATOM     25  S   UNL     1      -6.281   2.257   8.530  0.00  0.00    -0.101 S 
ATOM     26  C   UNL     1      -4.640   0.387   5.443  0.00  0.00    -0.042 C 
ATOM     27  H   UNL     1      -3.408   1.993   5.219  0.00  0.00    -0.081 HD
ENDBRANCH  17  18
ENDBRANCH  16  17
ENDBRANCH   3  16
TORSDOF 6
