REMARK  Name = ZINC08723681
REMARK  4 active torsions:
REMARK  status: ('A' for Active; 'I' for Inactive)
REMARK    1  A    between atoms: C_6  and  C_7
REMARK    2  A    between atoms: C_16  and  C_18
REMARK    3  A    between atoms: C_18  and  N_55
REMARK    4  A    between atoms: C_22  and  C_24
REMARK                            x       y       z     vdW  Elec       q    Type
REMARK                         _______ _______ _______ _____ _____    ______ ____
ROOT
ATOM      1  C   UNL     1      -4.567   5.161  -4.988  0.00  0.00    +0.004 A 
ATOM      2  C   UNL     1      -4.684   6.503  -4.847  0.00  0.00    +0.056 A 
ATOM      3  S   UNL     1      -3.429   6.903  -3.647  0.00  0.00    -0.076 S 
ATOM      4  C   UNL     1      -2.782   5.275  -3.365  0.00  0.00    +0.116 A 
ATOM      5  C   UNL     1      -3.554   4.460  -4.208  0.00  0.00    +0.080 A 
ATOM      6  C   UNL     1      -3.238   3.064  -4.180  0.00  0.00    +0.260 A 
ATOM      7  O   UNL     1      -3.854   2.276  -4.877  0.00  0.00    -0.267 OA
ATOM      8  N   UNL     1      -2.247   2.635  -3.377  0.00  0.00    -0.312 N 
ATOM      9  H   UNL     1      -2.025   1.691  -3.357  0.00  0.00    +0.170 HD
ATOM     10  C   UNL     1      -1.554   3.498  -2.590  0.00  0.00    +0.094 A 
ATOM     11  N   UNL     1      -1.820   4.777  -2.593  0.00  0.00    -0.229 NA
ENDROOT
BRANCH   1  17
ATOM     12  C   UNL     1      -4.904   3.536  -6.849  0.00  0.00    +0.011 A 
ATOM     13  C   UNL     1      -5.731   2.844  -7.709  0.00  0.00    +0.039 A 
ATOM     14  C   UNL     1      -7.103   3.033  -7.657  0.00  0.00    +0.123 A 
ATOM     15  C   UNL     1      -7.650   3.914  -6.739  0.00  0.00    +0.039 A 
ATOM     16  C   UNL     1      -6.832   4.607  -5.871  0.00  0.00    +0.011 A 
ATOM     17  C   UNL     1      -5.451   4.419  -5.919  0.00  0.00    -0.016 A 
ATOM     18  F   UNL     1      -7.908   2.358  -8.506  0.00  0.00    -0.205 F 
ENDBRANCH   1  17
BRANCH  10  19
ATOM     19  C   UNL     1      -0.456   2.972  -1.702  0.00  0.00    -0.002 C 
BRANCH  19  24
ATOM     20  C   UNL     1      -0.873   4.809  -0.168  0.00  0.00    -0.077 C 
ATOM     21  C   UNL     1      -0.129   5.275   1.108  0.00  0.00    -0.020 C 
ATOM     22  C   UNL     1       0.811   4.071   1.381  0.00  0.00    -0.013 C 
ATOM     23  C   UNL     1       1.194   3.601  -0.038  0.00  0.00    -0.037 C 
ATOM     24  N   UNL     1       0.157   4.102  -0.955  0.00  0.00    +0.389 N 
ATOM     25  H   UNL     1       0.581   4.755  -1.624  0.00  0.00    -0.080 HD
BRANCH  23  26
ATOM     26  C   UNL     1       1.257   2.096  -0.081  0.00  0.00    -0.057 A 
ATOM     27  C   UNL     1       0.235   1.347   0.473  0.00  0.00    +0.006 A 
ATOM     28  C   UNL     1       0.289  -0.034   0.436  0.00  0.00    +0.049 A 
ATOM     29  C   UNL     1       1.369  -0.671  -0.156  0.00  0.00    +0.162 A 
ATOM     30  C   UNL     1       2.395   0.082  -0.714  0.00  0.00    +0.162 A 
ATOM     31  C   UNL     1       2.335   1.467  -0.673  0.00  0.00    +0.051 A 
ATOM     32  O   UNL     1       3.462  -0.523  -1.304  0.00  0.00    -0.485 OA
ATOM     33  C   UNL     1       3.670  -1.906  -0.995  0.00  0.00    +0.270 C 
ATOM     34  C   UNL     1       2.322  -2.631  -1.108  0.00  0.00    +0.270 C 
ATOM     35  O   UNL     1       1.411  -2.031  -0.180  0.00  0.00    -0.485 OA
ENDBRANCH  23  26
ENDBRANCH  19  24
ENDBRANCH  10  19
TORSDOF 4
