REMARK  Name = ZINC03957851
REMARK  6 active torsions:
REMARK  status: ('A' for Active; 'I' for Inactive)
REMARK    1  A    between atoms: C_4  and  C_7
REMARK    2  A    between atoms: C_9  and  C_22
REMARK    3  A    between atoms: C_9  and  O_28
REMARK    4  A    between atoms: P_10  and  O_21
REMARK    5  A    between atoms: C_12  and  C_14
REMARK    6  A    between atoms: C_12  and  O_20
REMARK                            x       y       z     vdW  Elec       q    Type
REMARK                         _______ _______ _______ _____ _____    ______ ____
ROOT
ATOM      1  C   UNL     1      -0.681   1.634  -0.956  0.00  0.00    +0.026 C 
ATOM      2  C   UNL     1      -0.081   1.111   0.345  0.00  0.00    +0.058 C 
ATOM      3  C   UNL     1      -0.940   1.570   1.532  0.00  0.00    +0.169 C 
ATOM      4  P   UNL     1      -2.630   0.909   1.285  0.00  0.00    +0.272 P 
ATOM      5  O   UNL     1      -2.639  -0.552   1.524  0.00  0.00    -0.284 OA
ATOM      6  C   UNL     1      -3.104   1.260  -0.450  0.00  0.00    +0.169 C 
ATOM      7  C   UNL     1      -1.928   0.847  -1.347  0.00  0.00    +0.058 C 
ENDROOT
BRANCH   1  11
ATOM      8  C   UNL     1       2.220   1.290  -4.073  0.00  0.00    +0.000 A 
ATOM      9  C   UNL     1       1.709   2.530  -3.737  0.00  0.00    +0.000 A 
ATOM     10  C   UNL     1       0.770   2.641  -2.728  0.00  0.00    +0.004 A 
ATOM     11  C   UNL     1       0.342   1.512  -2.055  0.00  0.00    -0.044 A 
ATOM     12  C   UNL     1       0.856   0.273  -2.388  0.00  0.00    +0.004 A 
ATOM     13  C   UNL     1       1.792   0.161  -3.399  0.00  0.00    +0.000 A 
ENDBRANCH   1  11
BRANCH   6  14
ATOM     14  C   UNL     1      -3.381   2.732  -0.616  0.00  0.00    -0.007 A 
ATOM     15  C   UNL     1      -4.589   3.153  -1.139  0.00  0.00    +0.007 A 
ATOM     16  C   UNL     1      -4.845   4.503  -1.288  0.00  0.00    +0.000 A 
ATOM     17  C   UNL     1      -3.889   5.432  -0.921  0.00  0.00    +0.000 A 
ATOM     18  C   UNL     1      -2.679   5.011  -0.403  0.00  0.00    +0.000 A 
ATOM     19  C   UNL     1      -2.425   3.661  -0.250  0.00  0.00    +0.007 A 
ENDBRANCH   6  14
BRANCH   3  20
ATOM     20  C   UNL     1      -0.365   1.031   2.817  0.00  0.00    -0.007 A 
ATOM     21  C   UNL     1      -0.348  -0.331   3.050  0.00  0.00    +0.007 A 
ATOM     22  C   UNL     1       0.182  -0.825   4.227  0.00  0.00    +0.000 A 
ATOM     23  C   UNL     1       0.689   0.044   5.175  0.00  0.00    +0.000 A 
ATOM     24  C   UNL     1       0.667   1.407   4.945  0.00  0.00    +0.000 A 
ATOM     25  C   UNL     1       0.140   1.901   3.766  0.00  0.00    +0.007 A 
ENDBRANCH   3  20
BRANCH   6  26
ATOM     26  O   UNL     1      -4.267   0.505  -0.796  0.00  0.00    -0.374 OA
ATOM     27  H   UNL     1      -4.555   0.624  -1.712  0.00  0.00    +0.211 HD
ENDBRANCH   6  26
BRANCH   4  28
ATOM     28  O   UNL     1      -3.655   1.636   2.291  0.00  0.00    -0.339 OA
ATOM     29  H   UNL     1      -3.459   1.490   3.226  0.00  0.00    +0.218 HD
ENDBRANCH   4  28
BRANCH   3  30
ATOM     30  O   UNL     1      -0.980   2.997   1.579  0.00  0.00    -0.374 OA
ATOM     31  H   UNL     1      -0.112   3.412   1.682  0.00  0.00    +0.211 HD
ENDBRANCH   3  30
TORSDOF 6
