REMARK  Name = ZINC19313135
REMARK  8 active torsions:
REMARK  status: ('A' for Active; 'I' for Inactive)
REMARK    1  A    between atoms: C_4  and  C_7
REMARK    2  A    between atoms: C_8  and  C_9
REMARK    3  A    between atoms: C_9  and  N_10
REMARK    4  A    between atoms: N_13  and  C_16
REMARK    5  A    between atoms: C_16  and  C_17
REMARK    6  A    between atoms: C_17  and  C_19
REMARK    7  A    between atoms: C_17  and  O_35
REMARK    8  A    between atoms: C_19  and  N_20
REMARK                            x       y       z     vdW  Elec       q    Type
REMARK                         _______ _______ _______ _____ _____    ______ ____
ROOT
ATOM      1  C   UNL     1      -0.532   6.030  -2.062  0.00  0.00    +0.148 C 
ENDROOT
BRANCH   1   2
ATOM      2  O   UNL     1      -0.162   5.566  -3.361  0.00  0.00    -0.389 OA
ATOM      3  H   UNL     1      -0.777   5.828  -4.235  0.00  0.00    +0.210 HD
ENDBRANCH   1   2
BRANCH   1   4
ATOM      4  C   UNL     1       0.483   5.528  -1.033  0.00  0.00    +0.117 C 
BRANCH   4   8
ATOM      5  N   UNL     1      -0.018   1.465   0.010  0.00  0.00    +0.384 N 
ATOM      6  C   UNL     1      -0.799   1.987  -1.120  0.00  0.00    -0.063 C 
ATOM      7  C   UNL     1      -0.862   3.514  -1.031  0.00  0.00    +0.066 C 
ATOM      8  N   UNL     1       0.503   4.059  -1.041  0.00  0.00    -0.303 NA
ATOM      9  C   UNL     1       1.284   3.537   0.089  0.00  0.00    +0.066 C 
ATOM     10  C   UNL     1       1.347   2.010   0.000  0.00  0.00    -0.063 C 
ATOM     11  H   UNL     1      -0.507   1.790   0.940  0.00  0.00    -0.081 HD
BRANCH   5  12
ATOM     12  C   UNL     1       0.002  -0.004   0.002  0.00  0.00    -0.051 C 
BRANCH  12  14
ATOM     13  C   UNL     1      -1.947  -1.371  -0.596  0.00  0.00    +0.002 C 
ATOM     14  C   UNL     1      -1.388  -0.527   0.259  0.00  0.00    -0.045 C 
BRANCH  13  18
ATOM     15  C   UNL     1      -5.864  -2.845   0.129  0.00  0.00    +0.000 A 
ATOM     16  C   UNL     1      -5.175  -3.248  -1.000  0.00  0.00    +0.001 A 
ATOM     17  C   UNL     1      -3.902  -2.773  -1.242  0.00  0.00    +0.008 A 
ATOM     18  C   UNL     1      -3.310  -1.884  -0.344  0.00  0.00    -0.025 A 
ATOM     19  C   UNL     1      -4.009  -1.485   0.797  0.00  0.00    +0.008 A 
ATOM     20  C   UNL     1      -5.283  -1.963   1.023  0.00  0.00    +0.001 A 
ENDBRANCH  13  18
ENDBRANCH  12  14
ENDBRANCH   5  12
ENDBRANCH   4   8
ENDBRANCH   1   4
BRANCH   1  21
ATOM     21  C   UNL     1      -0.553   7.560  -2.053  0.00  0.00    +0.155 C 
BRANCH  21  22
ATOM     22  N   UNL     1      -1.607   8.039  -2.950  0.00  0.00    -0.337 N 
ATOM     23  C   UNL     1      -1.436   8.318  -4.295  0.00  0.00    +0.050 A 
ATOM     24  C   UNL     1      -0.328   8.241  -5.133  0.00  0.00    +0.028 A 
ATOM     25  C   UNL     1      -0.443   8.588  -6.462  0.00  0.00    +0.022 A 
ATOM     26  C   UNL     1      -1.657   9.016  -6.977  0.00  0.00    +0.042 A 
ATOM     27  C   UNL     1      -2.768   9.091  -6.163  0.00  0.00    +0.030 A 
ATOM     28  C   UNL     1      -2.664   8.748  -4.818  0.00  0.00    +0.009 A 
ATOM     29  C   UNL     1      -3.625   8.728  -3.699  0.00  0.00    +0.009 A 
ATOM     30  C   UNL     1      -2.917   8.283  -2.574  0.00  0.00    +0.050 A 
ATOM     31  C   UNL     1      -3.578   8.163  -1.355  0.00  0.00    +0.028 A 
ATOM     32  C   UNL     1      -4.916   8.480  -1.262  0.00  0.00    +0.022 A 
ATOM     33  C   UNL     1      -5.616   8.921  -2.377  0.00  0.00    +0.042 A 
ATOM     34  C   UNL     1      -4.977   9.046  -3.592  0.00  0.00    +0.030 A 
ATOM     35 CL   UNL     1      -7.301   9.316  -2.240  0.00  0.00    -0.084 Cl
ATOM     36 CL   UNL     1      -1.782   9.449  -8.654  0.00  0.00    -0.084 Cl
ENDBRANCH  21  22
ENDBRANCH   1  21
TORSDOF 8
