REMARK  Name = ZINC36863826
REMARK  5 active torsions:
REMARK  status: ('A' for Active; 'I' for Inactive)
REMARK    1  A    between atoms: C_1  and  C_2
REMARK    2  A    between atoms: C_2  and  C_3
REMARK    3  A    between atoms: C_3  and  N_4
REMARK    4  A    between atoms: C_6  and  N_23
REMARK    5  A    between atoms: C_8  and  C_9
REMARK                            x       y       z     vdW  Elec       q    Type
REMARK                         _______ _______ _______ _____ _____    ______ ____
ROOT
ATOM      1  C   UNL     1      -1.051  -2.368   2.832  0.00  0.00    +0.263 C 
ATOM      2  O   UNL     1      -1.062  -3.249   3.671  0.00  0.00    -0.268 OA
ATOM      3  N   UNL     1      -0.900  -1.082   3.206  0.00  0.00    -0.293 N 
ATOM      4  C   UNL     1      -1.021   0.006   2.225  0.00  0.00    +0.108 C 
ATOM      5  C   UNL     1       0.232   0.884   2.302  0.00  0.00    +0.019 C 
ATOM      6  C   UNL     1       0.440   1.353   3.744  0.00  0.00    +0.007 C 
ATOM      7  C   UNL     1       0.650   0.131   4.647  0.00  0.00    +0.010 C 
ATOM      8  C   UNL     1      -0.616  -0.736   4.604  0.00  0.00    +0.079 C 
ATOM      9  C   UNL     1      -0.422  -2.003   5.431  0.00  0.00    +0.023 C 
ATOM     10  C   UNL     1       0.774  -2.794   4.899  0.00  0.00    +0.002 C 
ATOM     11  C   UNL     1       2.032  -1.927   4.988  0.00  0.00    +0.000 C 
ATOM     12  C   UNL     1       1.856  -0.659   4.134  0.00  0.00    +0.005 C 
ENDROOT
BRANCH   1  17
ATOM     13  N   UNL     1      -0.849  -3.895   0.819  0.00  0.00    -0.341 N 
ATOM     14  C   UNL     1      -1.151  -3.827  -0.505  0.00  0.00    +0.109 A 
ATOM     15  C   UNL     1      -1.689  -2.608  -0.769  0.00  0.00    +0.043 A 
ATOM     16  C   UNL     1      -1.725  -1.887   0.433  0.00  0.00    +0.055 A 
ATOM     17  C   UNL     1      -1.204  -2.705   1.413  0.00  0.00    +0.106 A 
BRANCH  15  18
ATOM     18  N   UNL     1      -2.131  -2.150  -2.024  0.00  0.00    -0.357 N 
ATOM     19  H   UNL     1      -2.064  -2.726  -2.802  0.00  0.00    +0.142 HD
ATOM     20  H   UNL     1      -2.503  -1.258  -2.112  0.00  0.00    +0.142 HD
ENDBRANCH  15  18
BRANCH  13  21
ATOM     21  C   UNL     1      -0.252  -5.045   1.501  0.00  0.00    +0.122 C 
BRANCH  21  23
ATOM     22  C   UNL     1      -0.733  -7.049   2.913  0.00  0.00    +0.005 C 
ATOM     23  C   UNL     1      -1.359  -5.917   2.096  0.00  0.00    +0.018 C 
ENDBRANCH  21  23
ENDBRANCH  13  21
ENDBRANCH   1  17
TORSDOF 4
