REMARK  Name = ZINC10041752
REMARK  12 active torsions:
REMARK  status: ('A' for Active; 'I' for Inactive)
REMARK    1  A    between atoms: C_1  and  C_2
REMARK    2  A    between atoms: C_5  and  C_8
REMARK    3  A    between atoms: N_10  and  C_11
REMARK    4  A    between atoms: C_11  and  C_13
REMARK    5  A    between atoms: C_11  and  C_16
REMARK    6  A    between atoms: C_13  and  C_14
REMARK    7  A    between atoms: C_13  and  C_15
REMARK    8  A    between atoms: N_18  and  N_19
REMARK    9  A    between atoms: C_20  and  C_21
REMARK   10  A    between atoms: C_26  and  O_27
REMARK   11  A    between atoms: O_27  and  C_28
REMARK   12  A    between atoms: C_28  and  C_29
REMARK                            x       y       z     vdW  Elec       q    Type
REMARK                         _______ _______ _______ _____ _____    ______ ____
ROOT
ATOM      1  C   UNL     1      -2.462   3.417  -1.471  0.00  0.00    +0.253 C 
ATOM      2  O   UNL     1      -1.945   3.861  -2.475  0.00  0.00    -0.272 OA
ATOM      3  N   UNL     1      -2.745   4.238  -0.440  0.00  0.00    -0.205 N 
ATOM      4  H   UNL     1      -3.090   3.873   0.390  0.00  0.00    +0.177 HD
ENDROOT
BRANCH   3   5
ATOM      5  N   UNL     1      -2.541   5.618  -0.567  0.00  0.00    -0.188 NA
ATOM      6  C   UNL     1      -2.703   6.396   0.460  0.00  0.00    +0.142 C 
BRANCH   6   7
ATOM      7  C   UNL     1      -2.916   5.815   1.798  0.00  0.00    +0.038 A 
ATOM      8  C   UNL     1      -2.419   4.544   2.098  0.00  0.00    +0.033 A 
ATOM      9  C   UNL     1      -2.621   4.006   3.353  0.00  0.00    +0.042 A 
ATOM     10  C   UNL     1      -3.315   4.721   4.316  0.00  0.00    +0.023 A 
ATOM     11  C   UNL     1      -3.811   5.979   4.029  0.00  0.00    +0.048 A 
ATOM     12  C   UNL     1      -3.612   6.536   2.777  0.00  0.00    +0.130 A 
ATOM     13 CL   UNL     1      -2.004   2.427   3.726  0.00  0.00    -0.084 Cl
BRANCH  12  14
ATOM     14  O   UNL     1      -4.094   7.775   2.497  0.00  0.00    -0.487 OA
BRANCH  14  15
ATOM     15  C   UNL     1      -4.705   8.491   3.572  0.00  0.00    +0.264 C 
BRANCH  15  16
ATOM     16  C   UNL     1      -5.266   9.791   3.054  0.00  0.00    -0.009 A 
ATOM     17  C   UNL     1      -6.529   9.823   2.493  0.00  0.00    +0.007 A 
ATOM     18  C   UNL     1      -7.045  11.014   2.019  0.00  0.00    +0.002 A 
ATOM     19  C   UNL     1      -6.298  12.175   2.106  0.00  0.00    +0.020 A 
ATOM     20  C   UNL     1      -5.035  12.143   2.667  0.00  0.00    +0.041 A 
ATOM     21  C   UNL     1      -4.521  10.951   3.147  0.00  0.00    +0.027 A 
ATOM     22 CL   UNL     1      -4.097  13.599   2.778  0.00  0.00    -0.084 Cl
ENDBRANCH  15  16
ENDBRANCH  14  15
ENDBRANCH  12  14
ENDBRANCH   6   7
ENDBRANCH   3   5
BRANCH   1  23
ATOM     23  C   UNL     1      -2.788   1.949  -1.376  0.00  0.00    +0.163 C 
BRANCH  23  26
ATOM     24  C   UNL     1      -3.431   0.320  -3.070  0.00  0.00    +0.245 C 
ATOM     25  O   UNL     1      -4.362  -0.009  -2.361  0.00  0.00    -0.270 OA
ATOM     26  N   UNL     1      -2.618   1.325  -2.691  0.00  0.00    -0.300 N 
ATOM     27  H   UNL     1      -1.920   1.637  -3.289  0.00  0.00    +0.150 HD
BRANCH  24  32
ATOM     28  C   UNL     1      -2.495  -2.418  -8.045  0.00  0.00    +0.044 C 
ATOM     29  C   UNL     1      -2.740  -1.701  -6.742  0.00  0.00    -0.050 A 
ATOM     30  C   UNL     1      -3.730  -2.149  -5.885  0.00  0.00    +0.004 A 
ATOM     31  C   UNL     1      -3.959  -1.497  -4.691  0.00  0.00    +0.013 A 
ATOM     32  C   UNL     1      -3.190  -0.384  -4.348  0.00  0.00    +0.037 A 
ATOM     33  C   UNL     1      -2.196   0.065  -5.219  0.00  0.00    +0.013 A 
ATOM     34  C   UNL     1      -1.974  -0.598  -6.408  0.00  0.00    +0.004 A 
ENDBRANCH  24  32
ENDBRANCH  23  26
BRANCH  23  35
ATOM     35  C   UNL     1      -1.847   1.282  -0.370  0.00  0.00    +0.012 C 
ATOM     36  C   UNL     1      -2.264  -0.177  -0.172  0.00  0.00    +0.009 C 
ATOM     37  C   UNL     1      -0.413   1.335  -0.900  0.00  0.00    +0.009 C 
ENDBRANCH  23  35
ENDBRANCH   1  23
TORSDOF 9
