REMARK  Name = ZINC10959919
REMARK  7 active torsions:
REMARK  status: ('A' for Active; 'I' for Inactive)
REMARK    1  A    between atoms: C_12  and  C_18
REMARK    2  A    between atoms: C_13  and  N_17
REMARK    3  A    between atoms: C_18  and  O_20
REMARK    4  A    between atoms: O_20  and  C_21
REMARK    5  A    between atoms: C_21  and  C_22
REMARK    6  A    between atoms: N_24  and  C_25
REMARK    7  A    between atoms: C_25  and  C_26
REMARK                            x       y       z     vdW  Elec       q    Type
REMARK                         _______ _______ _______ _____ _____    ______ ____
ROOT
ATOM      1  C   UNL     1       6.121   2.358   0.844  0.00  0.00    +0.001 A 
ATOM      2  C   UNL     1       5.984   3.734   0.882  0.00  0.00    +0.001 A 
ATOM      3  C   UNL     1       4.739   4.319   0.739  0.00  0.00    +0.012 A 
ATOM      4  C   UNL     1       3.614   3.520   0.553  0.00  0.00    +0.033 A 
ATOM      5  C   UNL     1       3.753   2.121   0.513  0.00  0.00    +0.033 A 
ATOM      6  C   UNL     1       5.014   1.549   0.660  0.00  0.00    +0.012 A 
ATOM      7  C   UNL     1       2.565   1.266   0.316  0.00  0.00    +0.195 C 
ATOM      8  O   UNL     1       2.684   0.057   0.283  0.00  0.00    -0.287 OA
ATOM      9  C   UNL     1       1.229   1.885   0.161  0.00  0.00    +0.035 A 
ATOM     10  C   UNL     1       0.106   1.083  -0.024  0.00  0.00    +0.013 A 
ATOM     11  C   UNL     1      -1.144   1.654  -0.175  0.00  0.00    +0.017 A 
ATOM     12  C   UNL     1      -1.297   3.039  -0.134  0.00  0.00    +0.080 A 
ATOM     13  C   UNL     1      -0.173   3.865   0.053  0.00  0.00    +0.050 A 
ATOM     14  C   UNL     1       1.094   3.284   0.201  0.00  0.00    +0.054 A 
ATOM     15  C   UNL     1       2.280   4.136   0.397  0.00  0.00    +0.196 C 
ATOM     16  O   UNL     1       2.160   5.345   0.431  0.00  0.00    -0.287 OA
ENDROOT
BRANCH  13  17
ATOM     17  N   UNL     1      -0.317   5.236   0.089  0.00  0.00    -0.357 N 
ATOM     18  H   UNL     1       0.386   5.807  -0.257  0.00  0.00    +0.142 HD
ATOM     19  H   UNL     1      -1.122   5.629   0.462  0.00  0.00    +0.142 HD
ENDBRANCH  13  17
BRANCH  12  20
ATOM     20  C   UNL     1      -2.635   3.638  -0.291  0.00  0.00    +0.341 C 
ATOM     21  O   UNL     1      -2.756   4.845  -0.360  0.00  0.00    -0.245 OA
BRANCH  20  22
ATOM     22  O   UNL     1      -3.724   2.848  -0.359  0.00  0.00    -0.452 OA
BRANCH  22  23
ATOM     23  C   UNL     1      -5.009   3.506  -0.514  0.00  0.00    +0.328 C 
BRANCH  23  24
ATOM     24  C   UNL     1      -6.101   2.470  -0.570  0.00  0.00    +0.251 C 
ATOM     25  O   UNL     1      -5.825   1.292  -0.488  0.00  0.00    -0.272 OA
ATOM     26  N   UNL     1      -7.386   2.852  -0.712  0.00  0.00    -0.308 N 
ATOM     27  H   UNL     1      -7.607   3.794  -0.778  0.00  0.00    +0.149 HD
BRANCH  26  28
ATOM     28  C   UNL     1      -8.448   1.844  -0.767  0.00  0.00    +0.139 C 
BRANCH  28  29
ATOM     29  C   UNL     1      -9.781   2.528  -0.927  0.00  0.00    -0.030 A 
ATOM     30  C   UNL     1     -10.510   2.893   0.190  0.00  0.00    +0.006 A 
ATOM     31  C   UNL     1     -11.730   3.525   0.043  0.00  0.00    +0.020 A 
ATOM     32  C   UNL     1     -12.228   3.783  -1.222  0.00  0.00    +0.041 A 
ATOM     33  C   UNL     1     -11.501   3.412  -2.339  0.00  0.00    +0.020 A 
ATOM     34  C   UNL     1     -10.278   2.785  -2.191  0.00  0.00    +0.006 A 
ATOM     35 CL   UNL     1     -13.764   4.571  -1.407  0.00  0.00    -0.084 Cl
ENDBRANCH  28  29
ENDBRANCH  26  28
ENDBRANCH  23  24
ENDBRANCH  22  23
ENDBRANCH  20  22
ENDBRANCH  12  20
TORSDOF 7
