REMARK  Name = ZINC13134768
REMARK  6 active torsions:
REMARK  status: ('A' for Active; 'I' for Inactive)
REMARK    1  A    between atoms: C_7  and  C_13
REMARK    2  A    between atoms: N_15  and  N_16
REMARK    3  A    between atoms: C_17  and  C_18
REMARK    4  A    between atoms: C_21  and  C_23
REMARK    5  A    between atoms: C_26  and  S_29
REMARK    6  A    between atoms: S_29  and  N_32
REMARK                            x       y       z     vdW  Elec       q    Type
REMARK                         _______ _______ _______ _____ _____    ______ ____
ROOT
ATOM      1  C   UNL     1      -0.762   3.542   0.028  0.00  0.00    +0.148 A 
ATOM      2  C   UNL     1       0.615   3.604   0.016  0.00  0.00    +0.051 A 
ATOM      3  C   UNL     1       1.079   2.282   0.004  0.00  0.00    +0.050 A 
ATOM      4  C   UNL     1      -0.018   1.472   0.010  0.00  0.00    +0.136 A 
ATOM      5  O   UNL     1      -1.123   2.242   0.019  0.00  0.00    -0.454 OA
ENDROOT
BRANCH   4   6
ATOM      6  C   UNL     1       0.002  -0.004   0.002  0.00  0.00    +0.017 A 
ATOM      7  C   UNL     1       1.219  -0.689  -0.019  0.00  0.00    +0.013 A 
ATOM      8  C   UNL     1       1.230  -2.068  -0.021  0.00  0.00    +0.029 A 
ATOM      9  C   UNL     1       0.040  -2.773  -0.014  0.00  0.00    +0.109 A 
ATOM     10  C   UNL     1      -1.170  -2.101   0.002  0.00  0.00    +0.029 A 
ATOM     11  C   UNL     1      -1.196  -0.722   0.010  0.00  0.00    +0.013 A 
BRANCH   9  12
ATOM     12  S   UNL     1       0.064  -4.535  -0.023  0.00  0.00    +0.075 S 
ATOM     13  O   UNL     1       1.320  -4.927   0.514  0.00  0.00    -0.150 OA
ATOM     14  O   UNL     1      -1.171  -4.961   0.538  0.00  0.00    -0.150 OA
BRANCH  12  15
ATOM     15  N   UNL     1       0.055  -5.017  -1.607  0.00  0.00    -0.184 N 
ATOM     16  C   UNL     1       1.129  -4.719  -2.427  0.00  0.00    +0.235 A 
ATOM     17  N   UNL     1       2.005  -3.804  -2.038  0.00  0.00    -0.222 NA
ATOM     18  C   UNL     1       3.046  -3.499  -2.796  0.00  0.00    +0.116 A 
ATOM     19  C   UNL     1       3.208  -4.142  -4.013  0.00  0.00    +0.039 A 
ATOM     20  C   UNL     1       2.270  -5.090  -4.391  0.00  0.00    +0.116 A 
ATOM     21  N   UNL     1       1.255  -5.351  -3.585  0.00  0.00    -0.222 NA
ATOM     22  H   UNL     1      -0.703  -5.508  -1.961  0.00  0.00    +0.177 HD
ENDBRANCH  12  15
ENDBRANCH   9  12
ENDBRANCH   4   6
BRANCH   1  24
ATOM     23  N   UNL     1      -2.961   4.493   0.055  0.00  0.00    -0.184 NA
ATOM     24  C   UNL     1      -1.674   4.686   0.044  0.00  0.00    +0.176 C 
BRANCH  23  27
ATOM     25  C   UNL     1      -5.167   5.389   0.081  0.00  0.00    +0.284 C 
ATOM     26  O   UNL     1      -5.612   4.257   0.079  0.00  0.00    -0.267 OA
ATOM     27  N   UNL     1      -3.834   5.589   0.070  0.00  0.00    -0.202 N 
ATOM     28  H   UNL     1      -3.479   6.492   0.071  0.00  0.00    +0.178 HD
BRANCH  25  35
ATOM     29  C   UNL     1      -9.498   4.957   0.120  0.00  0.00    +0.001 A 
ATOM     30  C   UNL     1     -10.305   6.087   0.135  0.00  0.00    +0.001 A 
ATOM     31  C   UNL     1      -9.750   7.349   0.137  0.00  0.00    +0.014 A 
ATOM     32  C   UNL     1      -8.365   7.485   0.124  0.00  0.00    +0.050 A 
ATOM     33  C   UNL     1      -7.543   6.335   0.103  0.00  0.00    +0.020 A 
ATOM     34  C   UNL     1      -8.123   5.071   0.107  0.00  0.00    +0.011 A 
ATOM     35  C   UNL     1      -6.086   6.543   0.097  0.00  0.00    +0.155 A 
ATOM     36  N   UNL     1      -5.615   7.767   0.099  0.00  0.00    -0.166 NA
ATOM     37  N   UNL     1      -6.343   8.819   0.112  0.00  0.00    -0.242 N 
ATOM     38  H   UNL     1      -5.901   9.682   0.113  0.00  0.00    +0.192 HD
ATOM     39  C   UNL     1      -7.691   8.791   0.126  0.00  0.00    +0.272 A 
ATOM     40  O   UNL     1      -8.335   9.824   0.138  0.00  0.00    -0.266 OA
ENDBRANCH  25  35
ENDBRANCH  23  27
ENDBRANCH   1  24
TORSDOF 6
