REMARK  Name = ZINC17108470
REMARK  14 active torsions:
REMARK  status: ('A' for Active; 'I' for Inactive)
REMARK    1  A    between atoms: C_1  and  C_2
REMARK    2  A    between atoms: C_2  and  N_3
REMARK    3  A    between atoms: N_3  and  C_4
REMARK    4  A    between atoms: N_3  and  C_6
REMARK    5  A    between atoms: C_4  and  C_5
REMARK    6  A    between atoms: C_6  and  C_7
REMARK    7  A    between atoms: C_8  and  C_35
REMARK    8  A    between atoms: N_10  and  N_11
REMARK    9  A    between atoms: N_11  and  C_12
REMARK   10  A    between atoms: C_22  and  O_27
REMARK   11  A    between atoms: C_25  and  N_26
REMARK   12  A    between atoms: O_27  and  C_28
REMARK   13  A    between atoms: C_28  and  C_29
REMARK   14  A    between atoms: C_32  and  C_34
REMARK                            x       y       z     vdW  Elec       q    Type
REMARK                         _______ _______ _______ _____ _____    ______ ____
ROOT
ATOM      1  C   UNL     1       2.649  -2.977   5.552  0.00  0.00    +0.050 A 
ATOM      2  C   UNL     1       1.320  -2.734   5.926  0.00  0.00    +0.025 A 
ATOM      3  C   UNL     1       0.899  -2.922   7.203  0.00  0.00    +0.013 A 
ATOM      4  C   UNL     1       1.807  -3.369   8.179  0.00  0.00    +0.020 A 
ATOM      5  C   UNL     1       3.199  -3.626   7.801  0.00  0.00    +0.050 A 
ATOM      6  C   UNL     1       3.582  -3.421   6.463  0.00  0.00    +0.051 A 
ATOM      7  N   UNL     1       4.074  -4.048   8.711  0.00  0.00    -0.354 N 
ATOM      8  C   UNL     1       3.722  -4.252   9.981  0.00  0.00    +0.049 A 
ATOM      9  C   UNL     1       4.684  -4.701  10.912  0.00  0.00    +0.030 A 
ATOM     10  C   UNL     1       4.330  -4.909  12.206  0.00  0.00    +0.048 A 
ATOM     11  C   UNL     1       3.019  -4.686  12.640  0.00  0.00    +0.121 A 
ATOM     12  C   UNL     1       2.062  -4.251  11.771  0.00  0.00    +0.057 A 
ATOM     13  C   UNL     1       2.394  -4.025  10.424  0.00  0.00    +0.023 A 
ATOM     14  C   UNL     1       1.415  -3.576   9.513  0.00  0.00    +0.043 A 
ATOM     15  H   UNL     1       5.118  -4.238   8.423  0.00  0.00    +0.166 HD
ENDROOT
BRANCH  14  16
ATOM     16  N   UNL     1       0.116  -3.347   9.917  0.00  0.00    -0.357 N 
ATOM     17  H   UNL     1      -0.171  -3.515  10.966  0.00  0.00    +0.142 HD
ATOM     18  H   UNL     1      -0.633  -2.997   9.192  0.00  0.00    +0.142 HD
ENDBRANCH  14  16
BRANCH   1  19
ATOM     19  N   UNL     1       3.032  -2.770   4.230  0.00  0.00    -0.237 N 
ATOM     20  H   UNL     1       4.072  -2.957   3.923  0.00  0.00    +0.174 HD
BRANCH  19  24
ATOM     21  C   UNL     1       2.021  -1.468  -0.133  0.00  0.00    -0.028 C 
ATOM     22  C   UNL     1       1.605  -1.765   1.125  0.00  0.00    -0.015 C 
ATOM     23  C   UNL     1       2.555  -2.062   2.129  0.00  0.00    +0.132 C 
ATOM     24  N   UNL     1       2.168  -2.360   3.364  0.00  0.00    -0.179 NA
ATOM     25  C   UNL     1       3.983  -2.029   1.775  0.00  0.00    +0.209 C 
ATOM     26  O   UNL     1       4.840  -2.276   2.611  0.00  0.00    -0.285 OA
ATOM     27  C   UNL     1       4.340  -1.708   0.453  0.00  0.00    -0.001 C 
ATOM     28  C   UNL     1       3.374  -1.437  -0.466  0.00  0.00    +0.012 C 
ATOM     29  C   UNL     1       5.793  -1.664   0.054  0.00  0.00    +0.048 C 
ATOM     30  C   UNL     1       0.133  -1.783   1.449  0.00  0.00    +0.046 C 
BRANCH  21  31
ATOM     31  C   UNL     1       0.995  -1.157  -1.193  0.00  0.00    +0.119 C 
BRANCH  31  32
ATOM     32  N   UNL     1       0.804   0.296  -1.279  0.00  0.00    -0.299 NA
BRANCH  32  34
ATOM     33  C   UNL     1       0.439   2.331   0.035  0.00  0.00    +0.020 C 
ATOM     34  C   UNL     1       0.202   0.822  -0.046  0.00  0.00    +0.081 C 
ENDBRANCH  32  34
BRANCH  32  35
ATOM     35  C   UNL     1      -0.004   0.653  -2.453  0.00  0.00    +0.081 C 
ATOM     36  C   UNL     1       0.831   0.470  -3.721  0.00  0.00    +0.020 C 
ENDBRANCH  32  35
ENDBRANCH  31  32
ENDBRANCH  21  31
ENDBRANCH  19  24
ENDBRANCH   1  19
BRANCH  11  37
ATOM     37  O   UNL     1       2.696  -4.903  13.943  0.00  0.00    -0.492 OA
BRANCH  37  38
ATOM     38  C   UNL     1       3.742  -5.358  14.804  0.00  0.00    +0.225 C 
ATOM     39  C   UNL     1       3.193  -5.545  16.219  0.00  0.00    +0.048 C 
ENDBRANCH  37  38
ENDBRANCH  11  37
TORSDOF 9
