REMARK  Name = ZINC00526625
REMARK  5 active torsions:
REMARK  status: ('A' for Active; 'I' for Inactive)
REMARK    1  A    between atoms: C_1  and  C_2
REMARK    2  A    between atoms: C_2  and  C_4
REMARK    3  A    between atoms: C_2  and  N_12
REMARK    4  A    between atoms: C_9  and  O_10
REMARK    5  A    between atoms: N_12  and  N_13
REMARK                            x       y       z     vdW  Elec       q    Type
REMARK                         _______ _______ _______ _____ _____    ______ ____
ROOT
ATOM      1  C   UNL     1      -0.019   1.526   0.010  0.00  0.00    +0.034 C 
ATOM      2  C   UNL     1       0.002  -0.004   0.002  0.00  0.00    +0.118 C 
ENDROOT
BRANCH   2   3
ATOM      3  C   UNL     1       0.731  -0.503   1.223  0.00  0.00    +0.017 A 
ATOM      4  C   UNL     1       0.018  -0.951   2.319  0.00  0.00    +0.029 A 
ATOM      5  C   UNL     1       0.687  -1.409   3.440  0.00  0.00    +0.042 A 
ATOM      6  C   UNL     1       2.071  -1.420   3.466  0.00  0.00    +0.023 A 
ATOM      7  C   UNL     1       2.787  -0.974   2.372  0.00  0.00    +0.047 A 
ATOM      8  C   UNL     1       2.118  -0.519   1.245  0.00  0.00    +0.122 A 
ATOM      9 CL   UNL     1      -0.211  -1.970   4.816  0.00  0.00    -0.084 Cl
BRANCH   8  10
ATOM     10  O   UNL     1       2.821  -0.085   0.166  0.00  0.00    -0.506 OA
ATOM     11  H   UNL     1       3.028   0.859   0.185  0.00  0.00    +0.292 HD
ENDBRANCH   8  10
ENDBRANCH   2   3
BRANCH   2  12
ATOM     12  N   UNL     1      -1.376  -0.512   0.012  0.00  0.00    -0.275 N 
ATOM     13  H   UNL     1      -1.426  -1.413   0.464  0.00  0.00    +0.167 HD
BRANCH  12  14
ATOM     14  N   UNL     1      -1.886  -0.571  -1.254  0.00  0.00    -0.240 N 
ATOM     15  C   UNL     1      -1.256  -0.228  -2.403  0.00  0.00    +0.243 A 
ATOM     16  N   UNL     1      -2.094  -0.434  -3.382  0.00  0.00    -0.137 NA
ATOM     17  N   UNL     1      -3.204  -0.883  -2.914  0.00  0.00    -0.137 NA
ATOM     18  C   UNL     1      -3.123  -0.989  -1.616  0.00  0.00    +0.243 A 
ENDBRANCH  12  14
ENDBRANCH   2  12
TORSDOF 4
