REMARK  Name = ZINC12498151
REMARK  10 active torsions:
REMARK  status: ('A' for Active; 'I' for Inactive)
REMARK    1  A    between atoms: C_1  and  C_2
REMARK    2  A    between atoms: C_2  and  C_3
REMARK    3  A    between atoms: C_3  and  C_4
REMARK    4  A    between atoms: C_4  and  C_32
REMARK    5  A    between atoms: C_9  and  C_11
REMARK    6  A    between atoms: N_20  and  C_23
REMARK    7  A    between atoms: C_27  and  C_29
REMARK    8  A    between atoms: C_29  and  C_31
REMARK    9  A    between atoms: C_32  and  O_34
REMARK   10  A    between atoms: O_34  and  C_35
REMARK                            x       y       z     vdW  Elec       q    Type
REMARK                         _______ _______ _______ _____ _____    ______ ____
ROOT
ATOM      1  C   UNL     1       3.184   4.772   0.608  0.00  0.00    +0.044 C 
ATOM      2  C   UNL     1       2.607   4.093   1.783  0.00  0.00    +0.086 C 
ATOM      3  C   UNL     1       1.068   4.112   1.435  0.00  0.00    +0.077 C 
ATOM      4  C   UNL     1       1.155   3.595   0.010  0.00  0.00    -0.024 C 
ATOM      5  C   UNL     1       0.607   3.246   2.564  0.00  0.00    +0.229 C 
ATOM      6  O   UNL     1      -0.312   2.455   2.550  0.00  0.00    -0.275 OA
ATOM      7  N   UNL     1       1.434   3.532   3.614  0.00  0.00    -0.210 N 
ATOM      8  C   UNL     1       2.568   4.203   3.227  0.00  0.00    +0.229 C 
ATOM      9  O   UNL     1       3.365   4.777   3.938  0.00  0.00    -0.275 OA
ATOM     10  N   UNL     1       2.436   4.132  -0.520  0.00  0.00    +0.395 N 
ATOM     11  H   UNL     1       2.994   3.367  -0.917  0.00  0.00    -0.083 HD
ATOM     12  H   UNL     1       2.244   4.829  -1.249  0.00  0.00    -0.083 HD
ENDROOT
BRANCH   4  13
ATOM     13  C   UNL     1       1.173   2.088   0.002  0.00  0.00    -0.025 A 
ATOM     14  C   UNL     1       2.379   1.412  -0.013  0.00  0.00    +0.005 A 
ATOM     15  C   UNL     1       2.396   0.029  -0.020  0.00  0.00    +0.000 A 
ATOM     16  C   UNL     1       1.208  -0.678  -0.013  0.00  0.00    +0.003 A 
ATOM     17  C   UNL     1       0.002  -0.004   0.002  0.00  0.00    +0.038 A 
ATOM     18  C   UNL     1      -0.017   1.381   0.010  0.00  0.00    +0.125 A 
ATOM     19  F   UNL     1      -1.196   2.041   0.019  0.00  0.00    -0.205 F 
ENDBRANCH   4  13
BRANCH   7  20
ATOM     20  C   UNL     1       1.155   3.179   4.942  0.00  0.00    +0.045 A 
ATOM     21  C   UNL     1       2.052   3.509   5.952  0.00  0.00    +0.024 A 
ATOM     22  C   UNL     1       1.783   3.164   7.263  0.00  0.00    +0.003 A 
ATOM     23  C   UNL     1       0.621   2.492   7.580  0.00  0.00    +0.011 A 
ATOM     24  C   UNL     1      -0.289   2.155   6.573  0.00  0.00    +0.019 A 
ATOM     25  C   UNL     1      -0.017   2.509   5.248  0.00  0.00    +0.035 A 
BRANCH  24  26
ATOM     26  C   UNL     1      -1.530   1.438   6.907  0.00  0.00    +0.160 C 
ATOM     27  O   UNL     1      -2.317   1.148   6.031  0.00  0.00    -0.292 OA
ATOM     28  C   UNL     1      -1.822   1.064   8.337  0.00  0.00    +0.091 C 
ENDBRANCH  24  26
ENDBRANCH   7  20
BRANCH   1  29
ATOM     29  C   UNL     1       4.663   4.500   0.504  0.00  0.00    +0.297 C 
ATOM     30  O   UNL     1       5.296   4.214   1.493  0.00  0.00    -0.252 OA
BRANCH  29  31
ATOM     31  O   UNL     1       5.277   4.573  -0.687  0.00  0.00    -0.469 OA
ATOM     32  C   UNL     1       6.702   4.298  -0.712  0.00  0.00    +0.280 C 
ENDBRANCH  29  31
ENDBRANCH   1  29
BRANCH   1  33
ATOM     33  C   UNL     1       2.914   6.277   0.662  0.00  0.00    -0.001 C 
BRANCH  33  35
ATOM     34  C   UNL     1       3.144   8.437  -0.574  0.00  0.00    +0.004 C 
ATOM     35  C   UNL     1       3.415   6.932  -0.627  0.00  0.00    -0.004 C 
ENDBRANCH  33  35
ENDBRANCH   1  33
TORSDOF 7
