REMARK  Name = ZINC10339496
REMARK  2 active torsions:
REMARK  status: ('A' for Active; 'I' for Inactive)
REMARK    1  A    between atoms: C_1  and  C_2
REMARK    2  A    between atoms: C_7  and  C_15
REMARK                            x       y       z     vdW  Elec       q    Type
REMARK                         _______ _______ _______ _____ _____    ______ ____
ROOT
ATOM      1  C   UNL     1       3.618  -4.622   4.678  0.00  0.00    +0.008 C 
ATOM      2  C   UNL     1       2.898  -4.189   3.399  0.00  0.00    -0.001 C 
ATOM      3  C   UNL     1       3.919  -3.674   2.382  0.00  0.00    +0.055 C 
ATOM      4  C   UNL     1       3.203  -3.208   1.136  0.00  0.00    +0.020 C 
ATOM      5  C   UNL     1       1.961  -2.683   1.205  0.00  0.00    +0.041 C 
ATOM      6  C   UNL     1       1.229  -2.185  -0.021  0.00  0.00    +0.175 C 
ATOM      7  N   UNL     1       1.899  -2.652  -1.228  0.00  0.00    -0.221 N 
ATOM      8  C   UNL     1       3.145  -3.189  -1.230  0.00  0.00    +0.218 A 
ATOM      9  N   UNL     1       3.451  -3.493  -2.461  0.00  0.00    -0.201 NA
ATOM     10  C   UNL     1       2.433  -3.174  -3.267  0.00  0.00    +0.247 A 
ATOM     11  N   UNL     1       1.463  -2.659  -2.552  0.00  0.00    -0.156 NA
ATOM     12  N   UNL     1       3.870  -3.338  -0.059  0.00  0.00    -0.287 N 
ATOM     13  C   UNL     1       1.290  -2.580   2.437  0.00  0.00    +0.163 C 
ATOM     14  O   UNL     1       0.176  -2.094   2.467  0.00  0.00    -0.292 OA
ATOM     15  C   UNL     1       1.918  -3.055   3.716  0.00  0.00    +0.083 C 
ATOM     16  H   UNL     1       4.821  -3.528  -0.082  0.00  0.00    +0.155 HD
ENDROOT
BRANCH   6  17
ATOM     17  C   UNL     1       1.208  -0.678  -0.013  0.00  0.00    -0.016 A 
ATOM     18  C   UNL     1       2.396   0.029  -0.020  0.00  0.00    +0.006 A 
ATOM     19  C   UNL     1       2.379   1.412  -0.013  0.00  0.00    +0.003 A 
ATOM     20  C   UNL     1       1.173   2.088   0.002  0.00  0.00    +0.038 A 
ATOM     21  C   UNL     1      -0.017   1.381   0.010  0.00  0.00    +0.124 A 
ATOM     22  C   UNL     1       0.002  -0.004   0.002  0.00  0.00    +0.044 A 
ATOM     23  F   UNL     1      -1.196   2.041   0.019  0.00  0.00    -0.205 F 
ENDBRANCH   6  17
TORSDOF 1
