REMARK  Name = ZINC05846482
REMARK  3 active torsions:
REMARK  status: ('A' for Active; 'I' for Inactive)
REMARK    1  A    between atoms: C_9  and  S_19
REMARK    2  A    between atoms: C_10  and  N_18
REMARK    3  A    between atoms: S_19  and  C_22
REMARK                            x       y       z     vdW  Elec       q    Type
REMARK                         _______ _______ _______ _____ _____    ______ ____
ROOT
ATOM      1  C   UNL     1       1.071   1.921  -1.512  0.00  0.00    +0.002 A 
ATOM      2  C   UNL     1       2.303   1.328  -1.238  0.00  0.00    +0.002 A 
ATOM      3  C   UNL     1       2.381   0.033  -0.828  0.00  0.00    +0.030 A 
ATOM      4  C   UNL     1       1.205  -0.725  -0.676  0.00  0.00    +0.092 A 
ATOM      5  C   UNL     1      -0.048  -0.123  -0.955  0.00  0.00    +0.090 A 
ATOM      6  C   UNL     1      -0.087   1.220  -1.377  0.00  0.00    +0.030 A 
ATOM      7  N   UNL     1      -1.179  -0.821  -0.820  0.00  0.00    -0.240 NA
ATOM      8  C   UNL     1      -1.127  -2.085  -0.421  0.00  0.00    +0.134 A 
ATOM      9  C   UNL     1      -2.313  -2.847  -0.269  0.00  0.00    +0.146 A 
ATOM     10  C   UNL     1      -2.232  -4.141   0.142  0.00  0.00    +0.096 A 
ATOM     11  C   UNL     1      -0.929  -4.749   0.427  0.00  0.00    +0.162 A 
ATOM     12  N   UNL     1      -0.595  -5.963   0.830  0.00  0.00    -0.234 NA
ATOM     13  C   UNL     1       0.732  -6.039   0.949  0.00  0.00    +0.131 A 
ATOM     14  C   UNL     1       1.263  -4.843   0.614  0.00  0.00    +0.114 A 
ATOM     15  N   UNL     1       0.221  -4.021   0.283  0.00  0.00    -0.281 N 
ATOM     16  C   UNL     1       0.168  -2.704  -0.133  0.00  0.00    +0.167 A 
ATOM     17  N   UNL     1       1.272  -2.000  -0.273  0.00  0.00    -0.225 NA
ENDROOT
BRANCH  10  18
ATOM     18  N   UNL     1      -3.392  -4.891   0.293  0.00  0.00    -0.354 N 
ATOM     19  H   UNL     1      -4.259  -4.460   0.234  0.00  0.00    +0.142 HD
ATOM     20  H   UNL     1      -3.334  -5.845   0.457  0.00  0.00    +0.142 HD
ENDBRANCH  10  18
BRANCH   9  21
ATOM     21  S   UNL     1      -3.882  -2.122  -0.610  0.00  0.00    +0.029 S 
ATOM     22  O   UNL     1      -3.625  -0.892  -1.274  0.00  0.00    -0.164 OA
ATOM     23  O   UNL     1      -4.686  -3.144  -1.183  0.00  0.00    -0.164 OA
BRANCH  21  24
ATOM     24  C   UNL     1      -4.616  -1.714   0.939  0.00  0.00    +0.094 A 
ATOM     25  C   UNL     1      -5.418  -2.634   1.587  0.00  0.00    +0.029 A 
ATOM     26  C   UNL     1      -5.989  -2.317   2.805  0.00  0.00    +0.022 A 
ATOM     27  C   UNL     1      -5.767  -1.073   3.370  0.00  0.00    +0.041 A 
ATOM     28  C   UNL     1      -4.969  -0.150   2.718  0.00  0.00    +0.022 A 
ATOM     29  C   UNL     1      -4.394  -0.471   1.503  0.00  0.00    +0.029 A 
ATOM     30 CL   UNL     1      -6.489  -0.671   4.896  0.00  0.00    -0.084 Cl
ENDBRANCH  21  24
ENDBRANCH   9  21
TORSDOF 3
