REMARK  Name = ZINC63541284
REMARK  9 active torsions:
REMARK  status: ('A' for Active; 'I' for Inactive)
REMARK    1  A    between atoms: C_4  and  C_7
REMARK    2  A    between atoms: C_7  and  C_8
REMARK    3  A    between atoms: C_8  and  N_9
REMARK    4  A    between atoms: C_10  and  C_12
REMARK    5  A    between atoms: C_12  and  S_13
REMARK    6  A    between atoms: S_13  and  C_14
REMARK    7  A    between atoms: N_25  and  C_26
REMARK    8  A    between atoms: C_26  and  C_27
REMARK    9  A    between atoms: C_27  and  C_28
REMARK                            x       y       z     vdW  Elec       q    Type
REMARK                         _______ _______ _______ _____ _____    ______ ____
ROOT
ATOM      1  C   UNL     1       9.485  -3.933   4.033  0.00  0.00    +0.223 C 
ATOM      2  N   UNL     1      10.429  -3.083   3.299  0.00  0.00    -0.300 N 
ATOM      3  C   UNL     1      10.286  -2.952   1.929  0.00  0.00    +0.151 A 
ATOM      4  C   UNL     1       9.727  -4.026   1.211  0.00  0.00    +0.165 A 
ATOM      5  N   UNL     1       9.598  -3.945  -0.105  0.00  0.00    -0.246 NA
ATOM      6  C   UNL     1       9.982  -2.849  -0.732  0.00  0.00    +0.131 A 
ATOM      7  C   UNL     1      10.520  -1.784  -0.023  0.00  0.00    +0.132 A 
ATOM      8  N   UNL     1      10.661  -1.856   1.291  0.00  0.00    -0.237 NA
ATOM      9  C   UNL     1       9.283  -5.220   1.960  0.00  0.00    +0.270 C 
ATOM     10  O   UNL     1       8.946  -6.226   1.366  0.00  0.00    -0.268 OA
ATOM     11  N   UNL     1       9.255  -5.180   3.303  0.00  0.00    -0.268 N 
ATOM     12  H   UNL     1      11.143  -2.621   3.767  0.00  0.00    +0.150 HD
ENDROOT
BRANCH   1  13
ATOM     13  S   UNL     1       7.911  -3.053   4.227  0.00  0.00    -0.110 S 
BRANCH  13  14
ATOM     14  C   UNL     1       7.365  -2.749   2.524  0.00  0.00    +0.168 C 
BRANCH  14  16
ATOM     15  N   UNL     1       5.450  -1.678   1.382  0.00  0.00    -0.314 N 
ATOM     16  C   UNL     1       6.050  -2.013   2.541  0.00  0.00    +0.223 C 
ATOM     17  O   UNL     1       5.532  -1.722   3.599  0.00  0.00    -0.275 OA
ATOM     18  H   UNL     1       5.864  -1.911   0.536  0.00  0.00    +0.149 HD
BRANCH  15  19
ATOM     19  C   UNL     1       4.171  -0.963   1.399  0.00  0.00    +0.109 C 
BRANCH  19  20
ATOM     20  C   UNL     1       3.711  -0.707  -0.038  0.00  0.00    +0.054 C 
BRANCH  20  24
ATOM     21  C   UNL     1      -0.017   1.378   0.010  0.00  0.00    +0.000 A 
ATOM     22  C   UNL     1       1.171   2.086   0.002  0.00  0.00    +0.000 A 
ATOM     23  C   UNL     1       2.377   1.411  -0.013  0.00  0.00    +0.004 A 
ATOM     24  C   UNL     1       2.396   0.029  -0.020  0.00  0.00    -0.046 A 
ATOM     25  C   UNL     1       1.208  -0.679  -0.012  0.00  0.00    +0.004 A 
ATOM     26  C   UNL     1       0.002  -0.004   0.002  0.00  0.00    +0.000 A 
ENDBRANCH  20  24
ENDBRANCH  19  20
ENDBRANCH  15  19
ENDBRANCH  14  16
ENDBRANCH  13  14
ENDBRANCH   1  13
BRANCH  11  27
ATOM     27  C   UNL     1       8.988  -6.413   4.049  0.00  0.00    +0.115 C 
BRANCH  27  28
ATOM     28  C   UNL     1       7.481  -6.559   4.270  0.00  0.00    +0.052 C 
BRANCH  28  29
ATOM     29  C   UNL     1       7.206  -7.826   5.037  0.00  0.00    -0.040 C 
ATOM     30  C   UNL     1       7.043  -7.948   6.374  0.00  0.00    -0.001 A 
ATOM     31  C   UNL     1       7.073  -6.975   7.472  0.00  0.00    +0.010 A 
ATOM     32  C   UNL     1       6.872  -7.408   8.738  0.00  0.00    +0.001 A 
ATOM     33  C   UNL     1       6.636  -8.759   9.026  0.00  0.00    +0.002 A 
ATOM     34  C   UNL     1       6.593  -9.712   8.071  0.00  0.00    +0.026 A 
ATOM     35  C   UNL     1       6.792  -9.369   6.705  0.00  0.00    +0.043 A 
ATOM     36  N   UNL     1       6.799 -10.097   5.614  0.00  0.00    -0.380 N 
ATOM     37  C   UNL     1       7.050  -9.218   4.467  0.00  0.00    +0.144 C 
ATOM     38  H   UNL     1       6.658 -11.056   5.573  0.00  0.00    +0.160 HD
ENDBRANCH  28  29
ENDBRANCH  27  28
ENDBRANCH  11  27
TORSDOF 9
