REMARK  Name = ZINC40647088
REMARK  6 active torsions:
REMARK  status: ('A' for Active; 'I' for Inactive)
REMARK    1  A    between atoms: C_4  and  C_7
REMARK    2  A    between atoms: C_7  and  C_8
REMARK    3  A    between atoms: C_7  and  C_14
REMARK    4  A    between atoms: N_16  and  N_17
REMARK    5  A    between atoms: C_19  and  N_32
REMARK    6  A    between atoms: C_20  and  N_24
REMARK                            x       y       z     vdW  Elec       q    Type
REMARK                         _______ _______ _______ _____ _____    ______ ____
ROOT
ATOM      1  N   UNL     1       4.059  -2.082  -3.696  0.00  0.00    -0.246 N 
ATOM      2  C   UNL     1       3.958  -1.559  -4.976  0.00  0.00    +0.171 A 
ATOM      3  C   UNL     1       4.133  -2.376  -6.089  0.00  0.00    +0.207 A 
ATOM      4  C   UNL     1       4.021  -1.802  -7.351  0.00  0.00    +0.160 A 
ATOM      5  N   UNL     1       3.753  -0.501  -7.449  0.00  0.00    -0.218 NA
ATOM      6  C   UNL     1       3.594   0.239  -6.371  0.00  0.00    +0.225 A 
ATOM      7  N   UNL     1       3.687  -0.268  -5.158  0.00  0.00    -0.217 NA
ATOM      8  H   UNL     1       4.256  -3.024  -3.571  0.00  0.00    +0.172 HD
ENDROOT
BRANCH   4   9
ATOM      9  N   UNL     1       4.188  -2.574  -8.493  0.00  0.00    -0.282 N 
ATOM     10  C   UNL     1       4.179  -1.972  -9.748  0.00  0.00    +0.124 A 
ATOM     11  C   UNL     1       4.460  -2.732 -10.879  0.00  0.00    +0.045 A 
ATOM     12  C   UNL     1       4.448  -2.121 -12.120  0.00  0.00    +0.025 A 
ATOM     13  C   UNL     1       4.154  -0.764 -12.188  0.00  0.00    +0.059 A 
ATOM     14  C   UNL     1       3.884  -0.071 -11.024  0.00  0.00    +0.132 A 
ATOM     15  N   UNL     1       3.898  -0.683  -9.854  0.00  0.00    -0.239 NA
ATOM     16 CL   UNL     1       4.126   0.051 -13.721  0.00  0.00    -0.082 Cl
ATOM     17  H   UNL     1       4.310  -3.533  -8.416  0.00  0.00    +0.155 HD
ENDBRANCH   4   9
BRANCH   1  20
ATOM     18  C   UNL     1       3.973  -1.761  -1.339  0.00  0.00    +0.241 C 
ATOM     19  O   UNL     1       4.220  -2.938  -1.183  0.00  0.00    -0.273 OA
ATOM     20  N   UNL     1       3.875  -1.252  -2.583  0.00  0.00    -0.235 N 
ATOM     21  H   UNL     1       3.677  -0.310  -2.707  0.00  0.00    +0.173 HD
BRANCH  18  22
ATOM     22  C   UNL     1       3.775  -0.868  -0.141  0.00  0.00    +0.136 C 
BRANCH  22  26
ATOM     23  C   UNL     1      -0.146   0.823  -0.256  0.00  0.00    +0.000 A 
ATOM     24  C   UNL     1       0.031  -0.527  -0.490  0.00  0.00    +0.000 A 
ATOM     25  C   UNL     1       1.300  -1.075  -0.453  0.00  0.00    +0.005 A 
ATOM     26  C   UNL     1       2.392  -0.271  -0.183  0.00  0.00    -0.031 A 
ATOM     27  C   UNL     1       2.214   1.080   0.051  0.00  0.00    +0.005 A 
ATOM     28  C   UNL     1       0.945   1.627   0.015  0.00  0.00    +0.000 A 
ENDBRANCH  22  26
BRANCH  22  29
ATOM     29  C   UNL     1       3.936  -1.676   1.121  0.00  0.00    -0.031 A 
ATOM     30  C   UNL     1       3.070  -2.720   1.387  0.00  0.00    +0.005 A 
ATOM     31  C   UNL     1       3.218  -3.462   2.545  0.00  0.00    +0.000 A 
ATOM     32  C   UNL     1       4.231  -3.159   3.435  0.00  0.00    +0.000 A 
ATOM     33  C   UNL     1       5.097  -2.115   3.168  0.00  0.00    +0.000 A 
ATOM     34  C   UNL     1       4.952  -1.376   2.008  0.00  0.00    +0.005 A 
ENDBRANCH  22  29
ENDBRANCH  18  22
ENDBRANCH   1  20
BRANCH   3  35
ATOM     35  N   UNL     1       4.431  -3.817  -5.933  0.00  0.00    +0.063 N 
ATOM     36  O   UNL     1       3.527  -4.618  -5.875  0.00  0.00    -0.126 OA
ATOM     37  O   UNL     1       5.577  -4.194  -5.864  0.00  0.00    -0.126 OA
ENDBRANCH   3  35
TORSDOF 6
