REMARK  Name = ZINC21332464
REMARK  6 active torsions:
REMARK  status: ('A' for Active; 'I' for Inactive)
REMARK    1  A    between atoms: C_6  and  O_11
REMARK    2  A    between atoms: O_11  and  C_12
REMARK    3  A    between atoms: C_12  and  C_13
REMARK    4  A    between atoms: N_15  and  N_16
REMARK    5  A    between atoms: C_17  and  C_19
REMARK    6  A    between atoms: C_19  and  C_20
REMARK                            x       y       z     vdW  Elec       q    Type
REMARK                         _______ _______ _______ _____ _____    ______ ____
ROOT
ATOM      1  C   UNL     1      -0.018   1.503   0.010  0.00  0.00    +0.267 C 
ATOM      2  O   UNL     1      -1.077   2.095   0.018  0.00  0.00    -0.271 OA
ATOM      3  N   UNL     1       1.139   2.192   0.003  0.00  0.00    -0.232 N 
ATOM      4  H   UNL     1       2.099   1.655  -0.009  0.00  0.00    +0.173 HD
ENDROOT
BRANCH   3   5
ATOM      5  N   UNL     1       1.121   3.593   0.011  0.00  0.00    -0.234 N 
ATOM      6  C   UNL     1       2.278   4.283   0.003  0.00  0.00    +0.233 C 
ATOM      7  O   UNL     1       3.337   3.691  -0.010  0.00  0.00    -0.274 OA
ATOM      8  H   UNL     1       0.161   4.130   0.023  0.00  0.00    +0.173 HD
BRANCH   6   9
ATOM      9  C   UNL     1       2.258   5.790   0.012  0.00  0.00    +0.134 C 
BRANCH   9  10
ATOM     10  C   UNL     1       3.672   6.311   0.001  0.00  0.00    -0.014 A 
ATOM     11  C   UNL     1       4.397   6.676   1.070  0.00  0.00    +0.087 A 
ATOM     12  N   UNL     1       5.637   7.096   0.673  0.00  0.00    -0.360 N 
ATOM     13  H   UNL     1       6.371   7.428   1.421  0.00  0.00    +0.165 HD
ATOM     14  C   UNL     1       5.740   7.018  -0.698  0.00  0.00    +0.047 A 
ATOM     15  C   UNL     1       4.514   6.523  -1.179  0.00  0.00    +0.003 A 
ATOM     16  C   UNL     1       4.327   6.337  -2.550  0.00  0.00    +0.010 A 
ATOM     17  C   UNL     1       5.338   6.637  -3.419  0.00  0.00    +0.001 A 
ATOM     18  C   UNL     1       6.549   7.126  -2.950  0.00  0.00    +0.002 A 
ATOM     19  C   UNL     1       6.755   7.317  -1.601  0.00  0.00    +0.026 A 
ENDBRANCH   9  10
ENDBRANCH   6   9
ENDBRANCH   3   5
BRANCH   1  20
ATOM     20  C   UNL     1       0.002  -0.004   0.002  0.00  0.00    +0.326 C 
BRANCH  20  21
ATOM     21  O   UNL     1      -1.339  -0.499   0.012  0.00  0.00    -0.483 OA
BRANCH  21  27
ATOM     22  C   UNL     1      -3.203  -6.532  -0.003  0.00  0.00    +0.001 A 
ATOM     23  C   UNL     1      -4.327  -5.709   0.012  0.00  0.00    +0.001 A 
ATOM     24  C   UNL     1      -4.203  -4.354   0.018  0.00  0.00    +0.008 A 
ATOM     25  C   UNL     1      -2.924  -3.772   0.010  0.00  0.00    -0.014 A 
ATOM     26  C   UNL     1      -2.757  -2.378   0.016  0.00  0.00    +0.054 A 
ATOM     27  C   UNL     1      -1.498  -1.848   0.006  0.00  0.00    +0.122 A 
ATOM     28  C   UNL     1      -0.372  -2.676  -0.015  0.00  0.00    +0.046 A 
ATOM     29  C   UNL     1      -0.499  -4.030  -0.015  0.00  0.00    +0.012 A 
ATOM     30  C   UNL     1      -1.780  -4.610  -0.006  0.00  0.00    -0.018 A 
ATOM     31  C   UNL     1      -1.948  -6.005  -0.012  0.00  0.00    +0.008 A 
ENDBRANCH  21  27
ENDBRANCH  20  21
ENDBRANCH   1  20
TORSDOF 6
