REMARK  Name = ZINC14183934
REMARK  6 active torsions:
REMARK  status: ('A' for Active; 'I' for Inactive)
REMARK    1  A    between atoms: C_6  and  S_7
REMARK    2  A    between atoms: S_7  and  N_10
REMARK    3  A    between atoms: C_13  and  C_16
REMARK    4  A    between atoms: C_16  and  O_18
REMARK    5  A    between atoms: O_18  and  N_19
REMARK    6  A    between atoms: C_20  and  C_21
REMARK                            x       y       z     vdW  Elec       q    Type
REMARK                         _______ _______ _______ _____ _____    ______ ____
ROOT
ATOM      1  C   UNL     1      -4.704  -2.745  -4.355  0.00  0.00    +0.339 C 
ATOM      2  O   UNL     1      -5.826  -2.352  -4.115  0.00  0.00    -0.248 OA
ENDROOT
BRANCH   1   6
ATOM      3  N   UNL     1      -1.948  -1.147  -1.567  0.00  0.00    -0.177 NA
ATOM      4  C   UNL     1      -2.787  -0.167  -2.270  0.00  0.00    +0.110 C 
ATOM      5  C   UNL     1      -3.999  -0.892  -2.865  0.00  0.00    +0.032 C 
ATOM      6  C   UNL     1      -3.516  -2.050  -3.741  0.00  0.00    +0.103 C 
ATOM      7  C   UNL     1      -2.730  -3.046  -2.885  0.00  0.00    +0.032 C 
ATOM      8  C   UNL     1      -1.499  -2.343  -2.293  0.00  0.00    +0.110 C 
BRANCH   3   9
ATOM      9  S   UNL     1      -1.512  -0.905   0.012  0.00  0.00    +0.061 S 
ATOM     10  O   UNL     1      -1.218  -2.186   0.553  0.00  0.00    -0.153 OA
ATOM     11  O   UNL     1      -2.492  -0.046   0.577  0.00  0.00    -0.153 OA
BRANCH   9  17
ATOM     12  C   UNL     1      -0.017   1.378   0.010  0.00  0.00    +0.030 A 
ATOM     13  C   UNL     1       1.171   2.086   0.002  0.00  0.00    +0.022 A 
ATOM     14  C   UNL     1       2.378   1.410  -0.013  0.00  0.00    +0.041 A 
ATOM     15  C   UNL     1       2.396   0.027  -0.021  0.00  0.00    +0.022 A 
ATOM     16  C   UNL     1       1.208  -0.679  -0.013  0.00  0.00    +0.030 A 
ATOM     17  C   UNL     1       0.002  -0.004   0.002  0.00  0.00    +0.106 A 
ATOM     18 CL   UNL     1       3.870   2.298  -0.023  0.00  0.00    -0.084 Cl
ENDBRANCH   9  17
ENDBRANCH   3   9
ENDBRANCH   1   6
BRANCH   1  19
ATOM     19  O   UNL     1      -4.521  -3.797  -5.166  0.00  0.00    -0.316 OA
BRANCH  19  20
ATOM     20  N   UNL     1      -5.722  -4.351  -5.671  0.00  0.00    -0.064 NA
ATOM     21  C   UNL     1      -5.680  -5.370  -6.465  0.00  0.00    +0.139 C 
ATOM     22  N   UNL     1      -4.469  -5.916  -6.820  0.00  0.00    -0.344 N 
ATOM     23  H   UNL     1      -3.646  -5.537  -6.474  0.00  0.00    +0.144 HD
ATOM     24  H   UNL     1      -4.437  -6.681  -7.415  0.00  0.00    +0.144 HD
BRANCH  21  25
ATOM     25  C   UNL     1      -6.959  -5.960  -7.003  0.00  0.00    +0.030 C 
ATOM     26  C   UNL     1      -8.152  -5.172  -6.459  0.00  0.00    +0.018 C 
ATOM     27  C   UNL     1      -9.450  -5.771  -7.004  0.00  0.00    -0.010 C 
ATOM     28  C   UNL     1      -9.443  -5.696  -8.532  0.00  0.00    +0.007 C 
ATOM     29  C   UNL     1      -8.250  -6.484  -9.077  0.00  0.00    -0.010 C 
ATOM     30  C   UNL     1      -6.952  -5.885  -8.531  0.00  0.00    +0.018 C 
ATOM     31  C   UNL     1      -8.361  -7.945  -8.638  0.00  0.00    +0.007 C 
ATOM     32  C   UNL     1      -8.368  -8.020  -7.110  0.00  0.00    -0.010 C 
ATOM     33  C   UNL     1      -9.561  -7.232  -6.566  0.00  0.00    +0.007 C 
ATOM     34  C   UNL     1      -7.070  -7.421  -6.564  0.00  0.00    +0.018 C 
ENDBRANCH  21  25
ENDBRANCH  19  20
ENDBRANCH   1  19
TORSDOF 6
