REMARK  Name = ZINC39756544
REMARK  3 active torsions:
REMARK  status: ('A' for Active; 'I' for Inactive)
REMARK    1  A    between atoms: C_9  and  S_11
REMARK    2  A    between atoms: S_11  and  N_14
REMARK    3  A    between atoms: N_14  and  C_15
REMARK                            x       y       z     vdW  Elec       q    Type
REMARK                         _______ _______ _______ _____ _____    ______ ____
ROOT
ATOM      1  S   UNL     1       5.216  -2.862  -0.411  0.00  0.00    +0.088 S 
ATOM      2  O   UNL     1       6.180  -2.007   0.189  0.00  0.00    -0.149 OA
ATOM      3  O   UNL     1       4.932  -4.160   0.091  0.00  0.00    -0.149 OA
ENDROOT
BRANCH   1  12
ATOM      4  C   UNL     1      -0.017   1.380   0.010  0.00  0.00    +0.000 A 
ATOM      5  C   UNL     1       1.168   2.095   0.002  0.00  0.00    +0.001 A 
ATOM      6  C   UNL     1       2.378   1.432  -0.022  0.00  0.00    +0.008 A 
ATOM      7  C   UNL     1       2.403   0.041  -0.044  0.00  0.00    -0.020 A 
ATOM      8  C   UNL     1       1.205  -0.677  -0.016  0.00  0.00    -0.040 A 
ATOM      9  C   UNL     1       0.002  -0.004   0.002  0.00  0.00    +0.004 A 
ATOM     10  C   UNL     1       1.244  -2.182   0.016  0.00  0.00    +0.042 C 
ATOM     11  C   UNL     1       2.426  -2.691  -0.806  0.00  0.00    +0.061 C 
ATOM     12  C   UNL     1       3.692  -1.978  -0.416  0.00  0.00    +0.089 C 
ATOM     13  C   UNL     1       3.681  -0.699  -0.076  0.00  0.00    +0.032 C 
ENDBRANCH   1  12
BRANCH   1  14
ATOM     14  N   UNL     1       5.675  -3.056  -1.991  0.00  0.00    -0.098 NA
BRANCH  14  15
ATOM     15  C   UNL     1       6.860  -3.729  -2.297  0.00  0.00    +0.076 A 
ATOM     16  C   UNL     1       7.649  -4.239  -1.272  0.00  0.00    +0.027 A 
ATOM     17  C   UNL     1       8.825  -4.907  -1.572  0.00  0.00    +0.009 A 
ATOM     18  C   UNL     1       9.207  -5.063  -2.879  0.00  0.00    +0.000 A 
ATOM     19  C   UNL     1       8.427  -4.557  -3.927  0.00  0.00    +0.090 A 
ATOM     20  C   UNL     1       7.239  -3.889  -3.620  0.00  0.00    +0.056 A 
ATOM     21  N   UNL     1       9.039  -4.853  -5.109  0.00  0.00    -0.178 NA
ATOM     22  N   UNL     1      10.098  -5.473  -5.002  0.00  0.00    -0.304 N 
ATOM     23  C   UNL     1      10.381  -5.710  -3.576  0.00  0.00    +0.171 C 
ATOM     24  H   UNL     1      10.656  -5.761  -5.741  0.00  0.00    +0.183 HD
ENDBRANCH  14  15
ENDBRANCH   1  14
TORSDOF 3
