REMARK  Name = ZINC21877552
REMARK  10 active torsions:
REMARK  status: ('A' for Active; 'I' for Inactive)
REMARK    1  A    between atoms: C_1  and  C_2
REMARK    2  A    between atoms: C_2  and  N_3
REMARK    3  A    between atoms: C_8  and  C_22
REMARK    4  A    between atoms: C_12  and  C_13
REMARK    5  A    between atoms: C_12  and  C_14
REMARK    6  A    between atoms: N_16  and  C_17
REMARK    7  A    between atoms: N_24  and  C_25
REMARK    8  A    between atoms: C_25  and  C_26
REMARK    9  A    between atoms: C_26  and  C_27
REMARK   10  A    between atoms: C_27  and  N_28
REMARK                            x       y       z     vdW  Elec       q    Type
REMARK                         _______ _______ _______ _____ _____    ______ ____
ROOT
ATOM      1  N   UNL     1      -1.920  13.937  -4.529  0.00  0.00    -0.281 N 
ATOM      2  C   UNL     1      -2.377  12.896  -5.264  0.00  0.00    +0.265 C 
ATOM      3  O   UNL     1      -3.022  13.063  -6.282  0.00  0.00    -0.268 OA
ATOM      4  C   UNL     1      -2.051  11.550  -4.764  0.00  0.00    +0.124 A 
ATOM      5  C   UNL     1      -2.180  10.330  -5.337  0.00  0.00    +0.067 A 
ATOM      6  C   UNL     1      -1.677   9.418  -4.381  0.00  0.00    +0.148 A 
ATOM      7  N   UNL     1      -1.284  10.119  -3.329  0.00  0.00    -0.166 NA
ATOM      8  N   UNL     1      -1.496  11.363  -3.515  0.00  0.00    -0.256 N 
ATOM      9  C   UNL     1      -1.246  12.498  -2.618  0.00  0.00    +0.179 C 
ATOM     10  C   UNL     1      -0.956  13.746  -3.450  0.00  0.00    +0.130 C 
ATOM     11  C   UNL     1       0.443  13.621  -4.057  0.00  0.00    +0.044 C 
ENDROOT
BRANCH  10  12
ATOM     12  C   UNL     1      -0.990  14.952  -2.547  0.00  0.00    +0.238 C 
ATOM     13  O   UNL     1       0.045  15.495  -2.223  0.00  0.00    -0.273 OA
ATOM     14  N   UNL     1      -2.169  15.427  -2.101  0.00  0.00    -0.311 N 
ATOM     15  H   UNL     1      -3.100  14.887  -2.327  0.00  0.00    +0.149 HD
BRANCH  14  16
ATOM     16  C   UNL     1      -2.211  16.663  -1.316  0.00  0.00    +0.073 C 
ATOM     17  C   UNL     1      -2.021  16.344   0.181  0.00  0.00    +0.022 C 
ATOM     18  C   UNL     1      -2.960  17.341   0.905  0.00  0.00    +0.002 C 
ATOM     19  C   UNL     1      -4.193  17.389  -0.032  0.00  0.00    +0.002 C 
ATOM     20  C   UNL     1      -3.592  17.328  -1.452  0.00  0.00    +0.022 C 
ENDBRANCH  14  16
ENDBRANCH  10  12
BRANCH   6  21
ATOM     21  C   UNL     1      -1.599   7.950  -4.531  0.00  0.00    +0.264 C 
ATOM     22  O   UNL     1      -1.995   7.422  -5.552  0.00  0.00    -0.268 OA
ATOM     23  N   UNL     1      -1.089   7.197  -3.537  0.00  0.00    -0.310 N 
ATOM     24  H   UNL     1      -0.731   7.676  -2.613  0.00  0.00    +0.149 HD
BRANCH  23  25
ATOM     25  C   UNL     1      -1.011   5.742  -3.686  0.00  0.00    +0.103 C 
BRANCH  25  26
ATOM     26  C   UNL     1      -0.397   5.132  -2.424  0.00  0.00    +0.000 C 
BRANCH  26  27
ATOM     27  C   UNL     1      -0.316   3.612  -2.580  0.00  0.00    -0.077 C 
BRANCH  27  28
ATOM     28  N   UNL     1       0.273   3.027  -1.368  0.00  0.00    +0.383 N 
ATOM     29  C   UNL     1       0.587   1.603  -1.569  0.00  0.00    -0.074 C 
ATOM     30  C   UNL     1       1.514   1.147  -0.443  0.00  0.00    +0.017 C 
ATOM     31  C   UNL     1       0.936   1.548   0.890  0.00  0.00    -0.048 A 
ATOM     32  C   UNL     1       1.424   0.934   2.034  0.00  0.00    +0.004 A 
ATOM     33  C   UNL     1       0.924   1.274   3.275  0.00  0.00    +0.000 A 
ATOM     34  C   UNL     1      -0.067   2.232   3.378  0.00  0.00    +0.000 A 
ATOM     35  C   UNL     1      -0.549   2.844   2.244  0.00  0.00    +0.002 A 
ATOM     36  C   UNL     1      -0.051   2.501   0.995  0.00  0.00    -0.061 A 
ATOM     37  C   UNL     1      -0.620   3.192  -0.217  0.00  0.00    -0.043 C 
ATOM     38  H   UNL     1       1.209   3.565  -1.159  0.00  0.00    -0.081 HD
ENDBRANCH  27  28
ENDBRANCH  26  27
ENDBRANCH  25  26
ENDBRANCH  23  25
ENDBRANCH   6  21
BRANCH   1  40
ATOM     39  C   UNL     1      -1.576  15.890  -5.960  0.00  0.00    +0.024 C 
ATOM     40  C   UNL     1      -2.404  15.288  -4.823  0.00  0.00    +0.106 C 
ENDBRANCH   1  40
TORSDOF 8
