REMARK  Name = ZINC21145706
REMARK  9 active torsions:
REMARK  status: ('A' for Active; 'I' for Inactive)
REMARK    1  A    between atoms: C_1  and  C_2
REMARK    2  A    between atoms: C_3  and  C_7
REMARK    3  A    between atoms: C_10  and  S_13
REMARK    4  A    between atoms: N_11  and  N_12
REMARK    5  A    between atoms: S_13  and  C_14
REMARK    6  A    between atoms: C_14  and  C_15
REMARK    7  A    between atoms: N_17  and  C_18
REMARK    8  A    between atoms: C_23  and  S_24
REMARK    9  A    between atoms: S_24  and  C_25
REMARK                            x       y       z     vdW  Elec       q    Type
REMARK                         _______ _______ _______ _____ _____    ______ ____
ROOT
ATOM      1  C   UNL     1      -1.347  -0.653   0.718  0.00  0.00    +0.228 C 
ATOM      2  O   UNL     1      -2.240   0.042   1.155  0.00  0.00    -0.275 OA
ATOM      3  N   UNL     1      -1.632  -1.849   0.166  0.00  0.00    -0.284 N 
ATOM      4  H   UNL     1      -0.835  -2.441  -0.306  0.00  0.00    +0.155 HD
ENDROOT
BRANCH   3   5
ATOM      5  C   UNL     1      -2.945  -2.338   0.194  0.00  0.00    +0.047 A 
ATOM      6  C   UNL     1      -4.016  -1.456   0.201  0.00  0.00    +0.024 A 
ATOM      7  C   UNL     1      -5.310  -1.940   0.228  0.00  0.00    +0.002 A 
ATOM      8  C   UNL     1      -5.543  -3.304   0.248  0.00  0.00    +0.001 A 
ATOM      9  C   UNL     1      -4.483  -4.190   0.241  0.00  0.00    +0.017 A 
ATOM     10  C   UNL     1      -3.180  -3.713   0.208  0.00  0.00    +0.034 A 
BRANCH  10  11
ATOM     11  S   UNL     1      -1.826  -4.840   0.191  0.00  0.00    -0.088 S 
BRANCH  11  12
ATOM     12  C   UNL     1      -2.592  -6.427   0.191  0.00  0.00    +0.013 A 
ATOM     13  C   UNL     1      -2.779  -7.110   1.387  0.00  0.00    +0.016 A 
ATOM     14  C   UNL     1      -3.385  -8.351   1.385  0.00  0.00    +0.021 A 
ATOM     15  C   UNL     1      -3.796  -8.919   0.191  0.00  0.00    +0.041 A 
ATOM     16  C   UNL     1      -3.606  -8.244  -1.002  0.00  0.00    +0.021 A 
ATOM     17  C   UNL     1      -3.006  -7.000  -1.005  0.00  0.00    +0.016 A 
ATOM     18 CL   UNL     1      -4.551 -10.482   0.191  0.00  0.00    -0.084 Cl
ENDBRANCH  11  12
ENDBRANCH  10  11
ENDBRANCH   3   5
BRANCH   1  19
ATOM     19  C   UNL     1       0.082  -0.179   0.793  0.00  0.00    +0.173 C 
BRANCH  19  20
ATOM     20  S   UNL     1       0.137   1.450   1.581  0.00  0.00    -0.075 S 
BRANCH  20  24
ATOM     21  C   UNL     1       3.850   2.652   1.760  0.00  0.00    +0.185 A 
ATOM     22  N   UNL     1       3.954   1.481   1.177  0.00  0.00    -0.127 NA
ATOM     23  N   UNL     1       2.790   0.951   1.046  0.00  0.00    -0.121 NA
ATOM     24  C   UNL     1       1.872   1.751   1.538  0.00  0.00    +0.209 A 
ATOM     25  N   UNL     1       2.514   2.865   2.004  0.00  0.00    -0.224 N 
BRANCH  21  28
ATOM     26  C   UNL     1       6.896   2.162   1.201  0.00  0.00    +0.087 C 
ATOM     27  C   UNL     1       6.287   3.376   1.853  0.00  0.00    +0.112 A 
ATOM     28  C   UNL     1       4.961   3.573   2.087  0.00  0.00    +0.061 A 
ATOM     29  C   UNL     1       4.863   4.885   2.739  0.00  0.00    +0.053 A 
ATOM     30  C   UNL     1       6.120   5.350   2.829  0.00  0.00    +0.196 A 
ATOM     31  O   UNL     1       6.959   4.448   2.297  0.00  0.00    -0.467 OA
ENDBRANCH  21  28
BRANCH  25  32
ATOM     32  N   UNL     1       1.946   3.959   2.592  0.00  0.00    -0.295 N 
ATOM     33  H   UNL     1       0.855   4.006   2.730  0.00  0.00    +0.163 HD
ATOM     34  H   UNL     1       2.579   4.794   2.929  0.00  0.00    +0.163 HD
ENDBRANCH  25  32
ENDBRANCH  20  24
ENDBRANCH  19  20
ENDBRANCH   1  19
TORSDOF 8
