REMARK  Name = ZINC14815141
REMARK  4 active torsions:
REMARK  status: ('A' for Active; 'I' for Inactive)
REMARK    1  A    between atoms: C_1  and  C_2
REMARK    2  A    between atoms: N_10  and  N_14
REMARK    3  A    between atoms: C_15  and  C_17
REMARK    4  A    between atoms: C_17  and  N_18
REMARK                            x       y       z     vdW  Elec       q    Type
REMARK                         _______ _______ _______ _____ _____    ______ ____
ROOT
ATOM      1  N   UNL     1       2.850   6.828  -1.656  0.00  0.00    -0.222 N 
ATOM      2  C   UNL     1       1.690   6.190  -1.402  0.00  0.00    +0.249 C 
ATOM      3  O   UNL     1       0.991   5.816  -2.319  0.00  0.00    -0.272 OA
ATOM      4  H   UNL     1       3.410   7.127  -0.922  0.00  0.00    +0.174 HD
ENDROOT
BRANCH   1  14
ATOM      5  C   UNL     1       4.952   8.695  -9.077  0.00  0.00    +0.007 C 
ATOM      6  C   UNL     1       4.415   8.952  -7.668  0.00  0.00    -0.014 C 
ATOM      7  C   UNL     1       3.180   8.081  -7.427  0.00  0.00    +0.006 C 
ATOM      8  C   UNL     1       2.636   8.348  -6.021  0.00  0.00    +0.035 C 
ATOM      9  C   UNL     1       3.712   8.030  -4.988  0.00  0.00    +0.114 C 
ATOM     10  C   UNL     1       4.959   8.872  -5.231  0.00  0.00    +0.035 C 
ATOM     11  C   UNL     1       5.494   8.604  -6.640  0.00  0.00    +0.006 C 
ATOM     12  C   UNL     1       3.184   8.260  -3.591  0.00  0.00    +0.263 C 
ATOM     13  O   UNL     1       2.788   9.304  -3.118  0.00  0.00    -0.271 OA
ATOM     14  N   UNL     1       3.247   7.059  -2.979  0.00  0.00    -0.137 N 
ATOM     15  C   UNL     1       3.742   6.118  -3.792  0.00  0.00    +0.326 C 
ATOM     16  O   UNL     1       3.900   4.958  -3.465  0.00  0.00    -0.251 OA
ATOM     17  N   UNL     1       4.043   6.599  -5.013  0.00  0.00    -0.284 N 
ATOM     18  H   UNL     1       4.410   6.101  -5.760  0.00  0.00    +0.151 HD
ENDBRANCH   1  14
BRANCH   2  19
ATOM     19  C   UNL     1       1.263   5.941   0.021  0.00  0.00    +0.219 C 
BRANCH  19  20
ATOM     20  N   UNL     1      -0.022   5.237   0.030  0.00  0.00    -0.331 N 
ATOM     21  C   UNL     1      -0.022   3.858   0.022  0.00  0.00    +0.054 A 
ATOM     22  C   UNL     1       1.184   3.160   0.007  0.00  0.00    +0.026 A 
ATOM     23  C   UNL     1       1.182   1.782   0.000  0.00  0.00    +0.002 A 
ATOM     24  C   UNL     1      -0.013   1.076   0.008  0.00  0.00    +0.001 A 
ATOM     25  C   UNL     1      -1.212   1.742   0.017  0.00  0.00    +0.014 A 
ATOM     26  C   UNL     1      -1.228   3.138   0.030  0.00  0.00    +0.046 A 
ATOM     27  C   UNL     1      -2.505   3.876   0.045  0.00  0.00    +0.197 A 
ATOM     28  O   UNL     1      -3.572   3.291   0.053  0.00  0.00    -0.287 OA
ATOM     29  C   UNL     1      -2.439   5.348   0.052  0.00  0.00    +0.046 A 
ATOM     30  C   UNL     1      -1.183   5.978   0.044  0.00  0.00    +0.054 A 
ATOM     31  C   UNL     1      -1.123   7.370   0.051  0.00  0.00    +0.026 A 
ATOM     32  C   UNL     1      -2.285   8.110   0.065  0.00  0.00    +0.002 A 
ATOM     33  C   UNL     1      -3.523   7.483   0.074  0.00  0.00    +0.001 A 
ATOM     34  C   UNL     1      -3.607   6.114   0.068  0.00  0.00    +0.014 A 
ENDBRANCH  19  20
ENDBRANCH   2  19
TORSDOF 3
