REMARK  Name = ZINC39711359
REMARK  13 active torsions:
REMARK  status: ('A' for Active; 'I' for Inactive)
REMARK    1  A    between atoms: C_1  and  O_2
REMARK    2  A    between atoms: O_2  and  C_3
REMARK    3  A    between atoms: C_3  and  C_4
REMARK    4  A    between atoms: C_4  and  N_5
REMARK    5  A    between atoms: C_6  and  C_10
REMARK    6  A    between atoms: C_10  and  C_12
REMARK    7  A    between atoms: C_10  and  N_26
REMARK    8  A    between atoms: C_17  and  O_24
REMARK    9  A    between atoms: O_24  and  C_25
REMARK   10  A    between atoms: N_26  and  C_27
REMARK   11  A    between atoms: N_26  and  C_34
REMARK   12  A    between atoms: C_27  and  C_28
REMARK   13  A    between atoms: C_34  and  C_35
REMARK                            x       y       z     vdW  Elec       q    Type
REMARK                         _______ _______ _______ _____ _____    ______ ____
ROOT
ATOM      1  C   UNL     1      -2.667  -2.630   2.700  0.00  0.00    +0.019 C 
ENDROOT
BRANCH   1   2
ATOM      2  C   UNL     1      -3.388  -1.408   3.273  0.00  0.00    +0.092 C 
ATOM      3  C   UNL     1      -3.086  -0.226   2.373  0.00  0.00    -0.006 C 
ATOM      4  C   UNL     1      -2.493   0.860   2.945  0.00  0.00    -0.004 A 
ATOM      5  C   UNL     1      -2.167   2.043   2.148  0.00  0.00    +0.055 A 
ATOM      6  C   UNL     1      -1.575   3.105   2.762  0.00  0.00    +0.121 A 
ATOM      7  C   UNL     1      -1.277   3.081   4.130  0.00  0.00    +0.047 A 
ATOM      8  C   UNL     1      -1.556   2.012   4.920  0.00  0.00    +0.027 A 
ATOM      9  C   UNL     1      -2.167   0.864   4.382  0.00  0.00    +0.041 A 
ATOM     10  N   UNL     1      -2.435  -0.177   5.170  0.00  0.00    -0.285 N 
ATOM     11  C   UNL     1      -3.006  -1.286   4.731  0.00  0.00    +0.223 C 
ATOM     12  O   UNL     1      -3.225  -2.204   5.499  0.00  0.00    -0.275 OA
ATOM     13  H   UNL     1      -2.199  -0.119   6.109  0.00  0.00    +0.155 HD
BRANCH   6  14
ATOM     14  O   UNL     1      -1.267   4.210   2.032  0.00  0.00    -0.495 OA
ATOM     15  C   UNL     1      -0.647   5.294   2.727  0.00  0.00    +0.277 C 
ENDBRANCH   6  14
ENDBRANCH   1   2
BRANCH   1  17
ATOM     16  N   UNL     1      -1.958  -2.557   0.251  0.00  0.00    -0.229 N 
ATOM     17  C   UNL     1      -2.892  -2.693   1.211  0.00  0.00    +0.139 A 
ATOM     18  N   UNL     1      -4.034  -2.892   0.600  0.00  0.00    -0.115 NA
ATOM     19  N   UNL     1      -3.813  -2.879  -0.670  0.00  0.00    -0.023 NA
ATOM     20  N   UNL     1      -2.561  -2.671  -0.884  0.00  0.00    -0.044 NA
BRANCH  16  21
ATOM     21  C   UNL     1      -0.527  -2.317   0.457  0.00  0.00    +0.175 C 
BRANCH  21  22
ATOM     22  C   UNL     1      -0.253  -0.812   0.425  0.00  0.00    +0.183 C 
BRANCH  22  24
ATOM     23  C   UNL     1       1.496   0.806   0.683  0.00  0.00    +0.194 C 
ATOM     24  O   UNL     1       1.131  -0.575   0.690  0.00  0.00    -0.381 OA
ENDBRANCH  22  24
ENDBRANCH  21  22
ENDBRANCH  16  21
ENDBRANCH   1  17
BRANCH   1  25
ATOM     25  N   UNL     1      -3.196  -3.849   3.327  0.00  0.00    +0.394 N 
ATOM     26  H   UNL     1      -3.143  -3.761   4.331  0.00  0.00    -0.080 HD
BRANCH  25  27
ATOM     27  C   UNL     1      -4.597  -4.037   2.926  0.00  0.00    -0.041 C 
BRANCH  27  28
ATOM     28  C   UNL     1      -5.184  -5.201   3.683  0.00  0.00    -0.064 A 
ATOM     29  C   UNL     1      -5.098  -6.478   3.161  0.00  0.00    +0.002 A 
ATOM     30  C   UNL     1      -5.636  -7.546   3.855  0.00  0.00    +0.000 A 
ATOM     31  C   UNL     1      -6.260  -7.336   5.071  0.00  0.00    +0.000 A 
ATOM     32  C   UNL     1      -6.344  -6.059   5.593  0.00  0.00    +0.000 A 
ATOM     33  C   UNL     1      -5.802  -4.992   4.901  0.00  0.00    +0.002 A 
ENDBRANCH  27  28
ENDBRANCH  25  27
BRANCH  25  34
ATOM     34  C   UNL     1      -2.403  -5.006   2.894  0.00  0.00    -0.002 C 
BRANCH  34  35
ATOM     35  C   UNL     1      -1.008  -4.897   3.455  0.00  0.00    +0.089 A 
ATOM     36  C   UNL     1      -0.590  -5.405   4.628  0.00  0.00    +0.042 A 
ATOM     37  C   UNL     1       0.777  -5.071   4.755  0.00  0.00    +0.041 A 
ATOM     38  C   UNL     1       1.114  -4.380   3.651  0.00  0.00    +0.195 A 
ATOM     39  O   UNL     1       0.030  -4.282   2.865  0.00  0.00    -0.470 OA
ENDBRANCH  34  35
ENDBRANCH  25  34
ENDBRANCH   1  25
TORSDOF 11
