REMARK  Name = ZINC40144958
REMARK  6 active torsions:
REMARK  status: ('A' for Active; 'I' for Inactive)
REMARK    1  A    between atoms: C_14  and  C_15
REMARK    2  A    between atoms: C_15  and  C_17
REMARK    3  A    between atoms: C_15  and  N_30
REMARK    4  A    between atoms: C_17  and  C_19
REMARK    5  A    between atoms: C_17  and  C_21
REMARK    6  A    between atoms: C_31  and  N_32
REMARK                            x       y       z     vdW  Elec       q    Type
REMARK                         _______ _______ _______ _____ _____    ______ ____
ROOT
ATOM      1  C   UNL     1       4.985   0.276  -0.045  0.00  0.00    +0.161 C 
ENDROOT
BRANCH   1  15
ATOM      2  C   UNL     1       5.534  -4.402  -2.045  0.00  0.00    +0.001 A 
ATOM      3  C   UNL     1       5.184  -3.145  -2.541  0.00  0.00    +0.001 A 
ATOM      4  C   UNL     1       5.122  -2.053  -1.737  0.00  0.00    +0.009 A 
ATOM      5  C   UNL     1       5.417  -2.182  -0.363  0.00  0.00    -0.012 A 
ATOM      6  C   UNL     1       5.785  -3.502   0.158  0.00  0.00    -0.017 A 
ATOM      7  C   UNL     1       5.829  -4.595  -0.734  0.00  0.00    +0.008 A 
ATOM      8  C   UNL     1       6.083  -3.665   1.510  0.00  0.00    +0.017 A 
ATOM      9  C   UNL     1       6.029  -2.564   2.363  0.00  0.00    -0.017 A 
ATOM     10  C   UNL     1       6.325  -2.692   3.738  0.00  0.00    +0.008 A 
ATOM     11  C   UNL     1       6.264  -1.600   4.541  0.00  0.00    +0.001 A 
ATOM     12  C   UNL     1       5.913  -0.344   4.045  0.00  0.00    +0.001 A 
ATOM     13  C   UNL     1       5.617  -0.151   2.735  0.00  0.00    +0.009 A 
ATOM     14  C   UNL     1       5.661  -1.244   1.842  0.00  0.00    -0.012 A 
ATOM     15  C   UNL     1       5.363  -1.081   0.491  0.00  0.00    -0.006 A 
ENDBRANCH   1  15
BRANCH   1  16
ATOM     16  N   UNL     1       5.443   1.312   0.884  0.00  0.00    -0.261 N 
ATOM     17  C   UNL     1       4.665   2.291   1.447  0.00  0.00    +0.117 A 
ATOM     18  C   UNL     1       5.463   3.054   2.251  0.00  0.00    +0.114 A 
ATOM     19  C   UNL     1       6.765   2.538   2.186  0.00  0.00    +0.266 A 
ATOM     20  O   UNL     1       7.738   2.971   2.779  0.00  0.00    -0.266 OA
ATOM     21  N   UNL     1       6.751   1.474   1.359  0.00  0.00    -0.261 N 
ATOM     22  H   UNL     1       7.513   0.919   1.131  0.00  0.00    +0.190 HD
BRANCH  17  23
ATOM     23  N   UNL     1       3.322   2.472   1.239  0.00  0.00    -0.343 N 
ATOM     24  H   UNL     1       2.838   1.875   0.647  0.00  0.00    +0.144 HD
ATOM     25  H   UNL     1       2.856   3.197   1.684  0.00  0.00    +0.144 HD
ENDBRANCH  17  23
ENDBRANCH   1  16
BRANCH   1  26
ATOM     26  C   UNL     1       5.644   0.487  -1.409  0.00  0.00    +0.176 C 
BRANCH  26  27
ATOM     27  C   UNL     1       6.835   1.397  -1.256  0.00  0.00    +0.099 A 
ATOM     28  N   UNL     1       6.854   2.619  -0.808  0.00  0.00    -0.243 NA
ATOM     29  C   UNL     1       7.994   3.334  -0.718  0.00  0.00    +0.079 A 
ATOM     30  C   UNL     1       8.201   4.653  -0.263  0.00  0.00    +0.029 A 
ATOM     31  C   UNL     1       9.450   5.194  -0.255  0.00  0.00    +0.002 A 
ATOM     32  C   UNL     1      10.556   4.477  -0.690  0.00  0.00    +0.001 A 
ATOM     33  C   UNL     1      10.393   3.182  -1.143  0.00  0.00    +0.017 A 
ATOM     34  C   UNL     1       9.136   2.626  -1.155  0.00  0.00    +0.039 A 
ATOM     35  S   UNL     1       8.444   1.061  -1.620  0.00  0.00    -0.071 S 
ENDBRANCH  26  27
BRANCH  26  36
ATOM     36  C   UNL     1       4.675   1.099  -2.333  0.00  0.00    +0.075 C 
ATOM     37  N   UNL     1       3.926   1.571  -3.045  0.00  0.00    -0.196 NA
ENDBRANCH  26  36
ENDBRANCH   1  26
TORSDOF 6
