REMARK  Name = ZINC35004454
REMARK  14 active torsions:
REMARK  status: ('A' for Active; 'I' for Inactive)
REMARK    1  A    between atoms: C_1  and  C_2
REMARK    2  A    between atoms: C_2  and  C_3
REMARK    3  A    between atoms: C_3  and  C_5
REMARK    4  A    between atoms: C_3  and  C_6
REMARK    5  A    between atoms: C_6  and  C_8
REMARK    6  A    between atoms: C_6  and  N_24
REMARK    7  A    between atoms: C_14  and  C_17
REMARK    8  A    between atoms: N_20  and  C_21
REMARK    9  A    between atoms: C_21  and  C_22
REMARK   10  A    between atoms: C_21  and  C_23
REMARK   11  A    between atoms: N_27  and  C_28
REMARK   12  A    between atoms: C_31  and  C_34
REMARK   13  A    between atoms: C_34  and  C_35
REMARK   14  A    between atoms: C_34  and  C_36
REMARK                            x       y       z     vdW  Elec       q    Type
REMARK                         _______ _______ _______ _____ _____    ______ ____
ROOT
ATOM      1  C   UNL     1       0.228  -1.567  -0.973  0.00  0.00    +0.163 C 
ENDROOT
BRANCH   1   2
ATOM      2  C   UNL     1      -1.074  -2.321  -1.062  0.00  0.00    +0.236 C 
ATOM      3  O   UNL     1      -1.995  -2.030  -0.328  0.00  0.00    -0.274 OA
ATOM      4  N   UNL     1      -1.215  -3.319  -1.957  0.00  0.00    -0.297 N 
ATOM      5  C   UNL     1      -0.171  -3.577  -2.959  0.00  0.00    +0.127 C 
ATOM      6  C   UNL     1      -0.810  -3.538  -4.353  0.00  0.00    +0.128 C 
ATOM      7  N   UNL     1      -2.009  -4.387  -4.344  0.00  0.00    -0.280 N 
ATOM      8  C   UNL     1      -3.053  -4.129  -3.342  0.00  0.00    +0.092 C 
ATOM      9  C   UNL     1      -2.411  -4.172  -1.945  0.00  0.00    +0.130 C 
ATOM     10  C   UNL     1      -3.671  -2.752  -3.589  0.00  0.00    +0.030 C 
ATOM     11  C   UNL     1      -2.150  -5.385  -5.239  0.00  0.00    +0.303 C 
ATOM     12  O   UNL     1      -3.191  -6.011  -5.293  0.00  0.00    -0.253 OA
ATOM     13  N   UNL     1      -1.136  -5.689  -6.074  0.00  0.00    -0.297 N 
ATOM     14  H   UNL     1      -0.279  -5.246  -5.978  0.00  0.00    +0.150 HD
BRANCH  13  15
ATOM     15  C   UNL     1      -1.330  -6.688  -7.128  0.00  0.00    +0.068 C 
ATOM     16  C   UNL     1      -1.948  -6.019  -8.358  0.00  0.00    +0.027 C 
ATOM     17  C   UNL     1       0.020  -7.300  -7.506  0.00  0.00    +0.027 C 
ENDBRANCH  13  15
ENDBRANCH   1   2
BRANCH   1  18
ATOM     18  N   UNL     1       0.531  -1.281   0.432  0.00  0.00    -0.288 N 
ATOM     19  C   UNL     1       1.807  -1.088   0.820  0.00  0.00    +0.304 C 
ATOM     20  O   UNL     1       2.707  -1.151   0.004  0.00  0.00    -0.252 OA
ATOM     21  N   UNL     1       2.086  -0.825   2.112  0.00  0.00    -0.269 N 
ATOM     22  H   UNL     1      -0.186  -1.231   1.083  0.00  0.00    +0.151 HD
ATOM     23  H   UNL     1       1.383  -0.866   2.778  0.00  0.00    +0.156 HD
BRANCH  21  24
ATOM     24  C   UNL     1       3.392  -0.493   2.492  0.00  0.00    +0.035 A 
ATOM     25  C   UNL     1       3.869  -0.869   3.741  0.00  0.00    +0.023 A 
ATOM     26  C   UNL     1       5.158  -0.541   4.113  0.00  0.00    +0.006 A 
ATOM     27  C   UNL     1       5.973   0.161   3.244  0.00  0.00    -0.045 A 
ATOM     28  C   UNL     1       5.500   0.538   2.000  0.00  0.00    +0.006 A 
ATOM     29  C   UNL     1       4.214   0.207   1.620  0.00  0.00    +0.023 A 
BRANCH  27  30
ATOM     30  C   UNL     1       7.378   0.518   3.654  0.00  0.00    +0.013 C 
ATOM     31  C   UNL     1       8.370  -0.113   2.675  0.00  0.00    +0.012 C 
ATOM     32  C   UNL     1       7.544   2.039   3.638  0.00  0.00    +0.012 C 
ENDBRANCH  27  30
ENDBRANCH  21  24
ENDBRANCH   1  18
BRANCH   1  33
ATOM     33  C   UNL     1       0.110  -0.252  -1.746  0.00  0.00    +0.015 C 
ATOM     34  C   UNL     1      -0.128  -0.552  -3.228  0.00  0.00    +0.010 C 
BRANCH  33  36
ATOM     35  C   UNL     1      -1.106   1.926  -1.883  0.00  0.00    +0.004 C 
ATOM     36  C   UNL     1      -1.064   0.560  -1.196  0.00  0.00    +0.002 C 
ENDBRANCH  33  36
ENDBRANCH   1  33
TORSDOF 7
