REMARK  Name = ZINC64403900
REMARK  7 active torsions:
REMARK  status: ('A' for Active; 'I' for Inactive)
REMARK    1  A    between atoms: C_4  and  C_7
REMARK    2  A    between atoms: C_9  and  C_13
REMARK    3  A    between atoms: N_15  and  C_16
REMARK    4  A    between atoms: C_16  and  C_17
REMARK    5  A    between atoms: C_17  and  O_18
REMARK    6  A    between atoms: O_18  and  C_19
REMARK    7  A    between atoms: C_25  and  C_29
REMARK                            x       y       z     vdW  Elec       q    Type
REMARK                         _______ _______ _______ _____ _____    ______ ____
ROOT
ATOM      1  O   UNL     1       4.347  -6.744  -2.322  0.00  0.00    -0.477 OA
ENDROOT
BRANCH   1   2
ATOM      2  C   UNL     1       3.938  -8.023  -2.165  0.00  0.00    +0.197 C 
ATOM      3  C   UNL     1       2.611  -8.301  -2.059  0.00  0.00    +0.067 C 
ATOM      4  C   UNL     1       2.161  -9.620  -1.895  0.00  0.00    +0.049 C 
ATOM      5  C   UNL     1       3.071 -10.656  -1.840  0.00  0.00    +0.134 C 
ATOM      6  N   UNL     1       2.920 -11.975  -1.694  0.00  0.00    -0.265 N 
ATOM      7  N   UNL     1       4.031 -12.618  -1.693  0.00  0.00    -0.181 NA
ATOM      8  C   UNL     1       5.128 -11.650  -1.858  0.00  0.00    +0.262 C 
ATOM      9  N   UNL     1       4.442 -10.356  -1.952  0.00  0.00    -0.204 N 
ATOM     10  N   UNL     1       4.866  -9.039  -2.119  0.00  0.00    -0.231 N 
ATOM     11  H   UNL     1       5.812  -8.838  -2.199  0.00  0.00    +0.173 HD
ATOM     12  H   UNL     1       2.055 -12.405  -1.598  0.00  0.00    +0.190 HD
BRANCH   8  13
ATOM     13  C   UNL     1       5.901 -11.936  -3.120  0.00  0.00    +0.000 A 
ATOM     14  C   UNL     1       6.494 -10.899  -3.816  0.00  0.00    +0.007 A 
ATOM     15  C   UNL     1       7.203 -11.160  -4.974  0.00  0.00    +0.003 A 
ATOM     16  C   UNL     1       7.319 -12.457  -5.437  0.00  0.00    +0.038 A 
ATOM     17  C   UNL     1       6.725 -13.496  -4.740  0.00  0.00    +0.124 A 
ATOM     18  C   UNL     1       6.020 -13.234  -3.577  0.00  0.00    +0.045 A 
ATOM     19  F   UNL     1       6.837 -14.764  -5.192  0.00  0.00    -0.205 F 
ENDBRANCH   8  13
ENDBRANCH   1   2
BRANCH   1  20
ATOM     20  C   UNL     1       5.754  -6.522  -2.434  0.00  0.00    +0.249 C 
BRANCH  20  21
ATOM     21  C   UNL     1       6.022  -5.025  -2.605  0.00  0.00    +0.145 C 
BRANCH  21  24
ATOM     22  C   UNL     1       5.756  -2.976  -1.313  0.00  0.00    +0.243 C 
ATOM     23  O   UNL     1       6.225  -2.361  -2.248  0.00  0.00    -0.273 OA
ATOM     24  N   UNL     1       5.612  -4.314  -1.391  0.00  0.00    -0.310 N 
ATOM     25  H   UNL     1       5.237  -4.806  -0.644  0.00  0.00    +0.149 HD
BRANCH  22  28
ATOM     26  C   UNL     1       3.699  -0.689  -0.037  0.00  0.00    +0.092 C 
ATOM     27  C   UNL     1       3.832  -2.029  -0.051  0.00  0.00    +0.040 C 
ATOM     28  C   UNL     1       5.335  -2.245  -0.065  0.00  0.00    +0.238 C 
ATOM     29  N   UNL     1       5.871  -0.874  -0.056  0.00  0.00    -0.170 NA
ATOM     30  N   UNL     1       4.919  -0.090  -0.047  0.00  0.00    -0.153 NA
BRANCH  26  34
ATOM     31  C   UNL     1      -0.017   1.379   0.010  0.00  0.00    +0.000 A 
ATOM     32  C   UNL     1       1.169   2.092   0.002  0.00  0.00    +0.001 A 
ATOM     33  C   UNL     1       2.377   1.426  -0.013  0.00  0.00    +0.010 A 
ATOM     34  C   UNL     1       2.402   0.033  -0.021  0.00  0.00    +0.002 A 
ATOM     35  C   UNL     1       1.205  -0.680  -0.013  0.00  0.00    +0.010 A 
ATOM     36  C   UNL     1       0.002  -0.004   0.002  0.00  0.00    +0.001 A 
ENDBRANCH  26  34
ENDBRANCH  22  28
ENDBRANCH  21  24
ENDBRANCH  20  21
ENDBRANCH   1  20
TORSDOF 7
