REMARK  Name = ZINC60379865
REMARK  6 active torsions:
REMARK  status: ('A' for Active; 'I' for Inactive)
REMARK    1  A    between atoms: C_4  and  N_7
REMARK    2  A    between atoms: N_7  and  C_8
REMARK    3  A    between atoms: N_12  and  C_14
REMARK    4  A    between atoms: C_14  and  C_15
REMARK    5  A    between atoms: N_20  and  S_23
REMARK    6  A    between atoms: S_23  and  C_26
REMARK                            x       y       z     vdW  Elec       q    Type
REMARK                         _______ _______ _______ _____ _____    ______ ____
ROOT
ATOM      1  C   UNL     1       7.119  -5.257   0.942  0.00  0.00    +0.199 C 
ATOM      2  O   UNL     1       7.060  -4.860   2.086  0.00  0.00    -0.278 OA
ATOM      3  N   UNL     1       7.854  -6.347   0.644  0.00  0.00    -0.300 N 
ATOM      4  C   UNL     1       7.940  -6.836  -0.740  0.00  0.00    +0.125 C 
ATOM      5  C   UNL     1       9.418  -6.921  -1.138  0.00  0.00    +0.128 C 
ATOM      6  N   UNL     1      10.148  -7.641  -0.086  0.00  0.00    -0.174 NA
ATOM      7  C   UNL     1      10.062  -7.152   1.298  0.00  0.00    +0.128 C 
ATOM      8  C   UNL     1       8.588  -7.064   1.696  0.00  0.00    +0.125 C 
ENDROOT
BRANCH   6   9
ATOM      9  S   UNL     1      11.051  -8.980  -0.452  0.00  0.00    +0.061 S 
ATOM     10  O   UNL     1      11.150  -9.743   0.744  0.00  0.00    -0.153 OA
ATOM     11  O   UNL     1      10.515  -9.515  -1.654  0.00  0.00    -0.153 OA
BRANCH   9  12
ATOM     12  C   UNL     1      12.680  -8.424  -0.829  0.00  0.00    +0.106 A 
ATOM     13  C   UNL     1      13.014  -8.090  -2.129  0.00  0.00    +0.029 A 
ATOM     14  C   UNL     1      14.292  -7.657  -2.417  0.00  0.00    +0.006 A 
ATOM     15  C   UNL     1      15.246  -7.553  -1.412  0.00  0.00    -0.044 A 
ATOM     16  C   UNL     1      14.911  -7.881  -0.118  0.00  0.00    -0.042 A 
ATOM     17  C   UNL     1      13.623  -8.314   0.171  0.00  0.00    +0.032 A 
ATOM     18  C   UNL     1      15.888  -7.777   1.024  0.00  0.00    +0.035 C 
ATOM     19  C   UNL     1      17.321  -7.708   0.499  0.00  0.00    +0.005 C 
ATOM     20  C   UNL     1      17.394  -6.610  -0.568  0.00  0.00    +0.005 C 
ATOM     21  C   UNL     1      16.623  -7.082  -1.799  0.00  0.00    +0.035 C 
ENDBRANCH   9  12
ENDBRANCH   6   9
BRANCH   1  22
ATOM     22  C   UNL     1       6.371  -4.532  -0.148  0.00  0.00    +0.019 C 
BRANCH  22  26
ATOM     23  C   UNL     1       3.641  -2.114  -0.044  0.00  0.00    +0.052 C 
ATOM     24  C   UNL     1       3.608  -2.659   1.402  0.00  0.00    +0.002 C 
ATOM     25  C   UNL     1       4.581  -3.863   1.341  0.00  0.00    -0.076 C 
ATOM     26  N   UNL     1       5.653  -3.388   0.430  0.00  0.00    +0.387 N 
ATOM     27  C   UNL     1       4.967  -2.626  -0.639  0.00  0.00    -0.056 C 
ATOM     28  H   UNL     1       6.294  -2.789   0.929  0.00  0.00    -0.081 HD
BRANCH  23  29
ATOM     29  N   UNL     1       3.620  -0.649  -0.036  0.00  0.00    -0.343 N 
ATOM     30  H   UNL     1       4.452  -0.152  -0.042  0.00  0.00    +0.146 HD
BRANCH  29  34
ATOM     31  C   UNL     1      -0.017   1.379   0.010  0.00  0.00    +0.000 A 
ATOM     32  C   UNL     1       1.169   2.089   0.002  0.00  0.00    +0.002 A 
ATOM     33  C   UNL     1       2.377   1.420  -0.013  0.00  0.00    +0.023 A 
ATOM     34  C   UNL     1       2.400   0.031  -0.021  0.00  0.00    +0.027 A 
ATOM     35  C   UNL     1       1.206  -0.680  -0.013  0.00  0.00    +0.023 A 
ATOM     36  C   UNL     1       0.002  -0.004   0.002  0.00  0.00    +0.002 A 
ENDBRANCH  29  34
ENDBRANCH  23  29
ENDBRANCH  22  26
ENDBRANCH   1  22
TORSDOF 6
