REMARK  Name = ZINC12602079
REMARK  6 active torsions:
REMARK  status: ('A' for Active; 'I' for Inactive)
REMARK    1  A    between atoms: C_1  and  C_2
REMARK    2  A    between atoms: C_5  and  C_8
REMARK    3  A    between atoms: N_17  and  N_18
REMARK    4  A    between atoms: N_18  and  C_19
REMARK    5  A    between atoms: C_24  and  C_25
REMARK    6  A    between atoms: C_26  and  C_28
REMARK                            x       y       z     vdW  Elec       q    Type
REMARK                         _______ _______ _______ _____ _____    ______ ____
ROOT
ATOM      1  C   UNL     1       0.059  -4.255  -0.021  0.00  0.00    +0.080 A 
ATOM      2  C   UNL     1       0.069  -4.952   1.155  0.00  0.00    +0.077 A 
ATOM      3  S   UNL     1       0.091  -6.633   0.545  0.00  0.00    -0.058 S 
ATOM      4  C   UNL     1       0.085  -6.237  -1.198  0.00  0.00    +0.189 A 
ATOM      5  N   UNL     1       0.062  -4.917  -1.168  0.00  0.00    -0.223 NA
ATOM      6  N   UNL     1       0.096  -7.093  -2.295  0.00  0.00    -0.130 N 
ATOM      7  C   UNL     1       0.108  -8.439  -2.224  0.00  0.00    +0.294 C 
ATOM      8  O   UNL     1       0.111  -9.120  -1.214  0.00  0.00    -0.266 OA
ATOM      9  C   UNL     1       0.116  -8.918  -3.617  0.00  0.00    +0.168 C 
ATOM     10  N   UNL     1       0.128 -10.170  -4.037  0.00  0.00    -0.175 NA
ATOM     11  C   UNL     1       0.107  -7.697  -4.437  0.00  0.00    +0.089 C 
ATOM     12  N   UNL     1       0.089  -6.682  -3.628  0.00  0.00    -0.173 NA
ATOM     13  C   UNL     1       0.111  -7.635  -5.942  0.00  0.00    +0.070 C 
ENDROOT
BRANCH   1  18
ATOM     14  C   UNL     1      -0.018   1.503   0.010  0.00  0.00    +0.044 C 
ATOM     15  C   UNL     1       0.002  -0.004   0.002  0.00  0.00    -0.050 A 
ATOM     16  C   UNL     1       0.006  -0.686  -1.201  0.00  0.00    +0.004 A 
ATOM     17  C   UNL     1       0.024  -2.066  -1.215  0.00  0.00    +0.010 A 
ATOM     18  C   UNL     1       0.040  -2.772  -0.013  0.00  0.00    +0.001 A 
ATOM     19  C   UNL     1       0.036  -2.079   1.196  0.00  0.00    +0.010 A 
ATOM     20  C   UNL     1       0.023  -0.700   1.198  0.00  0.00    +0.004 A 
ENDBRANCH   1  18
BRANCH  10  21
ATOM     21  N   UNL     1       0.135 -11.137  -3.184  0.00  0.00    -0.237 N 
ATOM     22  H   UNL     1       0.131 -10.945  -2.233  0.00  0.00    +0.174 HD
BRANCH  21  23
ATOM     23  C   UNL     1       0.147 -12.460  -3.628  0.00  0.00    +0.051 A 
ATOM     24  C   UNL     1       0.159 -12.737  -4.990  0.00  0.00    +0.025 A 
ATOM     25  C   UNL     1       0.172 -14.047  -5.426  0.00  0.00    +0.002 A 
ATOM     26  C   UNL     1       0.173 -15.083  -4.510  0.00  0.00    +0.000 A 
ATOM     27  C   UNL     1       0.162 -14.811  -3.154  0.00  0.00    +0.005 A 
ATOM     28  C   UNL     1       0.154 -13.503  -2.710  0.00  0.00    -0.028 A 
ATOM     29  C   UNL     1       0.148 -13.208  -1.232  0.00  0.00    +0.046 C 
ENDBRANCH  21  23
ENDBRANCH  10  21
TORSDOF 3
