REMARK  Name = ZINC32511596
REMARK  11 active torsions:
REMARK  status: ('A' for Active; 'I' for Inactive)
REMARK    1  A    between atoms: C_1  and  C_2
REMARK    2  A    between atoms: C_2  and  C_3
REMARK    3  A    between atoms: C_2  and  N_4
REMARK    4  A    between atoms: C_6  and  N_25
REMARK    5  A    between atoms: C_9  and  C_11
REMARK    6  A    between atoms: N_13  and  C_14
REMARK    7  A    between atoms: C_14  and  C_15
REMARK    8  A    between atoms: C_15  and  C_16
REMARK    9  A    between atoms: N_25  and  C_26
REMARK   10  A    between atoms: C_26  and  C_27
REMARK   11  A    between atoms: C_32  and  C_33
REMARK                            x       y       z     vdW  Elec       q    Type
REMARK                         _______ _______ _______ _____ _____    ______ ____
ROOT
ATOM      1  N   UNL     1       0.594  -0.716  -1.155  0.00  0.00    +0.390 N 
ATOM      2  C   UNL     1       1.980  -0.202  -1.114  0.00  0.00    -0.059 C 
ATOM      3  C   UNL     1       2.869  -1.439  -1.398  0.00  0.00    +0.036 C 
ATOM      4  C   UNL     1       2.096  -2.558  -0.651  0.00  0.00    +0.010 C 
ATOM      5  C   UNL     1       0.620  -2.160  -0.860  0.00  0.00    +0.021 C 
ATOM      6  H   UNL     1       0.205  -0.564  -2.074  0.00  0.00    -0.080 HD
ENDROOT
BRANCH   5   7
ATOM      7  C   UNL     1      -0.169  -2.442   0.392  0.00  0.00    +0.200 C 
ATOM      8  O   UNL     1       0.174  -1.954   1.448  0.00  0.00    -0.278 OA
ATOM      9  N   UNL     1      -1.256  -3.236   0.340  0.00  0.00    -0.316 N 
ATOM     10  H   UNL     1      -1.531  -3.627  -0.505  0.00  0.00    +0.149 HD
BRANCH   9  11
ATOM     11  C   UNL     1      -2.024  -3.510   1.557  0.00  0.00    +0.109 C 
BRANCH  11  12
ATOM     12  C   UNL     1      -3.199  -4.431   1.224  0.00  0.00    +0.054 C 
BRANCH  12  13
ATOM     13  C   UNL     1      -3.987  -4.713   2.477  0.00  0.00    -0.042 A 
ATOM     14  C   UNL     1      -3.657  -5.795   3.271  0.00  0.00    +0.007 A 
ATOM     15  C   UNL     1      -4.378  -6.057   4.422  0.00  0.00    +0.050 A 
ATOM     16  C   UNL     1      -5.434  -5.235   4.780  0.00  0.00    +0.166 A 
ATOM     17  C   UNL     1      -5.767  -4.145   3.980  0.00  0.00    +0.166 A 
ATOM     18  C   UNL     1      -5.037  -3.885   2.831  0.00  0.00    +0.053 A 
ATOM     19  O   UNL     1      -6.830  -3.500   4.541  0.00  0.00    -0.453 OA
ATOM     20  C   UNL     1      -7.402  -4.439   5.471  0.00  0.00    +0.466 C 
ATOM     21  O   UNL     1      -6.289  -5.273   5.844  0.00  0.00    -0.453 OA
ENDBRANCH  12  13
ENDBRANCH  11  12
ENDBRANCH   9  11
ENDBRANCH   5   7
BRANCH   1  23
ATOM     22  C   UNL     1      -0.099   1.491  -0.352  0.00  0.00    -0.013 C 
ATOM     23  C   UNL     1      -0.221  -0.021  -0.150  0.00  0.00    -0.074 C 
ATOM     24  C   UNL     1      -1.685  -0.439  -0.303  0.00  0.00    -0.013 C 
ENDBRANCH   1  23
BRANCH   3  25
ATOM     25  N   UNL     1       4.214  -1.260  -0.835  0.00  0.00    -0.311 NA
ATOM     26  H   UNL     1       4.480  -0.287  -0.835  0.00  0.00    +0.122 HD
BRANCH  25  27
ATOM     27  C   UNL     1       5.199  -2.076  -1.556  0.00  0.00    +0.117 C 
BRANCH  27  28
ATOM     28  C   UNL     1       6.564  -1.868  -0.951  0.00  0.00    -0.022 A 
ATOM     29  C   UNL     1       7.463  -1.007  -1.554  0.00  0.00    +0.005 A 
ATOM     30  C   UNL     1       8.714  -0.816  -0.999  0.00  0.00    +0.000 A 
ATOM     31  C   UNL     1       9.066  -1.484   0.159  0.00  0.00    +0.001 A 
ATOM     32  C   UNL     1       8.168  -2.344   0.761  0.00  0.00    +0.013 A 
ATOM     33  C   UNL     1       6.914  -2.532   0.209  0.00  0.00    +0.059 A 
BRANCH  33  34
ATOM     34  C   UNL     1       5.932  -3.465   0.869  0.00  0.00    +0.418 C 
ATOM     35  F   UNL     1       6.511  -4.015   2.018  0.00  0.00    -0.166 F 
ATOM     36  F   UNL     1       4.779  -2.756   1.221  0.00  0.00    -0.166 F 
ATOM     37  F   UNL     1       5.595  -4.492  -0.020  0.00  0.00    -0.166 F 
ENDBRANCH  33  34
ENDBRANCH  27  28
ENDBRANCH  25  27
ENDBRANCH   3  25
TORSDOF 9
