REMARK  Name = ZINC45942420
REMARK  5 active torsions:
REMARK  status: ('A' for Active; 'I' for Inactive)
REMARK    1  A    between atoms: C_1  and  C_2
REMARK    2  A    between atoms: C_5  and  C_8
REMARK    3  A    between atoms: C_9  and  O_29
REMARK    4  A    between atoms: N_12  and  C_22
REMARK    5  A    between atoms: C_13  and  C_15
REMARK                            x       y       z     vdW  Elec       q    Type
REMARK                         _______ _______ _______ _____ _____    ______ ____
ROOT
ATOM      1  C   UNL     1       0.059  -4.245  -0.021  0.00  0.00    +0.031 C 
ATOM      2  C   UNL     1       1.052  -5.036  -0.483  0.00  0.00    +0.185 C 
ATOM      3  C   UNL     1       0.678  -6.441  -0.308  0.00  0.00    +0.286 C 
ATOM      4  O   UNL     1       1.368  -7.391  -0.629  0.00  0.00    -0.266 OA
ATOM      5  N   UNL     1      -0.539  -6.530   0.259  0.00  0.00    -0.253 N 
ATOM      6  C   UNL     1      -1.025  -5.165   0.491  0.00  0.00    +0.146 C 
ENDROOT
BRANCH   1  11
ATOM      7  C   UNL     1      -0.018   1.503   0.010  0.00  0.00    +0.044 C 
ATOM      8  C   UNL     1       0.002  -0.004   0.002  0.00  0.00    -0.050 A 
ATOM      9  C   UNL     1       0.006  -0.686  -1.202  0.00  0.00    +0.004 A 
ATOM     10  C   UNL     1       0.024  -2.064  -1.218  0.00  0.00    +0.008 A 
ATOM     11  C   UNL     1       0.040  -2.774  -0.013  0.00  0.00    -0.016 A 
ATOM     12  C   UNL     1       0.036  -2.078   1.200  0.00  0.00    +0.008 A 
ATOM     13  C   UNL     1       0.023  -0.699   1.199  0.00  0.00    +0.004 A 
ENDBRANCH   1  11
BRANCH   6  14
ATOM     14  C   UNL     1      -1.249  -4.934   1.964  0.00  0.00    -0.021 A 
ATOM     15  C   UNL     1      -0.388  -5.494   2.890  0.00  0.00    +0.006 A 
ATOM     16  C   UNL     1      -0.593  -5.282   4.240  0.00  0.00    +0.001 A 
ATOM     17  C   UNL     1      -1.658  -4.510   4.666  0.00  0.00    +0.015 A 
ATOM     18  C   UNL     1      -2.519  -3.949   3.740  0.00  0.00    +0.018 A 
ATOM     19  C   UNL     1      -2.310  -4.157   2.388  0.00  0.00    +0.021 A 
ATOM     20 BR   UNL     1      -3.976  -2.894   4.321  0.00  0.00    -0.050 Br
ENDBRANCH   6  14
BRANCH   5  21
ATOM     21  C   UNL     1      -1.217  -7.713   0.575  0.00  0.00    +0.038 A 
ATOM     22  C   UNL     1      -2.478  -7.657   1.155  0.00  0.00    +0.026 A 
ATOM     23  C   UNL     1      -3.146  -8.825   1.466  0.00  0.00    +0.040 A 
ATOM     24  C   UNL     1      -2.559 -10.051   1.200  0.00  0.00    +0.124 A 
ATOM     25  C   UNL     1      -1.302 -10.109   0.622  0.00  0.00    +0.040 A 
ATOM     26  C   UNL     1      -0.633  -8.943   0.304  0.00  0.00    +0.026 A 
ATOM     27  F   UNL     1      -3.214 -11.193   1.506  0.00  0.00    -0.205 F 
ENDBRANCH   5  21
BRANCH   2  28
ATOM     28  O   UNL     1       2.218  -4.596  -1.027  0.00  0.00    -0.502 OA
ATOM     29  H   UNL     1       2.815  -5.305  -1.304  0.00  0.00    +0.292 HD
ENDBRANCH   2  28
TORSDOF 4
