REMARK  Name = ZINC27597026
REMARK  15 active torsions:
REMARK  status: ('A' for Active; 'I' for Inactive)
REMARK    1  A    between atoms: C_1  and  C_2
REMARK    2  A    between atoms: C_2  and  C_3
REMARK    3  A    between atoms: C_6  and  C_9
REMARK    4  A    between atoms: C_9  and  C_11
REMARK    5  A    between atoms: C_9  and  N_33
REMARK    6  A    between atoms: C_11  and  N_12
REMARK    7  A    between atoms: C_13  and  C_15
REMARK    8  A    between atoms: C_15  and  C_16
REMARK    9  A    between atoms: C_16  and  N_17
REMARK   10  A    between atoms: C_18  and  C_24
REMARK   11  A    between atoms: C_27  and  O_30
REMARK   12  A    between atoms: O_30  and  C_31
REMARK   13  A    between atoms: C_31  and  C_32
REMARK   14  A    between atoms: N_33  and  C_34
REMARK   15  A    between atoms: N_33  and  C_35
REMARK                            x       y       z     vdW  Elec       q    Type
REMARK                         _______ _______ _______ _____ _____    ______ ____
ROOT
ATOM      1  N   UNL     1       0.571  -1.572  -1.606  0.00  0.00    -0.316 N 
ATOM      2  C   UNL     1       0.415  -0.256  -1.361  0.00  0.00    +0.215 C 
ATOM      3  O   UNL     1       1.077   0.557  -1.971  0.00  0.00    -0.276 OA
ATOM      4  H   UNL     1      -0.029  -2.310  -1.053  0.00  0.00    +0.149 HD
ENDROOT
BRANCH   1   5
ATOM      5  C   UNL     1       1.540  -2.020  -2.610  0.00  0.00    +0.093 C 
BRANCH   5   6
ATOM      6  C   UNL     1       1.616  -3.548  -2.599  0.00  0.00    -0.021 C 
BRANCH   6  10
ATOM      7  C   UNL     1       4.172  -4.868  -5.757  0.00  0.00    -0.048 A 
ATOM      8  C   UNL     1       2.811  -4.760  -5.970  0.00  0.00    +0.004 A 
ATOM      9  C   UNL     1       1.983  -4.333  -4.948  0.00  0.00    +0.002 A 
ATOM     10  C   UNL     1       2.518  -4.014  -3.713  0.00  0.00    -0.059 A 
ATOM     11  C   UNL     1       3.880  -4.118  -3.502  0.00  0.00    +0.002 A 
ATOM     12  C   UNL     1       4.707  -4.550  -4.522  0.00  0.00    +0.004 A 
BRANCH   7  14
ATOM     13  C   UNL     1       5.556  -4.125  -7.676  0.00  0.00    +0.009 C 
ATOM     14  C   UNL     1       5.074  -5.333  -6.871  0.00  0.00    +0.032 C 
ENDBRANCH   7  14
ENDBRANCH   6  10
BRANCH   6  15
ATOM     15  N   UNL     1       2.154  -4.003  -1.310  0.00  0.00    +0.382 N 
ATOM     16  C   UNL     1       3.019  -2.978  -0.711  0.00  0.00    -0.096 C 
ATOM     17  C   UNL     1       1.073  -4.382  -0.392  0.00  0.00    -0.096 C 
ATOM     18  H   UNL     1       2.768  -4.896  -1.497  0.00  0.00    -0.082 HD
ENDBRANCH   6  15
ENDBRANCH   5   6
ENDBRANCH   1   5
BRANCH   2  19
ATOM     19  C   UNL     1      -0.581   0.204  -0.328  0.00  0.00    +0.117 C 
BRANCH  19  20
ATOM     20  C   UNL     1      -0.560   1.732  -0.246  0.00  0.00    +0.135 C 
BRANCH  20  21
ATOM     21  N   UNL     1      -1.529   2.180   0.758  0.00  0.00    -0.303 N 
ATOM     22  C   UNL     1      -2.829   2.572   0.509  0.00  0.00    +0.163 A 
ATOM     23  N   UNL     1      -3.388   2.899   1.641  0.00  0.00    -0.153 NA
ATOM     24  N   UNL     1      -2.438   2.730   2.658  0.00  0.00    -0.254 N 
ATOM     25  H   UNL     1      -2.703   2.957   3.701  0.00  0.00    +0.191 HD
ATOM     26  C   UNL     1      -1.302   2.286   2.083  0.00  0.00    +0.176 A 
ATOM     27  S   UNL     1       0.164   1.921   2.889  0.00  0.00    -0.011 S 
BRANCH  22  28
ATOM     28  C   UNL     1      -3.481   2.611  -0.818  0.00  0.00    +0.019 A 
ATOM     29  C   UNL     1      -2.985   1.831  -1.864  0.00  0.00    +0.015 A 
ATOM     30  C   UNL     1      -3.598   1.866  -3.098  0.00  0.00    +0.046 A 
ATOM     31  C   UNL     1      -4.701   2.684  -3.305  0.00  0.00    +0.121 A 
ATOM     32  C   UNL     1      -5.194   3.465  -2.268  0.00  0.00    +0.046 A 
ATOM     33  C   UNL     1      -4.590   3.432  -1.030  0.00  0.00    +0.015 A 
BRANCH  31  34
ATOM     34  O   UNL     1      -5.299   2.719  -4.524  0.00  0.00    -0.492 OA
BRANCH  34  35
ATOM     35  C   UNL     1      -4.741   1.890  -5.545  0.00  0.00    +0.225 C 
ATOM     36  C   UNL     1      -5.541   2.063  -6.837  0.00  0.00    +0.048 C 
ENDBRANCH  34  35
ENDBRANCH  31  34
ENDBRANCH  22  28
ENDBRANCH  20  21
ENDBRANCH  19  20
ENDBRANCH   2  19
TORSDOF 11
