REMARK  Name = ZINC39863509
REMARK  5 active torsions:
REMARK  status: ('A' for Active; 'I' for Inactive)
REMARK    1  A    between atoms: C_1  and  C_2
REMARK    2  A    between atoms: C_6  and  N_8
REMARK    3  A    between atoms: N_10  and  C_23
REMARK    4  A    between atoms: C_14  and  C_15
REMARK    5  A    between atoms: C_19  and  O_21
REMARK                            x       y       z     vdW  Elec       q    Type
REMARK                         _______ _______ _______ _____ _____    ______ ____
ROOT
ATOM      1  N   UNL     1       0.165  -2.993   2.124  0.00  0.00    -0.206 NA
ATOM      2  C   UNL     1       0.326  -2.359   3.265  0.00  0.00    +0.174 C 
ATOM      3  N   UNL     1       0.434  -1.002   3.483  0.00  0.00    -0.214 N 
ATOM      4  C   UNL     1       0.594  -0.527   4.707  0.00  0.00    +0.263 C 
ATOM      5  O   UNL     1       0.692   0.668   4.918  0.00  0.00    -0.269 OA
ATOM      6  C   UNL     1       0.649  -1.512   5.805  0.00  0.00    +0.078 C 
ATOM      7  C   UNL     1       0.803  -1.309   7.137  0.00  0.00    +0.028 C 
ATOM      8  S   UNL     1       0.449  -3.045   4.908  0.00  0.00    -0.048 S 
ENDROOT
BRANCH   1  14
ATOM      9  C   UNL     1       2.348  -0.897  -1.563  0.00  0.00    +0.065 C 
ATOM     10  C   UNL     1       1.079  -1.263  -0.838  0.00  0.00    +0.041 A 
ATOM     11  C   UNL     1      -0.140  -0.880  -1.363  0.00  0.00    +0.023 A 
ATOM     12  C   UNL     1      -1.310  -1.218  -0.694  0.00  0.00    +0.005 A 
ATOM     13  C   UNL     1      -1.213  -1.932   0.485  0.00  0.00    +0.048 A 
ATOM     14  C   UNL     1       0.052  -2.288   0.962  0.00  0.00    +0.155 A 
ATOM     15  N   UNL     1       1.147  -1.948   0.286  0.00  0.00    -0.233 NA
ENDBRANCH   1  14
BRANCH   7  16
ATOM     16  C   UNL     1       0.952  -2.456   8.044  0.00  0.00    -0.020 A 
ATOM     17  C   UNL     1       1.383  -3.692   7.549  0.00  0.00    +0.008 A 
ATOM     18  C   UNL     1       1.521  -4.765   8.403  0.00  0.00    +0.004 A 
ATOM     19  C   UNL     1       1.235  -4.625   9.749  0.00  0.00    +0.045 A 
ATOM     20  C   UNL     1       0.805  -3.404  10.251  0.00  0.00    +0.117 A 
ATOM     21  C   UNL     1       0.669  -2.316   9.406  0.00  0.00    +0.053 A 
BRANCH  20  22
ATOM     22  O   UNL     1       0.525  -3.274  11.575  0.00  0.00    -0.507 OA
ATOM     23  H   UNL     1       1.282  -3.006  12.113  0.00  0.00    +0.292 HD
ENDBRANCH  20  22
ENDBRANCH   7  16
BRANCH   3  24
ATOM     24  C   UNL     1       0.375  -0.118   2.398  0.00  0.00    +0.043 A 
ATOM     25  C   UNL     1       1.537   0.236   1.725  0.00  0.00    +0.024 A 
ATOM     26  C   UNL     1       1.475   1.108   0.655  0.00  0.00    +0.002 A 
ATOM     27  C   UNL     1       0.258   1.629   0.255  0.00  0.00    +0.000 A 
ATOM     28  C   UNL     1      -0.900   1.279   0.924  0.00  0.00    +0.002 A 
ATOM     29  C   UNL     1      -0.846   0.402   1.990  0.00  0.00    +0.024 A 
ENDBRANCH   3  24
TORSDOF 4
