REMARK  Name = ZINC67185716
REMARK  7 active torsions:
REMARK  status: ('A' for Active; 'I' for Inactive)
REMARK    1  A    between atoms: C_1  and  N_2
REMARK    2  A    between atoms: C_3  and  C_5
REMARK    3  A    between atoms: C_9  and  C_11
REMARK    4  A    between atoms: C_11  and  N_12
REMARK    5  A    between atoms: N_12  and  C_13
REMARK    6  A    between atoms: C_13  and  C_14
REMARK    7  A    between atoms: C_19  and  C_20
REMARK                            x       y       z     vdW  Elec       q    Type
REMARK                         _______ _______ _______ _____ _____    ______ ____
ROOT
ATOM      1  C   UNL     1       3.986  -5.950   3.900  0.00  0.00    -0.042 C 
ENDROOT
BRANCH   1   2
ATOM      2  C   UNL     1       5.435  -6.182   3.557  0.00  0.00    -0.016 A 
ATOM      3  C   UNL     1       5.963  -7.322   3.064  0.00  0.00    +0.107 A 
ATOM      4  N   UNL     1       7.289  -7.129   2.892  0.00  0.00    -0.284 N 
ATOM      5  H   UNL     1       7.919  -7.782   2.550  0.00  0.00    +0.188 HD
ATOM      6  N   UNL     1       7.596  -5.823   3.293  0.00  0.00    -0.171 NA
ATOM      7  C   UNL     1       6.480  -5.244   3.690  0.00  0.00    +0.129 A 
BRANCH   7   8
ATOM      8  C   UNL     1       6.348  -3.858   4.189  0.00  0.00    +0.156 A 
ATOM      9  C   UNL     1       7.280  -3.203   4.922  0.00  0.00    +0.060 A 
ATOM     10  C   UNL     1       6.726  -1.873   5.188  0.00  0.00    +0.021 A 
ATOM     11  C   UNL     1       7.183  -0.748   5.876  0.00  0.00    +0.011 A 
ATOM     12  C   UNL     1       6.400   0.370   5.941  0.00  0.00    +0.001 A 
ATOM     13  C   UNL     1       5.155   0.394   5.328  0.00  0.00    +0.004 A 
ATOM     14  C   UNL     1       4.687  -0.708   4.644  0.00  0.00    +0.047 A 
ATOM     15  C   UNL     1       5.466  -1.856   4.564  0.00  0.00    +0.136 A 
ATOM     16  O   UNL     1       5.286  -3.057   3.978  0.00  0.00    -0.453 OA
ENDBRANCH   7   8
ENDBRANCH   1   2
BRANCH   1  17
ATOM     17  N   UNL     1       3.337  -5.213   2.807  0.00  0.00    +0.384 N 
ATOM     18  H   UNL     1       3.399  -5.750   1.955  0.00  0.00    -0.085 HD
ATOM     19  H   UNL     1       3.798  -4.325   2.679  0.00  0.00    -0.085 HD
BRANCH  17  20
ATOM     20  C   UNL     1       1.924  -4.987   3.141  0.00  0.00    -0.046 C 
BRANCH  20  25
ATOM     21  C   UNL     1       0.624  -2.154   0.995  0.00  0.00    +0.037 A 
ATOM     22  C   UNL     1       0.025  -2.857  -0.051  0.00  0.00    +0.013 A 
ATOM     23  C   UNL     1       0.048  -4.236  -0.053  0.00  0.00    +0.001 A 
ATOM     24  C   UNL     1       0.662  -4.923   0.980  0.00  0.00    +0.002 A 
ATOM     25  C   UNL     1       1.258  -4.231   2.020  0.00  0.00    -0.064 A 
ATOM     26  C   UNL     1       1.247  -2.852   2.031  0.00  0.00    +0.014 A 
BRANCH  21  29
ATOM     27  C   UNL     1      -0.018   1.461   0.010  0.00  0.00    +0.128 C 
ATOM     28  N   UNL     1       0.002  -0.004   0.002  0.00  0.00    -0.314 N 
ATOM     29  C   UNL     1       0.604  -0.675   1.004  0.00  0.00    +0.244 C 
ATOM     30  O   UNL     1       1.131  -0.065   1.913  0.00  0.00    -0.270 OA
ATOM     31  H   UNL     1      -0.418  -0.491  -0.724  0.00  0.00    +0.149 HD
ENDBRANCH  21  29
ENDBRANCH  20  25
ENDBRANCH  17  20
ENDBRANCH   1  17
TORSDOF 6
