REMARK  Name = ZINC66929390
REMARK  7 active torsions:
REMARK  status: ('A' for Active; 'I' for Inactive)
REMARK    1  A    between atoms: C_10  and  C_11
REMARK    2  A    between atoms: C_10  and  O_30
REMARK    3  A    between atoms: C_11  and  N_12
REMARK    4  A    between atoms: C_13  and  C_15
REMARK    5  A    between atoms: C_15  and  C_16
REMARK    6  A    between atoms: C_16  and  N_17
REMARK    7  A    between atoms: C_18  and  C_20
REMARK                            x       y       z     vdW  Elec       q    Type
REMARK                         _______ _______ _______ _____ _____    ______ ____
ROOT
ATOM      1  N   UNL     1       4.837   1.444   0.478  0.00  0.00    -0.312 N 
ATOM      2  C   UNL     1       5.710   2.251   1.112  0.00  0.00    +0.215 C 
ATOM      3  O   UNL     1       6.373   1.823   2.033  0.00  0.00    -0.276 OA
ATOM      4  H   UNL     1       4.306   1.786  -0.259  0.00  0.00    +0.149 HD
ENDROOT
BRANCH   1   5
ATOM      5  C   UNL     1       4.689   0.049   0.901  0.00  0.00    +0.143 C 
BRANCH   5  15
ATOM      6  C   UNL     1       3.502  -4.769   1.163  0.00  0.00    +0.000 A 
ATOM      7  C   UNL     1       3.495  -3.749   2.096  0.00  0.00    +0.000 A 
ATOM      8  C   UNL     1       3.578  -2.438   1.677  0.00  0.00    +0.007 A 
ATOM      9  C   UNL     1       3.670  -2.133   0.325  0.00  0.00    -0.011 A 
ATOM     10  C   UNL     1       3.682  -3.149  -0.604  0.00  0.00    -0.041 A 
ATOM     11  C   UNL     1       3.595  -4.469  -0.180  0.00  0.00    +0.004 A 
ATOM     12  C   UNL     1       3.796  -2.893  -2.084  0.00  0.00    +0.035 C 
ATOM     13  C   UNL     1       3.451  -1.440  -2.406  0.00  0.00    +0.008 C 
ATOM     14  C   UNL     1       4.277  -0.532  -1.488  0.00  0.00    +0.041 C 
ATOM     15  C   UNL     1       3.750  -0.679  -0.063  0.00  0.00    +0.107 C 
BRANCH  15  16
ATOM     16  O   UNL     1       2.447  -0.097   0.020  0.00  0.00    -0.382 OA
ATOM     17  H   UNL     1       2.054  -0.138   0.902  0.00  0.00    +0.211 HD
ENDBRANCH  15  16
ENDBRANCH   5  15
ENDBRANCH   1   5
BRANCH   2  18
ATOM     18  C   UNL     1       5.862   3.686   0.677  0.00  0.00    +0.114 C 
BRANCH  18  19
ATOM     19  C   UNL     1       6.909   4.377   1.554  0.00  0.00    +0.114 C 
BRANCH  19  20
ATOM     20  N   UNL     1       7.056   5.771   1.131  0.00  0.00    -0.310 N 
ATOM     21  C   UNL     1       7.930   6.579   1.765  0.00  0.00    +0.265 C 
ATOM     22  O   UNL     1       8.595   6.150   2.688  0.00  0.00    -0.268 OA
ATOM     23  H   UNL     1       6.526   6.114   0.394  0.00  0.00    +0.149 HD
BRANCH  21  24
ATOM     24  C   UNL     1       8.078   7.982   1.339  0.00  0.00    +0.154 A 
ATOM     25  C   UNL     1       8.979   8.988   1.920  0.00  0.00    +0.032 A 
ATOM     26  C   UNL     1       9.911   9.006   2.953  0.00  0.00    +0.012 A 
ATOM     27  C   UNL     1      10.592  10.159   3.228  0.00  0.00    +0.001 A 
ATOM     28  C   UNL     1      10.361  11.310   2.485  0.00  0.00    +0.002 A 
ATOM     29  C   UNL     1       9.443  11.313   1.459  0.00  0.00    +0.028 A 
ATOM     30  C   UNL     1       8.739  10.151   1.162  0.00  0.00    +0.066 A 
ATOM     31  N   UNL     1       7.784   9.811   0.239  0.00  0.00    -0.276 N 
ATOM     32  N   UNL     1       7.436   8.582   0.360  0.00  0.00    -0.168 NA
ATOM     33  H   UNL     1       7.421  10.421  -0.423  0.00  0.00    +0.189 HD
ENDBRANCH  21  24
ENDBRANCH  19  20
ENDBRANCH  18  19
ENDBRANCH   2  18
TORSDOF 7
