REMARK  Name = ZINC39669235
REMARK  6 active torsions:
REMARK  status: ('A' for Active; 'I' for Inactive)
REMARK    1  A    between atoms: C_1  and  C_2
REMARK    2  A    between atoms: C_6  and  C_8
REMARK    3  A    between atoms: C_8  and  C_9
REMARK    4  A    between atoms: C_13  and  C_22
REMARK    5  A    between atoms: N_24  and  C_25
REMARK    6  A    between atoms: C_25  and  C_26
REMARK                            x       y       z     vdW  Elec       q    Type
REMARK                         _______ _______ _______ _____ _____    ______ ____
ROOT
ATOM      1  C   UNL     1       1.186  -3.003   3.003  0.00  0.00    +0.220 C 
ATOM      2  O   UNL     1       2.030  -2.528   2.273  0.00  0.00    -0.275 OA
ATOM      3  N   UNL     1       1.554  -3.689   4.103  0.00  0.00    -0.300 N 
ATOM      4  C   UNL     1       0.676  -4.343   5.102  0.00  0.00    +0.121 C 
ATOM      5  C   UNL     1       1.397  -5.665   5.449  0.00  0.00    +0.100 C 
ATOM      6  C   UNL     1       2.875  -5.407   5.111  0.00  0.00    -0.004 C 
ATOM      7  C   UNL     1       2.929  -3.966   4.583  0.00  0.00    +0.115 C 
ATOM      8  C   UNL     1       3.347  -6.375   4.031  0.00  0.00    -0.010 C 
ATOM      9  C   UNL     1       4.834  -6.137   3.753  0.00  0.00    -0.082 C 
ATOM     10  N   UNL     1       5.603  -6.336   4.987  0.00  0.00    +0.379 N 
ATOM     11  C   UNL     1       5.207  -5.340   5.990  0.00  0.00    -0.082 C 
ATOM     12  C   UNL     1       3.736  -5.545   6.363  0.00  0.00    -0.010 C 
ATOM     13  H   UNL     1       5.425  -7.262   5.347  0.00  0.00    -0.086 HD
ATOM     14  H   UNL     1       6.587  -6.239   4.788  0.00  0.00    -0.086 HD
ENDROOT
BRANCH   5  15
ATOM     15  C   UNL     1       0.854  -6.794   4.612  0.00  0.00    +0.218 C 
ATOM     16  O   UNL     1       0.423  -6.572   3.501  0.00  0.00    -0.275 OA
ATOM     17  N   UNL     1       0.848  -8.051   5.099  0.00  0.00    -0.312 N 
ATOM     18  H   UNL     1       1.193  -8.229   5.988  0.00  0.00    +0.149 HD
BRANCH  17  19
ATOM     19  C   UNL     1       0.320  -9.149   4.285  0.00  0.00    +0.140 C 
BRANCH  19  20
ATOM     20  C   UNL     1       0.428 -10.460   5.066  0.00  0.00    +0.165 C 
ATOM     21  C   UNL     1      -0.122 -11.586   4.230  0.00  0.00    -0.014 A 
ATOM     22  C   UNL     1      -1.306 -11.384   3.537  0.00  0.00    +0.006 A 
ATOM     23  C   UNL     1      -1.842 -12.394   2.765  0.00  0.00    +0.000 A 
ATOM     24  C   UNL     1      -1.197 -13.614   2.681  0.00  0.00    +0.000 A 
ATOM     25  C   UNL     1      -0.017 -13.816   3.369  0.00  0.00    +0.004 A 
ATOM     26  C   UNL     1       0.524 -12.801   4.143  0.00  0.00    -0.040 A 
ATOM     27  C   UNL     1       1.820 -13.055   4.869  0.00  0.00    +0.063 C 
ATOM     28  C   UNL     1       2.016 -12.001   5.961  0.00  0.00    +0.165 C 
ATOM     29  O   UNL     1       1.797 -10.709   5.385  0.00  0.00    -0.370 OA
ENDBRANCH  19  20
ENDBRANCH  17  19
ENDBRANCH   5  15
BRANCH   1  30
ATOM     30  C   UNL     1      -0.275  -2.827   2.679  0.00  0.00    +0.131 C 
BRANCH  30  36
ATOM     31  C   UNL     1      -0.722   1.584   0.357  0.00  0.00    +0.044 C 
ATOM     32  C   UNL     1      -0.629   0.081   0.297  0.00  0.00    -0.050 A 
ATOM     33  C   UNL     1      -0.673  -0.566  -0.924  0.00  0.00    +0.003 A 
ATOM     34  C   UNL     1      -0.589  -1.945  -0.979  0.00  0.00    +0.001 A 
ATOM     35  C   UNL     1      -0.460  -2.677   0.187  0.00  0.00    +0.004 A 
ATOM     36  C   UNL     1      -0.415  -2.030   1.408  0.00  0.00    -0.038 A 
ATOM     37  C   UNL     1      -0.495  -0.650   1.462  0.00  0.00    +0.007 A 
ENDBRANCH  30  36
ENDBRANCH   1  30
TORSDOF 5
