REMARK  Name = ZINC40316706
REMARK  13 active torsions:
REMARK  status: ('A' for Active; 'I' for Inactive)
REMARK    1  A    between atoms: C_1  and  C_2
REMARK    2  A    between atoms: C_2  and  C_3
REMARK    3  A    between atoms: C_3  and  O_4
REMARK    4  A    between atoms: O_4  and  C_5
REMARK    5  A    between atoms: C_8  and  C_11
REMARK    6  A    between atoms: C_11  and  N_12
REMARK    7  A    between atoms: N_12  and  C_13
REMARK    8  A    between atoms: N_12  and  C_26
REMARK    9  A    between atoms: C_13  and  C_14
REMARK   10  A    between atoms: C_14  and  C_16
REMARK   11  A    between atoms: C_14  and  O_25
REMARK   12  A    between atoms: C_16  and  O_17
REMARK   13  A    between atoms: O_17  and  C_18
REMARK                            x       y       z     vdW  Elec       q    Type
REMARK                         _______ _______ _______ _____ _____    ______ ____
ROOT
ATOM      1  N   UNL     1      -6.929  -4.615  -1.338  0.00  0.00    +0.387 N 
ATOM      2  H   UNL     1      -6.755  -3.717  -1.764  0.00  0.00    -0.081 HD
ENDROOT
BRANCH   1   3
ATOM      3  C   UNL     1      -6.038  -5.620  -1.933  0.00  0.00    -0.045 C 
ATOM      4  C   UNL     1      -5.948  -6.846  -1.010  0.00  0.00    +0.009 C 
ATOM      5  C   UNL     1      -4.782  -7.760  -1.458  0.00  0.00    +0.164 C 
ATOM      6  S   UNL     1      -3.617  -6.572  -2.244  0.00  0.00    -0.033 S 
ATOM      7  O   UNL     1      -3.480  -6.900  -3.619  0.00  0.00    -0.174 OA
ATOM      8  O   UNL     1      -2.456  -6.459  -1.433  0.00  0.00    -0.174 OA
ATOM      9  C   UNL     1      -4.609  -5.027  -2.091  0.00  0.00    +0.151 C 
ENDBRANCH   1   3
BRANCH   1  10
ATOM     10  C   UNL     1      -6.676  -4.530   0.106  0.00  0.00    -0.042 C 
BRANCH  10  14
ATOM     11  C   UNL     1      -2.772  -2.923   0.775  0.00  0.00    +0.121 A 
ATOM     12  C   UNL     1      -3.806  -2.092   0.367  0.00  0.00    +0.046 A 
ATOM     13  C   UNL     1      -5.066  -2.614   0.151  0.00  0.00    +0.005 A 
ATOM     14  C   UNL     1      -5.299  -3.963   0.342  0.00  0.00    -0.064 A 
ATOM     15  C   UNL     1      -4.271  -4.794   0.748  0.00  0.00    +0.005 A 
ATOM     16  C   UNL     1      -3.007  -4.278   0.959  0.00  0.00    +0.046 A 
BRANCH  11  17
ATOM     17  O   UNL     1      -1.531  -2.412   0.987  0.00  0.00    -0.492 OA
BRANCH  17  18
ATOM     18  C   UNL     1      -1.363  -1.009   0.778  0.00  0.00    +0.229 C 
BRANCH  18  20
ATOM     19  C   UNL     1       0.270   0.881   0.839  0.00  0.00    +0.007 C 
ATOM     20  C   UNL     1       0.089  -0.621   1.064  0.00  0.00    +0.038 C 
ENDBRANCH  18  20
ENDBRANCH  17  18
ENDBRANCH  11  17
ENDBRANCH  10  14
ENDBRANCH   1  10
BRANCH   1  21
ATOM     21  C   UNL     1      -8.327  -5.003  -1.568  0.00  0.00    -0.043 C 
BRANCH  21  22
ATOM     22  C   UNL     1      -8.651  -4.888  -3.059  0.00  0.00    +0.135 C 
BRANCH  22  23
ATOM     23  O   UNL     1      -8.034  -5.966  -3.765  0.00  0.00    -0.390 OA
ATOM     24  H   UNL     1      -8.381  -6.838  -3.531  0.00  0.00    +0.210 HD
ENDBRANCH  22  23
BRANCH  22  25
ATOM     25  C   UNL     1     -10.166  -4.947  -3.258  0.00  0.00    +0.258 C 
BRANCH  25  26
ATOM     26  O   UNL     1     -10.475  -4.723  -4.635  0.00  0.00    -0.489 OA
BRANCH  26  27
ATOM     27  C   UNL     1     -11.788  -4.743  -4.985  0.00  0.00    +0.121 A 
ATOM     28  C   UNL     1     -12.760  -4.969  -4.021  0.00  0.00    +0.047 A 
ATOM     29  C   UNL     1     -14.094  -4.989  -4.378  0.00  0.00    +0.019 A 
ATOM     30  C   UNL     1     -14.462  -4.785  -5.696  0.00  0.00    +0.018 A 
ATOM     31  C   UNL     1     -13.494  -4.560  -6.659  0.00  0.00    +0.019 A 
ATOM     32  C   UNL     1     -12.159  -4.533  -6.305  0.00  0.00    +0.047 A 
ATOM     33 BR   UNL     1     -16.289  -4.813  -6.182  0.00  0.00    -0.050 Br
ENDBRANCH  26  27
ENDBRANCH  25  26
ENDBRANCH  22  25
ENDBRANCH  21  22
ENDBRANCH   1  21
TORSDOF 12
