REMARK  Name = ZINC12311851
REMARK  9 active torsions:
REMARK  status: ('A' for Active; 'I' for Inactive)
REMARK    1  A    between atoms: C_1  and  C_2
REMARK    2  A    between atoms: C_5  and  C_8
REMARK    3  A    between atoms: N_12  and  C_13
REMARK    4  A    between atoms: C_16  and  C_20
REMARK    5  A    between atoms: C_17  and  C_19
REMARK    6  A    between atoms: N_21  and  N_22
REMARK    7  A    between atoms: C_23  and  C_24
REMARK    8  A    between atoms: C_27  and  O_31
REMARK    9  A    between atoms: C_29  and  O_30
REMARK                            x       y       z     vdW  Elec       q    Type
REMARK                         _______ _______ _______ _____ _____    ______ ____
ROOT
ATOM      1  C   UNL     1      -1.193   6.252   0.074  0.00  0.00    +0.082 A 
ATOM      2  C   UNL     1      -1.245   7.582  -0.152  0.00  0.00    +0.077 A 
ATOM      3  S   UNL     1       0.485   8.021  -0.204  0.00  0.00    -0.056 S 
ATOM      4  C   UNL     1       1.163   6.394   0.087  0.00  0.00    +0.195 A 
ATOM      5  N   UNL     1       2.425   6.020   0.170  0.00  0.00    -0.222 NA
ATOM      6  N   UNL     1       0.021   5.634   0.203  0.00  0.00    -0.207 N 
ENDROOT
BRANCH   5   7
ATOM      7  C   UNL     1       3.420   6.956   0.128  0.00  0.00    +0.067 A 
ATOM      8  C   UNL     1       3.945   7.478   1.313  0.00  0.00    +0.028 A 
ATOM      9  C   UNL     1       4.948   8.422   1.263  0.00  0.00    +0.006 A 
ATOM     10  C   UNL     1       5.436   8.854   0.041  0.00  0.00    -0.047 A 
ATOM     11  C   UNL     1       4.921   8.342  -1.137  0.00  0.00    -0.046 A 
ATOM     12  C   UNL     1       3.921   7.392  -1.102  0.00  0.00    +0.031 A 
ATOM     13  C   UNL     1       5.459   8.819  -2.462  0.00  0.00    +0.044 C 
ATOM     14  C   UNL     1       6.533   9.886  -0.006  0.00  0.00    +0.044 C 
ENDBRANCH   5   7
BRANCH   1  19
ATOM     15  C   UNL     1      -6.053   3.200   0.507  0.00  0.00    +0.044 C 
ATOM     16  C   UNL     1      -4.781   3.999   0.394  0.00  0.00    -0.050 A 
ATOM     17  C   UNL     1      -4.749   5.310   0.835  0.00  0.00    +0.004 A 
ATOM     18  C   UNL     1      -3.587   6.048   0.733  0.00  0.00    +0.010 A 
ATOM     19  C   UNL     1      -2.442   5.468   0.185  0.00  0.00    +0.001 A 
ATOM     20  C   UNL     1      -2.482   4.146  -0.262  0.00  0.00    +0.010 A 
ATOM     21  C   UNL     1      -3.649   3.419  -0.151  0.00  0.00    +0.004 A 
ENDBRANCH   1  19
BRANCH   6  22
ATOM     22  N   UNL     1       0.100   4.256   0.443  0.00  0.00    -0.172 NA
ATOM     23  C   UNL     1       1.162   3.596   0.092  0.00  0.00    +0.145 C 
BRANCH  23  24
ATOM     24  C   UNL     1       1.298   2.175   0.454  0.00  0.00    +0.036 A 
ATOM     25  C   UNL     1       2.400   1.440   0.007  0.00  0.00    +0.016 A 
ATOM     26  C   UNL     1       2.524   0.111   0.347  0.00  0.00    +0.046 A 
ATOM     27  C   UNL     1       1.556  -0.503   1.134  0.00  0.00    +0.120 A 
ATOM     28  C   UNL     1       0.459   0.218   1.583  0.00  0.00    +0.091 A 
ATOM     29  C   UNL     1       0.323   1.553   1.248  0.00  0.00    +0.129 A 
BRANCH  29  30
ATOM     30  O   UNL     1      -0.753   2.259   1.681  0.00  0.00    -0.506 OA
ATOM     31  H   UNL     1      -0.651   2.625   2.570  0.00  0.00    +0.292 HD
ENDBRANCH  29  30
BRANCH  27  32
ATOM     32  O   UNL     1       1.685  -1.815   1.465  0.00  0.00    -0.507 OA
ATOM     33  H   UNL     1       1.276  -2.421   0.833  0.00  0.00    +0.292 HD
ENDBRANCH  27  32
ENDBRANCH  23  24
ENDBRANCH   6  22
TORSDOF 6
