REMARK  Name = ZINC11914084
REMARK  16 active torsions:
REMARK  status: ('A' for Active; 'I' for Inactive)
REMARK    1  A    between atoms: C_1  and  C_2
REMARK    2  A    between atoms: C_2  and  O_3
REMARK    3  A    between atoms: O_3  and  C_4
REMARK    4  A    between atoms: C_6  and  C_16
REMARK    5  A    between atoms: C_9  and  O_10
REMARK    6  A    between atoms: O_10  and  C_11
REMARK    7  A    between atoms: C_11  and  C_12
REMARK    8  A    between atoms: C_12  and  C_13
REMARK    9  A    between atoms: C_13  and  C_14
REMARK   10  A    between atoms: C_13  and  C_15
REMARK   11  A    between atoms: C_19  and  C_30
REMARK   12  A    between atoms: N_26  and  C_27
REMARK   13  A    between atoms: C_27  and  C_28
REMARK   14  A    between atoms: C_28  and  O_29
REMARK   15  A    between atoms: C_32  and  C_37
REMARK   16  A    between atoms: C_35  and  O_36
REMARK                            x       y       z     vdW  Elec       q    Type
REMARK                         _______ _______ _______ _____ _____    ______ ____
ROOT
ATOM      1  C   UNL     1       0.916  -4.965   0.209  0.00  0.00    +0.141 C 
ATOM      2  C   UNL     1       0.964  -5.333  -1.249  0.00  0.00    +0.035 A 
ATOM      3  C   UNL     1       1.127  -4.902  -2.570  0.00  0.00    +0.102 A 
ATOM      4  N   UNL     1       1.016  -5.961  -3.347  0.00  0.00    -0.173 NA
ATOM      5  N   UNL     1       0.797  -7.018  -2.648  0.00  0.00    -0.272 N 
ATOM      6  H   UNL     1       0.682  -7.911  -3.010  0.00  0.00    +0.189 HD
ATOM      7  C   UNL     1       0.752  -6.697  -1.321  0.00  0.00    +0.126 A 
ATOM      8  C   UNL     1       0.572  -7.214   0.040  0.00  0.00    +0.266 C 
ATOM      9  O   UNL     1       0.367  -8.380   0.318  0.00  0.00    -0.268 OA
ATOM     10  N   UNL     1       0.666  -6.215   0.938  0.00  0.00    -0.283 N 
ENDROOT
BRANCH   3  11
ATOM     11  C   UNL     1       1.380  -3.509  -3.014  0.00  0.00    +0.044 A 
ATOM     12  C   UNL     1       2.330  -2.728  -2.361  0.00  0.00    +0.017 A 
ATOM     13  C   UNL     1       2.562  -1.433  -2.777  0.00  0.00    -0.050 A 
ATOM     14  C   UNL     1       1.853  -0.906  -3.843  0.00  0.00    +0.007 A 
ATOM     15  C   UNL     1       0.908  -1.673  -4.498  0.00  0.00    +0.046 A 
ATOM     16  C   UNL     1       0.670  -2.977  -4.094  0.00  0.00    +0.126 A 
ATOM     17  C   UNL     1       3.590  -0.588  -2.069  0.00  0.00    +0.044 C 
BRANCH  16  18
ATOM     18  O   UNL     1      -0.254  -3.733  -4.741  0.00  0.00    -0.506 OA
ATOM     19  H   UNL     1      -1.159  -3.605  -4.425  0.00  0.00    +0.292 HD
ENDBRANCH  16  18
ENDBRANCH   3  11
BRANCH   1  22
ATOM     20  C   UNL     1      -0.934  -1.778   1.043  0.00  0.00    +0.162 A 
ATOM     21  C   UNL     1       0.092  -2.680   0.811  0.00  0.00    +0.055 A 
ATOM     22  C   UNL     1      -0.201  -3.985   0.460  0.00  0.00    -0.019 A 
ATOM     23  C   UNL     1      -1.516  -4.393   0.339  0.00  0.00    +0.009 A 
ATOM     24  C   UNL     1      -2.544  -3.498   0.569  0.00  0.00    +0.050 A 
ATOM     25  C   UNL     1      -2.258  -2.191   0.927  0.00  0.00    +0.162 A 
BRANCH  20  26
ATOM     26  O   UNL     1      -0.647  -0.495   1.388  0.00  0.00    -0.489 OA
BRANCH  26  28
ATOM     27  C   UNL     1       0.857   1.330   1.884  0.00  0.00    +0.048 C 
ATOM     28  C   UNL     1       0.734  -0.143   1.489  0.00  0.00    +0.226 C 
ENDBRANCH  26  28
ENDBRANCH  20  26
BRANCH  25  29
ATOM     29  O   UNL     1      -3.268  -1.310   1.158  0.00  0.00    -0.488 OA
BRANCH  29  30
ATOM     30  C   UNL     1      -4.603  -1.803   1.021  0.00  0.00    +0.229 C 
BRANCH  30  31
ATOM     31  C   UNL     1      -5.595  -0.678   1.318  0.00  0.00    +0.044 C 
BRANCH  31  32
ATOM     32  C   UNL     1      -7.024  -1.206   1.171  0.00  0.00    -0.014 C 
ATOM     33  C   UNL     1      -7.287  -2.270   2.238  0.00  0.00    +0.007 C 
ATOM     34  C   UNL     1      -8.014  -0.053   1.345  0.00  0.00    +0.007 C 
ENDBRANCH  31  32
ENDBRANCH  30  31
ENDBRANCH  29  30
ENDBRANCH  25  29
ENDBRANCH   1  22
BRANCH  10  35
ATOM     35  C   UNL     1       0.540  -6.351   2.391  0.00  0.00    +0.137 C 
BRANCH  35  36
ATOM     36  C   UNL     1      -0.939  -6.314   2.781  0.00  0.00    +0.175 C 
BRANCH  36  37
ATOM     37  O   UNL     1      -1.602  -7.460   2.242  0.00  0.00    -0.393 OA
ATOM     38  H   UNL     1      -2.545  -7.502   2.450  0.00  0.00    +0.209 HD
ENDBRANCH  36  37
ENDBRANCH  35  36
ENDBRANCH  10  35
TORSDOF 12
