REMARK  Name = ZINC16684652
REMARK  10 active torsions:
REMARK  status: ('A' for Active; 'I' for Inactive)
REMARK    1  A    between atoms: C_1  and  C_2
REMARK    2  A    between atoms: C_2  and  O_3
REMARK    3  A    between atoms: O_3  and  C_4
REMARK    4  A    between atoms: C_4  and  C_6
REMARK    5  A    between atoms: C_7  and  C_25
REMARK    6  A    between atoms: C_10  and  N_11
REMARK    7  A    between atoms: C_12  and  C_14
REMARK    8  A    between atoms: C_14  and  S_15
REMARK    9  A    between atoms: S_15  and  C_16
REMARK   10  A    between atoms: C_22  and  N_24
REMARK                            x       y       z     vdW  Elec       q    Type
REMARK                         _______ _______ _______ _____ _____    ______ ____
ROOT
ATOM      1  N   UNL     1      -3.447   7.515  -1.554  0.00  0.00    -0.279 N 
ATOM      2  C   UNL     1      -3.729   8.810  -1.310  0.00  0.00    +0.228 C 
ATOM      3  O   UNL     1      -3.148   9.400  -0.423  0.00  0.00    -0.275 OA
ATOM      4  H   UNL     1      -3.974   6.980  -2.359  0.00  0.00    +0.155 HD
ENDROOT
BRANCH   1   9
ATOM      5  C   UNL     1      -2.073   5.538  -0.895  0.00  0.00    +0.096 A 
ATOM      6  C   UNL     1      -1.050   5.105   0.039  0.00  0.00    +0.012 A 
ATOM      7  C   UNL     1      -0.606   6.031   0.929  0.00  0.00    +0.057 A 
ATOM      8  S   UNL     1      -1.546   7.484   0.512  0.00  0.00    -0.080 S 
ATOM      9  C   UNL     1      -2.495   6.857  -0.793  0.00  0.00    +0.086 A 
BRANCH   6  10
ATOM     10  C   UNL     1      -0.523   3.725   0.027  0.00  0.00    +0.021 A 
ATOM     11  C   UNL     1       0.778   3.298   0.012  0.00  0.00    +0.016 A 
ATOM     12  C   UNL     1       1.031   1.943   0.003  0.00  0.00    +0.008 A 
ATOM     13  C   UNL     1      -0.013   1.076   0.008  0.00  0.00    +0.046 A 
ATOM     14  S   UNL     1      -1.416   2.179   0.019  0.00  0.00    -0.097 S 
ENDBRANCH   6  10
BRANCH   5  15
ATOM     15  C   UNL     1      -2.633   4.630  -1.895  0.00  0.00    +0.342 C 
ATOM     16  O   UNL     1      -3.613   3.960  -1.629  0.00  0.00    -0.245 OA
BRANCH  15  17
ATOM     17  O   UNL     1      -2.062   4.534  -3.114  0.00  0.00    -0.461 OA
BRANCH  17  19
ATOM     18  C   UNL     1      -1.881   3.656  -5.358  0.00  0.00    +0.048 C 
ATOM     19  C   UNL     1      -2.661   3.627  -4.042  0.00  0.00    +0.229 C 
ENDBRANCH  17  19
ENDBRANCH  15  17
ENDBRANCH   5  15
ENDBRANCH   1   9
BRANCH   2  20
ATOM     20  C   UNL     1      -4.765   9.526  -2.138  0.00  0.00    +0.173 C 
BRANCH  20  21
ATOM     21  S   UNL     1      -4.914  11.238  -1.570  0.00  0.00    -0.078 S 
BRANCH  21  22
ATOM     22  C   UNL     1      -6.154  11.821  -2.678  0.00  0.00    +0.171 A 
ATOM     23  N   UNL     1      -6.576  13.113  -2.587  0.00  0.00    -0.302 N 
ATOM     24  H   UNL     1      -6.143  13.781  -1.828  0.00  0.00    +0.171 HD
ATOM     25  C   UNL     1      -7.524  13.576  -3.428  0.00  0.00    +0.254 A 
ATOM     26  O   UNL     1      -7.908  14.733  -3.354  0.00  0.00    -0.268 OA
ATOM     27  C   UNL     1      -8.061  12.709  -4.385  0.00  0.00    +0.113 A 
ATOM     28  C   UNL     1      -7.597  11.402  -4.435  0.00  0.00    +0.124 A 
ATOM     29  N   UNL     1      -6.651  11.000  -3.580  0.00  0.00    -0.209 NA
BRANCH  28  30
ATOM     30  N   UNL     1      -8.107  10.522  -5.369  0.00  0.00    -0.343 N 
ATOM     31  H   UNL     1      -7.739   9.486  -5.407  0.00  0.00    +0.144 HD
ATOM     32  H   UNL     1      -8.882  10.856  -6.074  0.00  0.00    +0.144 HD
ENDBRANCH  28  30
ENDBRANCH  21  22
ENDBRANCH  20  21
ENDBRANCH   2  20
TORSDOF 9
