REMARK  Name = ZINC42015469
REMARK  4 active torsions:
REMARK  status: ('A' for Active; 'I' for Inactive)
REMARK    1  A    between atoms: C_1  and  C_2
REMARK    2  A    between atoms: C_7  and  N_8
REMARK    3  A    between atoms: C_9  and  C_13
REMARK    4  A    between atoms: C_18  and  N_19
REMARK                            x       y       z     vdW  Elec       q    Type
REMARK                         _______ _______ _______ _____ _____    ______ ____
ROOT
ATOM      1  N   UNL     1      -0.541  -0.167   2.871  0.00  0.00    -0.192 N 
ATOM      2  C   UNL     1       0.389  -0.731   3.695  0.00  0.00    +0.189 A 
ATOM      3  N   UNL     1       1.086   0.258   4.219  0.00  0.00    -0.108 NA
ATOM      4  N   UNL     1       0.660   1.388   3.784  0.00  0.00    -0.022 NA
ATOM      5  N   UNL     1      -0.317   1.218   2.961  0.00  0.00    -0.039 NA
ENDROOT
BRANCH   1  12
ATOM      6  C   UNL     1       0.004  -0.587   0.110  0.00  0.00    +0.046 C 
ATOM      7  C   UNL     1      -1.280  -1.051   0.747  0.00  0.00    -0.024 A 
ATOM      8  C   UNL     1      -2.231  -1.706  -0.012  0.00  0.00    +0.025 A 
ATOM      9  C   UNL     1      -3.410  -2.134   0.573  0.00  0.00    +0.041 A 
ATOM     10  C   UNL     1      -3.640  -1.905   1.919  0.00  0.00    +0.022 A 
ATOM     11  C   UNL     1      -2.693  -1.251   2.681  0.00  0.00    +0.029 A 
ATOM     12  C   UNL     1      -1.506  -0.826   2.098  0.00  0.00    +0.072 A 
ATOM     13 CL   UNL     1      -4.603  -2.957  -0.383  0.00  0.00    -0.084 Cl
ENDBRANCH   1  12
BRANCH   2  14
ATOM     14  C   UNL     1       0.579  -2.174   3.952  0.00  0.00    +0.043 A 
ATOM     15  C   UNL     1       0.663  -3.070   2.886  0.00  0.00    +0.033 A 
ATOM     16  C   UNL     1       0.841  -4.417   3.132  0.00  0.00    +0.042 A 
ATOM     17  C   UNL     1       0.936  -4.883   4.433  0.00  0.00    +0.022 A 
ATOM     18  C   UNL     1       0.854  -4.006   5.497  0.00  0.00    +0.025 A 
ATOM     19  C   UNL     1       0.681  -2.648   5.266  0.00  0.00    +0.036 A 
ATOM     20 CL   UNL     1       0.945  -5.531   1.804  0.00  0.00    -0.084 Cl
BRANCH  19  21
ATOM     21  N   UNL     1       0.605  -1.761   6.338  0.00  0.00    -0.357 N 
ATOM     22  H   UNL     1       0.480  -0.813   6.175  0.00  0.00    +0.142 HD
ATOM     23  H   UNL     1       0.676  -2.091   7.248  0.00  0.00    +0.142 HD
ENDBRANCH  19  21
ENDBRANCH   2  14
TORSDOF 3
