REMARK  Name = ZINC59384927
REMARK  9 active torsions:
REMARK  status: ('A' for Active; 'I' for Inactive)
REMARK    1  A    between atoms: C_1  and  C_2
REMARK    2  A    between atoms: C_3  and  C_18
REMARK    3  A    between atoms: C_4  and  C_10
REMARK    4  A    between atoms: N_20  and  N_21
REMARK    5  A    between atoms: C_22  and  C_23
REMARK    6  A    between atoms: C_26  and  O_31
REMARK    7  A    between atoms: C_28  and  O_29
REMARK    8  A    between atoms: O_29  and  C_30
REMARK    9  A    between atoms: O_31  and  C_32
REMARK                            x       y       z     vdW  Elec       q    Type
REMARK                         _______ _______ _______ _____ _____    ______ ____
ROOT
ATOM      1  C   UNL     1      -1.565  -1.133   2.372  0.00  0.00    +0.061 C 
ATOM      2  C   UNL     1      -0.741  -1.230   1.114  0.00  0.00    +0.017 C 
ATOM      3  C   UNL     1      -1.179  -0.635  -0.015  0.00  0.00    +0.057 C 
ATOM      4  C   UNL     1      -0.319  -0.757  -1.257  0.00  0.00    +0.141 C 
ATOM      5  N   UNL     1       0.933  -1.521  -1.128  0.00  0.00    -0.315 N 
ATOM      6  C   UNL     1       1.237  -2.058   0.070  0.00  0.00    +0.135 C 
ATOM      7  S   UNL     1       2.690  -2.948   0.234  0.00  0.00    -0.019 S 
ATOM      8  N   UNL     1       0.441  -1.915   1.137  0.00  0.00    -0.300 N 
ATOM      9  H   UNL     1       1.526  -1.634  -1.888  0.00  0.00    +0.149 HD
ATOM     10  H   UNL     1       0.718  -2.322   1.972  0.00  0.00    +0.154 HD
ENDROOT
BRANCH   4  11
ATOM     11  C   UNL     1      -1.149  -1.406  -2.335  0.00  0.00    -0.004 A 
ATOM     12  C   UNL     1      -1.127  -2.779  -2.492  0.00  0.00    +0.008 A 
ATOM     13  C   UNL     1      -1.887  -3.375  -3.480  0.00  0.00    +0.020 A 
ATOM     14  C   UNL     1      -2.672  -2.596  -4.313  0.00  0.00    +0.042 A 
ATOM     15  C   UNL     1      -2.695  -1.222  -4.156  0.00  0.00    +0.040 A 
ATOM     16  C   UNL     1      -1.937  -0.627  -3.163  0.00  0.00    +0.048 A 
ATOM     17 CL   UNL     1      -1.970   1.097  -2.962  0.00  0.00    -0.083 Cl
ATOM     18 CL   UNL     1      -3.627  -3.345  -5.555  0.00  0.00    -0.083 Cl
ENDBRANCH   4  11
BRANCH   3  19
ATOM     19  C   UNL     1      -2.402   0.079  -0.039  0.00  0.00    +0.263 C 
ATOM     20  O   UNL     1      -2.399   1.294   0.036  0.00  0.00    -0.269 OA
ATOM     21  N   UNL     1      -3.569  -0.587  -0.146  0.00  0.00    -0.203 N 
ATOM     22  H   UNL     1      -3.577  -1.557  -0.132  0.00  0.00    +0.178 HD
BRANCH  21  23
ATOM     23  N   UNL     1      -4.771   0.122  -0.275  0.00  0.00    -0.187 NA
ATOM     24  C   UNL     1      -5.883  -0.518  -0.475  0.00  0.00    +0.142 C 
BRANCH  24  25
ATOM     25  C   UNL     1      -7.128   0.230  -0.721  0.00  0.00    +0.036 A 
ATOM     26  C   UNL     1      -8.328  -0.455  -0.931  0.00  0.00    +0.016 A 
ATOM     27  C   UNL     1      -9.490   0.248  -1.161  0.00  0.00    +0.046 A 
ATOM     28  C   UNL     1      -9.474   1.638  -1.186  0.00  0.00    +0.124 A 
ATOM     29  C   UNL     1      -8.288   2.327  -0.979  0.00  0.00    +0.091 A 
ATOM     30  C   UNL     1      -7.115   1.632  -0.741  0.00  0.00    +0.132 A 
BRANCH  30  31
ATOM     31  O   UNL     1      -5.955   2.306  -0.532  0.00  0.00    -0.494 OA
ATOM     32  C   UNL     1      -6.018   3.733  -0.566  0.00  0.00    +0.277 C 
ENDBRANCH  30  31
BRANCH  28  33
ATOM     33  O   UNL     1     -10.624   2.324  -1.414  0.00  0.00    -0.495 OA
ATOM     34  C   UNL     1     -11.810   1.553  -1.620  0.00  0.00    +0.277 C 
ENDBRANCH  28  33
ENDBRANCH  24  25
ENDBRANCH  21  23
ENDBRANCH   3  19
TORSDOF 6
