REMARK  Name = ZINC63234696
REMARK  11 active torsions:
REMARK  status: ('A' for Active; 'I' for Inactive)
REMARK    1  A    between atoms: C_7  and  C_10
REMARK    2  A    between atoms: C_10  and  C_12
REMARK    3  A    between atoms: C_10  and  C_30
REMARK    4  A    between atoms: C_12  and  N_13
REMARK    5  A    between atoms: N_13  and  C_14
REMARK    6  A    between atoms: C_14  and  C_15
REMARK    7  A    between atoms: C_15  and  C_17
REMARK    8  A    between atoms: C_15  and  O_29
REMARK    9  A    between atoms: C_17  and  O_18
REMARK   10  A    between atoms: O_18  and  C_19
REMARK   11  A    between atoms: C_19  and  C_20
REMARK                            x       y       z     vdW  Elec       q    Type
REMARK                         _______ _______ _______ _____ _____    ______ ____
ROOT
ATOM      1  C   UNL     1       0.923  -4.026  -1.281  0.00  0.00    -0.070 C 
ENDROOT
BRANCH   1   2
ATOM      2  N   UNL     1      -0.072  -5.105  -1.340  0.00  0.00    +0.381 N 
ATOM      3  H   UNL     1       0.017  -5.690  -0.523  0.00  0.00    -0.086 HD
ATOM      4  H   UNL     1      -0.999  -4.706  -1.369  0.00  0.00    -0.086 HD
BRANCH   2   5
ATOM      5  C   UNL     1       0.151  -5.912  -2.547  0.00  0.00    -0.049 C 
BRANCH   5   6
ATOM      6  C   UNL     1      -0.886  -7.035  -2.608  0.00  0.00    +0.123 C 
BRANCH   6   7
ATOM      7  O   UNL     1      -0.760  -7.864  -1.451  0.00  0.00    -0.391 OA
ATOM      8  H   UNL     1       0.108  -8.281  -1.358  0.00  0.00    +0.210 HD
ENDBRANCH   6   7
BRANCH   6   9
ATOM      9  C   UNL     1      -0.653  -7.876  -3.865  0.00  0.00    +0.189 C 
BRANCH   9  10
ATOM     10  O   UNL     1      -1.690  -8.852  -3.984  0.00  0.00    -0.373 OA
BRANCH  10  11
ATOM     11  C   UNL     1      -1.566  -9.695  -5.131  0.00  0.00    +0.195 C 
BRANCH  11  12
ATOM     12  C   UNL     1      -2.706 -10.680  -5.157  0.00  0.00    -0.018 A 
ATOM     13  C   UNL     1      -2.575 -11.903  -4.524  0.00  0.00    +0.010 A 
ATOM     14  C   UNL     1      -3.618 -12.810  -4.544  0.00  0.00    +0.050 A 
ATOM     15  C   UNL     1      -4.798 -12.495  -5.199  0.00  0.00    +0.166 A 
ATOM     16  C   UNL     1      -4.930 -11.264  -5.836  0.00  0.00    +0.167 A 
ATOM     17  C   UNL     1      -3.882 -10.358  -5.807  0.00  0.00    +0.055 A 
ATOM     18  O   UNL     1      -6.170 -11.196  -6.401  0.00  0.00    -0.453 OA
ATOM     19  C   UNL     1      -6.644 -12.555  -6.453  0.00  0.00    +0.466 C 
ATOM     20  O   UNL     1      -5.956 -13.199  -5.364  0.00  0.00    -0.453 OA
ENDBRANCH  11  12
ENDBRANCH  10  11
ENDBRANCH   9  10
ENDBRANCH   6   9
ENDBRANCH   5   6
ENDBRANCH   2   5
ENDBRANCH   1   2
BRANCH   1  21
ATOM     21  C   UNL     1       0.691  -3.186  -0.024  0.00  0.00    +0.032 C 
BRANCH  21  28
ATOM     22  C   UNL     1      -0.016   1.348   0.009  0.00  0.00    +0.001 A 
ATOM     23  C   UNL     1       1.166   2.101   0.002  0.00  0.00    +0.002 A 
ATOM     24  C   UNL     1       2.391   1.535  -0.013  0.00  0.00    +0.026 A 
ATOM     25  C   UNL     1       2.529   0.120  -0.022  0.00  0.00    +0.043 A 
ATOM     26  N   UNL     1       3.587  -0.654  -0.037  0.00  0.00    -0.380 N 
ATOM     27  C   UNL     1       3.143  -2.053  -0.041  0.00  0.00    +0.145 C 
ATOM     28  C   UNL     1       1.631  -2.008  -0.025  0.00  0.00    -0.036 C 
ATOM     29  C   UNL     1       1.295  -0.698  -0.014  0.00  0.00    -0.001 A 
ATOM     30  C   UNL     1       0.002  -0.004   0.002  0.00  0.00    +0.010 A 
ATOM     31  H   UNL     1       4.509  -0.353  -0.045  0.00  0.00    +0.160 HD
ENDBRANCH  21  28
BRANCH  21  32
ATOM     32  C   UNL     1       0.944  -4.029   1.199  0.00  0.00    -0.024 A 
ATOM     33  C   UNL     1       2.189  -4.591   1.405  0.00  0.00    +0.005 A 
ATOM     34  C   UNL     1       2.422  -5.365   2.527  0.00  0.00    +0.000 A 
ATOM     35  C   UNL     1       1.408  -5.577   3.443  0.00  0.00    +0.001 A 
ATOM     36  C   UNL     1       0.162  -5.016   3.238  0.00  0.00    +0.020 A 
ATOM     37  C   UNL     1      -0.069  -4.237   2.118  0.00  0.00    +0.045 A 
ATOM     38 CL   UNL     1      -1.632  -3.525   1.863  0.00  0.00    -0.083 Cl
ENDBRANCH  21  32
ENDBRANCH   1  21
TORSDOF 11
