REMARK  Name = ZINC13108544
REMARK  9 active torsions:
REMARK  status: ('A' for Active; 'I' for Inactive)
REMARK    1  A    between atoms: C_1  and  C_2
REMARK    2  A    between atoms: C_11  and  S_15
REMARK    3  A    between atoms: S_15  and  C_16
REMARK    4  A    between atoms: C_16  and  C_18
REMARK    5  A    between atoms: C_16  and  C_19
REMARK    6  A    between atoms: C_19  and  C_21
REMARK    7  A    between atoms: C_22  and  N_31
REMARK    8  A    between atoms: N_23  and  C_30
REMARK    9  A    between atoms: N_26  and  C_29
REMARK                            x       y       z     vdW  Elec       q    Type
REMARK                         _______ _______ _______ _____ _____    ______ ____
ROOT
ATOM      1  C   UNL     1       0.084   4.020   1.358  0.00  0.00    +0.121 C 
ATOM      2  C   UNL     1      -0.057   3.714   2.850  0.00  0.00    +0.028 C 
ENDROOT
BRANCH   1   3
ATOM      3  C   UNL     1       1.323   3.350   0.822  0.00  0.00    +0.185 C 
ATOM      4  O   UNL     1       2.366   3.969   0.751  0.00  0.00    -0.291 OA
BRANCH   3   5
ATOM      5  C   UNL     1       1.272   2.003   0.403  0.00  0.00    +0.121 A 
ATOM      6  C   UNL     1       2.378   1.394  -0.216  0.00  0.00    +0.116 A 
ATOM      7  N   UNL     1       2.280   0.088  -0.605  0.00  0.00    -0.284 N 
ATOM      8  C   UNL     1       1.156  -0.617  -0.406  0.00  0.00    +0.333 A 
ATOM      9  O   UNL     1       1.120  -1.776  -0.770  0.00  0.00    -0.246 OA
ATOM     10  N   UNL     1       0.069  -0.089   0.180  0.00  0.00    -0.263 N 
ATOM     11  C   UNL     1       0.063   1.193   0.600  0.00  0.00    +0.269 A 
ATOM     12  O   UNL     1      -0.925   1.670   1.127  0.00  0.00    -0.267 OA
ATOM     13  C   UNL     1      -1.126  -0.915   0.366  0.00  0.00    +0.157 C 
ATOM     14  C   UNL     1       3.426  -0.555  -1.252  0.00  0.00    +0.155 C 
BRANCH   6  15
ATOM     15  N   UNL     1       3.526   2.094  -0.425  0.00  0.00    -0.344 N 
ATOM     16  H   UNL     1       4.368   1.625  -0.525  0.00  0.00    +0.144 HD
ATOM     17  H   UNL     1       3.501   3.062  -0.475  0.00  0.00    +0.144 HD
ENDBRANCH   6  15
ENDBRANCH   3   5
ENDBRANCH   1   3
BRANCH   1  18
ATOM     18  S   UNL     1       0.214   5.809   1.118  0.00  0.00    -0.094 S 
BRANCH  18  28
ATOM     19  C   UNL     1       1.146  12.450   0.142  0.00  0.00    +0.008 C 
ATOM     20  C   UNL     1       0.558  11.208   0.814  0.00  0.00    -0.009 C 
ATOM     21  C   UNL     1       0.823   9.978  -0.059  0.00  0.00    +0.008 C 
ATOM     22  C   UNL     1       0.463   8.707   0.712  0.00  0.00    +0.037 C 
ATOM     23  C   UNL     1      -0.961   8.841   1.244  0.00  0.00    -0.025 A 
ATOM     24  C   UNL     1      -1.549  10.051   1.341  0.00  0.00    -0.004 A 
ATOM     25  S   UNL     1      -3.166   9.728   1.994  0.00  0.00    -0.073 S 
ATOM     26  C   UNL     1      -3.049   7.964   2.136  0.00  0.00    +0.113 A 
ATOM     27  C   UNL     1      -1.749   7.683   1.669  0.00  0.00    +0.043 A 
ATOM     28  C   UNL     1      -1.382   6.309   1.675  0.00  0.00    +0.109 A 
ATOM     29  N   UNL     1      -2.257   5.410   2.098  0.00  0.00    -0.229 NA
ATOM     30  C   UNL     1      -3.459   5.747   2.528  0.00  0.00    +0.223 A 
ATOM     31  N   UNL     1      -3.856   7.005   2.546  0.00  0.00    -0.228 NA
ATOM     32  C   UNL     1      -0.960  11.379   0.975  0.00  0.00    +0.046 C 
ENDBRANCH  18  28
ENDBRANCH   1  18
TORSDOF 5
