REMARK  Name = ZINC64540858
REMARK  10 active torsions:
REMARK  status: ('A' for Active; 'I' for Inactive)
REMARK    1  A    between atoms: C_1  and  C_2
REMARK    2  A    between atoms: N_8  and  C_9
REMARK    3  A    between atoms: C_9  and  C_10
REMARK    4  A    between atoms: C_10  and  C_11
REMARK    5  A    between atoms: C_11  and  N_12
REMARK    6  A    between atoms: C_13  and  C_15
REMARK    7  A    between atoms: C_15  and  C_16
REMARK    8  A    between atoms: C_22  and  C_24
REMARK    9  A    between atoms: C_30  and  O_34
REMARK   10  A    between atoms: O_34  and  C_35
REMARK                            x       y       z     vdW  Elec       q    Type
REMARK                         _______ _______ _______ _____ _____    ______ ____
ROOT
ATOM      1  C   UNL     1       8.198   0.500   5.345  0.00  0.00    +0.001 C 
ATOM      2  C   UNL     1       9.036  -0.117   4.224  0.00  0.00    +0.023 C 
ATOM      3  C   UNL     1      10.435   0.508   4.234  0.00  0.00    +0.108 C 
ATOM      4  N   UNL     1      11.013   0.351   5.576  0.00  0.00    -0.300 N 
ATOM      5  C   UNL     1      10.247   0.830   6.735  0.00  0.00    +0.108 C 
ATOM      6  C   UNL     1       8.851   0.201   6.697  0.00  0.00    +0.023 C 
ATOM      7  C   UNL     1      12.223  -0.220   5.740  0.00  0.00    +0.242 C 
ATOM      8  O   UNL     1      12.845  -0.611   4.775  0.00  0.00    -0.273 OA
ENDROOT
BRANCH   7   9
ATOM      9  C   UNL     1      12.802  -0.373   7.122  0.00  0.00    +0.190 C 
ATOM     10  C   UNL     1      13.014   0.985   7.752  0.00  0.00    +0.016 C 
ATOM     11  C   UNL     1      14.340   1.084   7.995  0.00  0.00    -0.003 A 
ATOM     12  C   UNL     1      15.164   2.146   8.585  0.00  0.00    +0.013 A 
ATOM     13  C   UNL     1      16.496   1.956   8.701  0.00  0.00    +0.046 A 
ATOM     14  C   UNL     1      17.112   0.765   8.270  0.00  0.00    +0.122 A 
ATOM     15  C   UNL     1      16.414  -0.258   7.715  0.00  0.00    +0.071 A 
ATOM     16  C   UNL     1      15.010  -0.159   7.549  0.00  0.00    +0.047 A 
ATOM     17  N   UNL     1      14.128  -0.997   7.049  0.00  0.00    -0.370 N 
ATOM     18  H   UNL     1      14.321  -1.877   6.691  0.00  0.00    +0.161 HD
BRANCH  14  19
ATOM     19  O   UNL     1      18.454   0.636   8.414  0.00  0.00    -0.495 OA
ATOM     20  C   UNL     1      19.152   1.736   9.002  0.00  0.00    +0.277 C 
ENDBRANCH  14  19
ENDBRANCH   7   9
BRANCH   1  21
ATOM     21  C   UNL     1       6.789  -0.096   5.316  0.00  0.00    +0.099 C 
BRANCH  21  23
ATOM     22  N   UNL     1       4.842  -0.112   3.791  0.00  0.00    -0.315 N 
ATOM     23  C   UNL     1       6.101   0.302   4.036  0.00  0.00    +0.213 C 
ATOM     24  O   UNL     1       6.680   0.995   3.227  0.00  0.00    -0.276 OA
ATOM     25  H   UNL     1       4.379  -0.666   4.439  0.00  0.00    +0.149 HD
BRANCH  22  26
ATOM     26  C   UNL     1       4.173   0.276   2.547  0.00  0.00    +0.102 C 
BRANCH  26  27
ATOM     27  C   UNL     1       2.764  -0.321   2.518  0.00  0.00    +0.000 C 
BRANCH  27  28
ATOM     28  C   UNL     1       2.066   0.083   1.218  0.00  0.00    -0.077 C 
BRANCH  28  35
ATOM     29  C   UNL     1      -0.019   1.526   0.010  0.00  0.00    -0.013 C 
ATOM     30  C   UNL     1       0.002  -0.004   0.002  0.00  0.00    -0.072 C 
ATOM     31  C   UNL     1      -1.434  -0.533   0.011  0.00  0.00    -0.016 C 
ATOM     32  C   UNL     1      -1.408  -2.064   0.003  0.00  0.00    -0.003 C 
ATOM     33  C   UNL     1      -0.600  -2.558   1.206  0.00  0.00    -0.019 C 
ATOM     34  C   UNL     1       0.805  -1.954   1.152  0.00  0.00    -0.078 C 
ATOM     35  N   UNL     1       0.713  -0.490   1.191  0.00  0.00    +0.381 N 
ATOM     36  H   UNL     1       0.213  -0.206   2.020  0.00  0.00    -0.081 HD
ENDBRANCH  28  35
ENDBRANCH  27  28
ENDBRANCH  26  27
ENDBRANCH  22  26
ENDBRANCH  21  23
ENDBRANCH   1  21
TORSDOF 8
