REMARK  Name = ZINC63272893
REMARK  9 active torsions:
REMARK  status: ('A' for Active; 'I' for Inactive)
REMARK    1  A    between atoms: C_1  and  C_2
REMARK    2  A    between atoms: C_4  and  C_34
REMARK    3  A    between atoms: N_6  and  C_30
REMARK    4  A    between atoms: C_7  and  N_20
REMARK    5  A    between atoms: C_9  and  C_11
REMARK    6  A    between atoms: C_21  and  C_23
REMARK    7  A    between atoms: C_30  and  C_31
REMARK    8  A    between atoms: C_31  and  O_32
REMARK    9  A    between atoms: O_32  and  C_33
REMARK                            x       y       z     vdW  Elec       q    Type
REMARK                         _______ _______ _______ _____ _____    ______ ____
ROOT
ATOM      1  C   UNL     1      -0.019   1.526   0.010  0.00  0.00    +0.009 C 
ATOM      2  C   UNL     1       0.002  -0.004   0.002  0.00  0.00    +0.013 C 
ATOM      3  C   UNL     1      -1.432  -0.558   0.083  0.00  0.00    +0.059 C 
ATOM      4  N   UNL     1      -1.510  -1.383   1.309  0.00  0.00    -0.279 NA
ATOM      5  C   UNL     1      -0.466  -0.851   2.221  0.00  0.00    +0.151 C 
ATOM      6  C   UNL     1       0.716  -0.538   1.265  0.00  0.00    +0.071 C 
ATOM      7  C   UNL     1      -2.434   0.596   0.162  0.00  0.00    +0.024 C 
ENDROOT
BRANCH   6   8
ATOM      8  C   UNL     1       1.630   0.533   1.864  0.00  0.00    +0.180 C 
ATOM      9  N   UNL     1       2.693   0.878   0.912  0.00  0.00    -0.363 N 
ATOM     10  C   UNL     1       3.831   0.595   1.478  0.00  0.00    +0.060 A 
ATOM     11  C   UNL     1       5.226   0.717   1.032  0.00  0.00    +0.027 A 
ATOM     12  C   UNL     1       6.223   0.335   1.855  0.00  0.00    +0.002 A 
ATOM     13  C   UNL     1       5.987  -0.184   3.141  0.00  0.00    +0.002 A 
ATOM     14  C   UNL     1       4.747  -0.338   3.647  0.00  0.00    +0.027 A 
ATOM     15  C   UNL     1       3.582   0.047   2.839  0.00  0.00    +0.060 A 
ATOM     16  N   UNL     1       2.300   0.011   3.062  0.00  0.00    -0.363 N 
ATOM     17  H   UNL     1       2.570   1.248   0.024  0.00  0.00    +0.162 HD
ATOM     18  H   UNL     1       1.867  -0.302   3.871  0.00  0.00    +0.162 HD
ENDBRANCH   6   8
BRANCH   5  19
ATOM     19  N   UNL     1      -0.933   0.367   2.888  0.00  0.00    -0.295 N 
ATOM     20  C   UNL     1      -1.276   0.333   4.191  0.00  0.00    +0.245 C 
ATOM     21  O   UNL     1      -1.198  -0.709   4.813  0.00  0.00    -0.270 OA
ATOM     22  H   UNL     1      -0.996   1.198   2.392  0.00  0.00    +0.151 HD
BRANCH  20  23
ATOM     23  C   UNL     1      -1.748   1.561   4.863  0.00  0.00    +0.037 A 
ATOM     24  C   UNL     1      -1.844   2.757   4.149  0.00  0.00    +0.016 A 
ATOM     25  C   UNL     1      -2.284   3.900   4.782  0.00  0.00    +0.039 A 
ATOM     26  C   UNL     1      -2.631   3.863   6.124  0.00  0.00    +0.123 A 
ATOM     27  C   UNL     1      -2.537   2.678   6.837  0.00  0.00    +0.039 A 
ATOM     28  C   UNL     1      -2.104   1.528   6.213  0.00  0.00    +0.016 A 
ATOM     29  F   UNL     1      -3.061   4.987   6.739  0.00  0.00    -0.205 F 
ENDBRANCH  20  23
ENDBRANCH   5  19
BRANCH   4  30
ATOM     30  C   UNL     1      -2.842  -1.290   1.921  0.00  0.00    +0.114 C 
BRANCH  30  31
ATOM     31  C   UNL     1      -3.862  -2.008   1.035  0.00  0.00    +0.175 C 
BRANCH  31  32
ATOM     32  O   UNL     1      -3.561  -3.404   0.996  0.00  0.00    -0.382 OA
ATOM     33  C   UNL     1      -4.459  -4.170   0.191  0.00  0.00    +0.194 C 
ENDBRANCH  31  32
ENDBRANCH  30  31
ENDBRANCH   4  30
TORSDOF 6
