REMARK  Name = ZINC39597878
REMARK  5 active torsions:
REMARK  status: ('A' for Active; 'I' for Inactive)
REMARK    1  A    between atoms: C_7  and  C_10
REMARK    2  A    between atoms: C_10  and  C_11
REMARK    3  A    between atoms: C_11  and  N_12
REMARK    4  A    between atoms: C_13  and  C_15
REMARK    5  A    between atoms: C_26  and  C_28
REMARK                            x       y       z     vdW  Elec       q    Type
REMARK                         _______ _______ _______ _____ _____    ______ ____
ROOT
ATOM      1  C   UNL     1      -5.326   7.901  -2.022  0.00  0.00    +0.100 C 
ATOM      2  C   UNL     1      -6.814   7.493  -1.936  0.00  0.00    +0.121 C 
ATOM      3  N   UNL     1      -7.524   8.487  -2.774  0.00  0.00    -0.300 N 
ATOM      4  C   UNL     1      -6.628   8.696  -3.937  0.00  0.00    +0.115 C 
ATOM      5  C   UNL     1      -5.208   8.690  -3.337  0.00  0.00    -0.004 C 
ATOM      6  C   UNL     1      -4.238   7.993  -4.286  0.00  0.00    -0.010 C 
ATOM      7  C   UNL     1      -4.092   8.826  -5.562  0.00  0.00    -0.082 C 
ATOM      8  N   UNL     1      -3.597  10.165  -5.221  0.00  0.00    +0.379 N 
ATOM      9  C   UNL     1      -4.580  10.864  -4.384  0.00  0.00    -0.082 C 
ATOM     10  C   UNL     1      -4.746  10.117  -3.058  0.00  0.00    -0.010 C 
ATOM     11  C   UNL     1      -8.715   9.071  -2.534  0.00  0.00    +0.219 C 
ATOM     12  O   UNL     1      -9.296   8.855  -1.492  0.00  0.00    -0.275 OA
ATOM     13  H   UNL     1      -2.727  10.082  -4.718  0.00  0.00    -0.086 HD
ATOM     14  H   UNL     1      -3.444  10.691  -6.068  0.00  0.00    -0.086 HD
ENDROOT
BRANCH  11  15
ATOM     15  C   UNL     1      -9.324   9.991  -3.560  0.00  0.00    +0.079 C 
ATOM     16  C   UNL     1     -10.271  10.980  -2.869  0.00  0.00    +0.017 C 
ATOM     17  C   UNL     1     -10.734  12.010  -3.901  0.00  0.00    +0.027 C 
ATOM     18  C   UNL     1     -11.220  11.316  -5.141  0.00  0.00    -0.031 C 
ATOM     19  C   UNL     1     -10.954  10.084  -5.434  0.00  0.00    -0.030 C 
ATOM     20  C   UNL     1     -10.127   9.172  -4.573  0.00  0.00    +0.039 C 
ENDBRANCH  11  15
BRANCH   1  22
ATOM     21  N   UNL     1      -3.188   6.735  -1.588  0.00  0.00    -0.315 N 
ATOM     22  C   UNL     1      -4.448   6.677  -2.063  0.00  0.00    +0.218 C 
ATOM     23  O   UNL     1      -4.875   5.640  -2.524  0.00  0.00    -0.275 OA
ATOM     24  H   UNL     1      -2.846   7.565  -1.220  0.00  0.00    +0.149 HD
BRANCH  21  25
ATOM     25  C   UNL     1      -2.334   5.545  -1.629  0.00  0.00    +0.109 C 
BRANCH  25  26
ATOM     26  C   UNL     1      -0.965   5.880  -1.033  0.00  0.00    +0.056 C 
BRANCH  26  33
ATOM     27  C   UNL     1       1.803   4.029  -4.332  0.00  0.00    +0.001 A 
ATOM     28  C   UNL     1       2.435   2.865  -3.917  0.00  0.00    +0.002 A 
ATOM     29  C   UNL     1       2.224   2.364  -2.651  0.00  0.00    +0.026 A 
ATOM     30  C   UNL     1       1.369   3.029  -1.779  0.00  0.00    +0.047 A 
ATOM     31  N   UNL     1       0.961   2.790  -0.486  0.00  0.00    -0.360 N 
ATOM     32  C   UNL     1       0.094   3.769  -0.083  0.00  0.00    +0.087 A 
ATOM     33  C   UNL     1      -0.087   4.656  -1.074  0.00  0.00    -0.021 A 
ATOM     34  C   UNL     1       0.731   4.208  -2.204  0.00  0.00    +0.003 A 
ATOM     35  C   UNL     1       0.963   4.701  -3.489  0.00  0.00    +0.010 A 
ATOM     36  H   UNL     1       1.245   2.039   0.059  0.00  0.00    +0.165 HD
ENDBRANCH  26  33
ENDBRANCH  25  26
ENDBRANCH  21  25
ENDBRANCH   1  22
TORSDOF 5
