REMARK  Name = ZINC08635627
REMARK  9 active torsions:
REMARK  status: ('A' for Active; 'I' for Inactive)
REMARK    1  A    between atoms: C_1  and  O_2
REMARK    2  A    between atoms: O_2  and  C_3
REMARK    3  A    between atoms: C_8  and  N_9
REMARK    4  A    between atoms: C_14  and  C_15
REMARK    5  A    between atoms: C_14  and  N_66
REMARK    6  A    between atoms: C_23  and  C_25
REMARK    7  A    between atoms: C_25  and  N_26
REMARK    8  A    between atoms: N_26  and  S_27
REMARK    9  A    between atoms: S_27  and  C_30
REMARK                            x       y       z     vdW  Elec       q    Type
REMARK                         _______ _______ _______ _____ _____    ______ ____
ROOT
ATOM      1  C   UNL     1      -0.254  -6.766  -1.425  0.00  0.00    -0.041 C 
ATOM      2  C   UNL     1       0.860  -6.463  -2.430  0.00  0.00    -0.077 C 
ATOM      3  C   UNL     1       0.418  -8.525  -3.624  0.00  0.00    -0.078 C 
ATOM      4  C   UNL     1      -0.729  -8.883  -2.649  0.00  0.00    -0.015 C 
ATOM      5  C   UNL     1      -0.389  -8.287  -1.277  0.00  0.00    -0.015 C 
ATOM      6  C   UNL     1       0.955  -8.852  -0.799  0.00  0.00    -0.011 C 
ATOM      7  C   UNL     1       2.035  -8.492  -1.822  0.00  0.00    -0.053 C 
ATOM      8  N   UNL     1       1.452  -7.720  -2.939  0.00  0.00    +0.383 N 
ATOM      9  H   UNL     1       2.195  -7.490  -3.610  0.00  0.00    -0.081 HD
ENDROOT
BRANCH   1  10
ATOM     10  C   UNL     1       0.096  -6.148  -0.070  0.00  0.00    -0.077 C 
BRANCH  10  16
ATOM     11  N   UNL     1      -3.138  -5.696   2.611  0.00  0.00    -0.331 N 
ATOM     12  C   UNL     1      -3.398  -6.354   1.322  0.00  0.00    +0.086 C 
ATOM     13  C   UNL     1      -2.286  -5.991   0.334  0.00  0.00    -0.060 C 
ATOM     14  C   UNL     1      -0.730  -5.754   2.172  0.00  0.00    -0.060 C 
ATOM     15  C   UNL     1      -1.841  -6.116   3.160  0.00  0.00    +0.086 C 
ATOM     16  N   UNL     1      -0.991  -6.438   0.889  0.00  0.00    +0.382 N 
ATOM     17  H   UNL     1      -1.030  -7.451   1.053  0.00  0.00    -0.082 HD
BRANCH  11  23
ATOM     18  C   UNL     1      -4.955  -4.896   3.994  0.00  0.00    +0.141 A 
ATOM     19  C   UNL     1      -5.977  -5.149   4.893  0.00  0.00    +0.047 A 
ATOM     20  C   UNL     1      -6.220  -6.443   5.318  0.00  0.00    +0.004 A 
ATOM     21  C   UNL     1      -5.444  -7.486   4.848  0.00  0.00    +0.002 A 
ATOM     22  C   UNL     1      -4.422  -7.241   3.950  0.00  0.00    +0.027 A 
ATOM     23  C   UNL     1      -4.172  -5.947   3.519  0.00  0.00    +0.072 A 
BRANCH  18  25
ATOM     24  C   UNL     1      -5.556  -2.597   4.104  0.00  0.00    +0.277 C 
ATOM     25  O   UNL     1      -4.715  -3.624   3.575  0.00  0.00    -0.493 OA
ENDBRANCH  18  25
ENDBRANCH  11  23
ENDBRANCH  10  16
ENDBRANCH   1  10
BRANCH   7  26
ATOM     26  C   UNL     1       3.118  -7.649  -1.145  0.00  0.00    +0.091 C 
BRANCH  26  27
ATOM     27  N   UNL     1       4.089  -7.205  -2.149  0.00  0.00    -0.191 NA
ATOM     28  H   UNL     1       4.110  -7.625  -3.023  0.00  0.00    +0.148 HD
BRANCH  27  29
ATOM     29  S   UNL     1       5.151  -5.986  -1.790  0.00  0.00    +0.065 S 
ATOM     30  O   UNL     1       5.967  -5.808  -2.940  0.00  0.00    -0.153 OA
ATOM     31  O   UNL     1       4.383  -4.930  -1.230  0.00  0.00    -0.153 OA
BRANCH  29  32
ATOM     32  C   UNL     1       6.208  -6.575  -0.509  0.00  0.00    +0.142 A 
ATOM     33  C   UNL     1       7.386  -7.237  -0.612  0.00  0.00    +0.036 A 
ATOM     34  C   UNL     1       8.052  -7.603   0.543  0.00  0.00    +0.010 A 
ATOM     35  C   UNL     1       7.501  -7.299   1.744  0.00  0.00    +0.047 A 
ATOM     36  S   UNL     1       5.999  -6.463   1.260  0.00  0.00    -0.077 S 
ENDBRANCH  29  32
ENDBRANCH  27  29
ENDBRANCH  26  27
ENDBRANCH   7  26
TORSDOF 8
