REMARK  Name = ZINC50956076
REMARK  8 active torsions:
REMARK  status: ('A' for Active; 'I' for Inactive)
REMARK    1  A    between atoms: C_1  and  C_2
REMARK    2  A    between atoms: C_4  and  N_17
REMARK    3  A    between atoms: C_7  and  S_8
REMARK    4  A    between atoms: S_8  and  C_9
REMARK    5  A    between atoms: C_9  and  C_11
REMARK    6  A    between atoms: C_9  and  C_12
REMARK    7  A    between atoms: C_12  and  C_13
REMARK    8  A    between atoms: C_13  and  C_14
REMARK                            x       y       z     vdW  Elec       q    Type
REMARK                         _______ _______ _______ _____ _____    ______ ____
ROOT
ATOM      1  C   UNL     1       0.435   1.431  -0.001  0.00  0.00    +0.045 C 
ATOM      2  C   UNL     1       0.220  -0.061  -0.002  0.00  0.00    -0.035 A 
ATOM      3  C   UNL     1       0.227  -0.759  -1.193  0.00  0.00    +0.027 A 
ATOM      4  C   UNL     1       0.028  -2.133  -1.194  0.00  0.00    +0.025 A 
ATOM      5  C   UNL     1      -0.178  -2.806   0.003  0.00  0.00    +0.024 A 
ATOM      6  C   UNL     1      -0.185  -2.109   1.194  0.00  0.00    +0.017 A 
ATOM      7  C   UNL     1       0.020  -0.735   1.196  0.00  0.00    +0.011 A 
ENDROOT
BRANCH   4   8
ATOM      8  N   UNL     1       0.034  -2.840  -2.402  0.00  0.00    -0.358 N 
ATOM      9  H   UNL     1       0.178  -2.370  -3.239  0.00  0.00    +0.142 HD
ATOM     10  H   UNL     1      -0.105  -3.800  -2.403  0.00  0.00    +0.142 HD
ENDBRANCH   4   8
BRANCH   7  11
ATOM     11  S   UNL     1       0.019   0.154   2.718  0.00  0.00    -0.122 S 
BRANCH  11  12
ATOM     12  C   UNL     1      -0.098  -1.140   3.983  0.00  0.00    +0.049 C 
ATOM     13  C   UNL     1       1.210  -1.933   4.023  0.00  0.00    +0.019 C 
BRANCH  12  14
ATOM     14  C   UNL     1      -0.347  -0.498   5.349  0.00  0.00    +0.025 C 
BRANCH  14  15
ATOM     15  C   UNL     1      -1.713   0.191   5.347  0.00  0.00    +0.126 C 
BRANCH  15  16
ATOM     16  C   UNL     1      -1.958   0.823   6.693  0.00  0.00    +0.356 C 
ATOM     17  O   UNL     1      -1.118   0.732   7.571  0.00  0.00    -0.246 OA
ATOM     18  O   UNL     1      -2.997   1.426   6.902  0.00  0.00    -0.246 OA
ENDBRANCH  15  16
ENDBRANCH  14  15
ENDBRANCH  12  14
ENDBRANCH  11  12
ENDBRANCH   7  11
TORSDOF 6
