REMARK  Name = ZINC62757540
REMARK  6 active torsions:
REMARK  status: ('A' for Active; 'I' for Inactive)
REMARK    1  A    between atoms: C_1  and  C_2
REMARK    2  A    between atoms: C_2  and  C_3
REMARK    3  A    between atoms: C_7  and  C_19
REMARK    4  A    between atoms: C_9  and  N_12
REMARK    5  A    between atoms: C_13  and  C_18
REMARK    6  A    between atoms: C_15  and  C_17
REMARK                            x       y       z     vdW  Elec       q    Type
REMARK                         _______ _______ _______ _____ _____    ______ ____
ROOT
ATOM      1  C   UNL     1       0.742  -0.511   1.242  0.00  0.00    -0.009 C 
ATOM      2  C   UNL     1      -0.042  -0.124   2.497  0.00  0.00    +0.004 C 
ATOM      3  C   UNL     1       0.698  -0.630   3.737  0.00  0.00    +0.017 C 
ATOM      4  C   UNL     1       0.828  -2.153   3.666  0.00  0.00    +0.127 C 
ATOM      5  C   UNL     1       1.612  -2.541   2.410  0.00  0.00    +0.122 C 
ATOM      6  C   UNL     1       0.872  -2.034   1.171  0.00  0.00    +0.031 C 
ENDROOT
BRANCH   5   7
ATOM      7  N   UNL     1       2.946  -1.939   2.463  0.00  0.00    -0.264 N 
ATOM      8  C   UNL     1       4.120  -2.606   2.446  0.00  0.00    +0.037 A 
ATOM      9  C   UNL     1       5.115  -1.691   2.509  0.00  0.00    +0.047 A 
ATOM     10  C   UNL     1       4.530  -0.422   2.567  0.00  0.00    +0.060 A 
ATOM     11  N   UNL     1       3.230  -0.569   2.533  0.00  0.00    -0.176 NA
ATOM     12  C   UNL     1       5.269   0.889   2.647  0.00  0.00    +0.067 C 
ATOM     13  C   UNL     1       4.290  -4.101   2.370  0.00  0.00    +0.065 C 
ENDBRANCH   5   7
BRANCH   4  14
ATOM     14  C   UNL     1      -0.545  -2.773   3.612  0.00  0.00    +0.361 C 
ATOM     15  O   UNL     1      -1.535  -2.062   3.629  0.00  0.00    -0.246 OA
ATOM     16  O   UNL     1      -0.665  -3.984   3.552  0.00  0.00    -0.246 OA
ENDBRANCH   4  14
BRANCH   1  18
ATOM     17  C   UNL     1      -0.019   1.526   0.010  0.00  0.00    +0.004 C 
ATOM     18  C   UNL     1       0.002  -0.004   0.002  0.00  0.00    +0.000 C 
ENDBRANCH   1  18
TORSDOF 3
