REMARK  Name = ZINC00705971
REMARK  4 active torsions:
REMARK  status: ('A' for Active; 'I' for Inactive)
REMARK    1  A    between atoms: C_5  and  C_7
REMARK    2  A    between atoms: C_15  and  N_28
REMARK    3  A    between atoms: C_16  and  C_26
REMARK    4  A    between atoms: C_17  and  C_19
REMARK                            x       y       z     vdW  Elec       q    Type
REMARK                         _______ _______ _______ _____ _____    ______ ____
ROOT
ATOM      1  C   UNL     1       2.414   3.939   0.001  0.00  0.00    +0.016 C 
ATOM      2  C   UNL     1       2.390   5.281  -0.093  0.00  0.00    -0.004 C 
ATOM      3  C   UNL     1       1.080   6.037  -0.086  0.00  0.00    +0.039 C 
ATOM      4  C   UNL     1       1.191   7.140  -1.144  0.00  0.00    +0.009 C 
ATOM      5  C   UNL     1       2.319   8.089  -0.752  0.00  0.00    +0.036 C 
ATOM      6  C   UNL     1       3.613   7.349  -0.526  0.00  0.00    -0.014 C 
ATOM      7  C   UNL     1       3.643   6.054  -0.213  0.00  0.00    +0.133 C 
ATOM      8  O   UNL     1       4.813   5.402   0.006  0.00  0.00    -0.441 OA
ATOM      9  C   UNL     1       5.919   6.092   0.330  0.00  0.00    +0.199 C 
ATOM     10  C   UNL     1       6.023   7.412   0.036  0.00  0.00    +0.098 C 
ATOM     11  C   UNL     1       4.900   8.130  -0.657  0.00  0.00    +0.095 C 
ENDROOT
BRANCH   1  16
ATOM     12  C   UNL     1      -0.950   3.045   1.400  0.00  0.00    +0.001 A 
ATOM     13  C   UNL     1      -1.164   1.808   0.815  0.00  0.00    +0.001 A 
ATOM     14  C   UNL     1      -0.214   1.259  -0.026  0.00  0.00    +0.020 A 
ATOM     15  C   UNL     1       0.952   1.947  -0.298  0.00  0.00    +0.048 A 
ATOM     16  C   UNL     1       1.173   3.199   0.285  0.00  0.00    -0.006 A 
ATOM     17  C   UNL     1       0.210   3.744   1.139  0.00  0.00    +0.009 A 
ATOM     18 CL   UNL     1       2.141   1.259  -1.360  0.00  0.00    -0.083 Cl
ENDBRANCH   1  16
BRANCH  11  19
ATOM     19  C   UNL     1       5.236   8.288  -2.117  0.00  0.00    -0.017 A 
ATOM     20  C   UNL     1       5.455   7.170  -2.901  0.00  0.00    +0.006 A 
ATOM     21  C   UNL     1       5.763   7.315  -4.241  0.00  0.00    +0.000 A 
ATOM     22  C   UNL     1       5.852   8.577  -4.798  0.00  0.00    +0.001 A 
ATOM     23  C   UNL     1       5.634   9.695  -4.016  0.00  0.00    +0.020 A 
ATOM     24  C   UNL     1       5.320   9.551  -2.676  0.00  0.00    +0.045 A 
ATOM     25 CL   UNL     1       5.038  10.955  -1.694  0.00  0.00    -0.083 Cl
ENDBRANCH  11  19
BRANCH   9  26
ATOM     26  N   UNL     1       6.956   5.454   0.966  0.00  0.00    -0.328 N 
ATOM     27  H   UNL     1       6.887   4.511   1.178  0.00  0.00    +0.145 HD
ATOM     28  H   UNL     1       7.757   5.948   1.202  0.00  0.00    +0.145 HD
ENDBRANCH   9  26
BRANCH  10  29
ATOM     29  C   UNL     1       7.212   8.127   0.390  0.00  0.00    +0.101 C 
ATOM     30  N   UNL     1       8.156   8.695   0.670  0.00  0.00    -0.191 NA
ENDBRANCH  10  29
TORSDOF 4
