REMARK  Name = ZINC41006217
REMARK  11 active torsions:
REMARK  status: ('A' for Active; 'I' for Inactive)
REMARK    1  A    between atoms: C_1  and  C_2
REMARK    2  A    between atoms: C_2  and  O_41
REMARK    3  A    between atoms: C_6  and  C_30
REMARK    4  A    between atoms: C_8  and  C_23
REMARK    5  A    between atoms: C_10  and  C_12
REMARK    6  A    between atoms: N_14  and  C_15
REMARK    7  A    between atoms: C_20  and  O_21
REMARK    8  A    between atoms: O_21  and  C_22
REMARK    9  A    between atoms: N_32  and  C_33
REMARK   10  A    between atoms: C_38  and  O_39
REMARK   11  A    between atoms: O_39  and  C_40
REMARK                            x       y       z     vdW  Elec       q    Type
REMARK                         _______ _______ _______ _____ _____    ______ ____
ROOT
ATOM      1  C   UNL     1       0.839   1.583  -0.276  0.00  0.00    +0.042 C 
ATOM      2  C   UNL     1       0.555   0.080  -0.254  0.00  0.00    +0.082 C 
ATOM      3  C   UNL     1      -0.900  -0.172  -0.664  0.00  0.00    +0.110 C 
ATOM      4  C   UNL     1      -1.195  -1.647  -0.507  0.00  0.00    +0.148 C 
ATOM      5  O   UNL     1      -1.684  -2.280  -1.411  0.00  0.00    -0.296 OA
ATOM      6  C   UNL     1      -0.862  -2.309   0.812  0.00  0.00    +0.149 C 
ATOM      7  C   UNL     1       0.591  -1.980   1.169  0.00  0.00    +0.055 C 
ATOM      8  C   UNL     1       0.786  -0.463   1.158  0.00  0.00    +0.116 C 
ENDROOT
BRANCH   7   9
ATOM      9  C   UNL     1       0.906  -2.517   2.541  0.00  0.00    -0.007 A 
ATOM     10  C   UNL     1       0.082  -2.213   3.608  0.00  0.00    +0.007 A 
ATOM     11  C   UNL     1       0.370  -2.706   4.867  0.00  0.00    +0.000 A 
ATOM     12  C   UNL     1       1.483  -3.503   5.060  0.00  0.00    +0.003 A 
ATOM     13  C   UNL     1       2.308  -3.809   3.995  0.00  0.00    +0.038 A 
ATOM     14  C   UNL     1       2.017  -3.320   2.732  0.00  0.00    +0.127 A 
ATOM     15  F   UNL     1       2.821  -3.622   1.689  0.00  0.00    -0.205 F 
ENDBRANCH   7   9
BRANCH   8  16
ATOM     16  C   UNL     1      -0.196   0.176   2.106  0.00  0.00    +0.224 C 
ATOM     17  O   UNL     1      -1.388   0.063   1.912  0.00  0.00    -0.275 OA
ATOM     18  N   UNL     1       0.250   0.871   3.171  0.00  0.00    -0.282 N 
ATOM     19  H   UNL     1       1.203   0.948   3.336  0.00  0.00    +0.155 HD
BRANCH  18  20
ATOM     20  C   UNL     1      -0.662   1.484   4.040  0.00  0.00    +0.076 A 
ATOM     21  C   UNL     1      -1.980   1.051   4.083  0.00  0.00    +0.027 A 
ATOM     22  C   UNL     1      -2.878   1.656   4.941  0.00  0.00    +0.002 A 
ATOM     23  C   UNL     1      -2.467   2.693   5.759  0.00  0.00    +0.004 A 
ATOM     24  C   UNL     1      -1.156   3.130   5.722  0.00  0.00    +0.047 A 
ATOM     25  C   UNL     1      -0.248   2.525   4.868  0.00  0.00    +0.141 A 
BRANCH  25  26
ATOM     26  O   UNL     1       1.044   2.949   4.834  0.00  0.00    -0.493 OA
ATOM     27  C   UNL     1       1.397   4.021   5.711  0.00  0.00    +0.277 C 
ENDBRANCH  25  26
ENDBRANCH  18  20
ENDBRANCH   8  16
BRANCH   6  28
ATOM     28  C   UNL     1      -1.031  -3.801   0.687  0.00  0.00    +0.228 C 
ATOM     29  O   UNL     1      -0.086  -4.537   0.880  0.00  0.00    -0.275 OA
ATOM     30  N   UNL     1      -2.232  -4.318   0.360  0.00  0.00    -0.282 N 
ATOM     31  H   UNL     1      -2.967  -3.729   0.129  0.00  0.00    +0.155 HD
BRANCH  30  32
ATOM     32  C   UNL     1      -2.419  -5.707   0.354  0.00  0.00    +0.076 A 
ATOM     33  C   UNL     1      -1.351  -6.551   0.086  0.00  0.00    +0.027 A 
ATOM     34  C   UNL     1      -1.537  -7.920   0.081  0.00  0.00    +0.002 A 
ATOM     35  C   UNL     1      -2.787  -8.452   0.342  0.00  0.00    +0.004 A 
ATOM     36  C   UNL     1      -3.856  -7.617   0.609  0.00  0.00    +0.047 A 
ATOM     37  C   UNL     1      -3.676  -6.244   0.622  0.00  0.00    +0.141 A 
BRANCH  37  38
ATOM     38  O   UNL     1      -4.725  -5.421   0.890  0.00  0.00    -0.493 OA
ATOM     39  C   UNL     1      -5.984  -6.042   1.155  0.00  0.00    +0.277 C 
ENDBRANCH  37  38
ENDBRANCH  30  32
ENDBRANCH   6  28
BRANCH   2  40
ATOM     40  O   UNL     1       1.430  -0.584  -1.168  0.00  0.00    -0.388 OA
ATOM     41  H   UNL     1       1.338  -0.289  -2.085  0.00  0.00    +0.210 HD
ENDBRANCH   2  40
TORSDOF 8
