REMARK  Name = ZINC00985599
REMARK  8 active torsions:
REMARK  status: ('A' for Active; 'I' for Inactive)
REMARK    1  A    between atoms: C_1  and  C_2
REMARK    2  A    between atoms: C_2  and  O_3
REMARK    3  A    between atoms: O_3  and  C_4
REMARK    4  A    between atoms: C_9  and  C_10
REMARK    5  A    between atoms: C_13  and  C_24
REMARK    6  A    between atoms: C_19  and  N_23
REMARK    7  A    between atoms: C_20  and  C_21
REMARK    8  A    between atoms: C_27  and  C_30
REMARK                            x       y       z     vdW  Elec       q    Type
REMARK                         _______ _______ _______ _____ _____    ______ ____
ROOT
ATOM      1  C   UNL     1       1.915  -1.301  -3.588  0.00  0.00    +0.105 C 
ATOM      2  C   UNL     1       1.347  -1.612  -4.949  0.00  0.00    +0.054 A 
ATOM      3  C   UNL     1       0.081  -1.323  -5.466  0.00  0.00    +0.100 A 
ATOM      4  N   UNL     1       0.031  -1.786  -6.701  0.00  0.00    -0.171 NA
ATOM      5  N   UNL     1       1.267  -2.381  -7.000  0.00  0.00    -0.246 N 
ATOM      6  H   UNL     1       1.508  -2.802  -7.840  0.00  0.00    +0.192 HD
ATOM      7  C   UNL     1       2.059  -2.263  -5.915  0.00  0.00    +0.223 A 
ATOM      8  O   UNL     1       3.337  -2.680  -5.727  0.00  0.00    -0.423 OA
ATOM      9  C   UNL     1       3.999  -2.200  -4.655  0.00  0.00    +0.200 C 
ATOM     10  C   UNL     1       3.403  -1.549  -3.630  0.00  0.00    +0.098 C 
ENDROOT
BRANCH   3  11
ATOM     11  C   UNL     1      -1.015  -0.622  -4.752  0.00  0.00    +0.003 A 
ATOM     12  C   UNL     1      -2.325  -1.082  -4.857  0.00  0.00    +0.010 A 
ATOM     13  C   UNL     1      -3.340  -0.426  -4.190  0.00  0.00    +0.004 A 
ATOM     14  C   UNL     1      -3.058   0.687  -3.419  0.00  0.00    -0.050 A 
ATOM     15  C   UNL     1      -1.759   1.149  -3.312  0.00  0.00    +0.004 A 
ATOM     16  C   UNL     1      -0.735   0.496  -3.969  0.00  0.00    +0.010 A 
ATOM     17  C   UNL     1      -4.170   1.400  -2.694  0.00  0.00    +0.044 C 
ENDBRANCH   3  11
BRANCH   1  23
ATOM     18  C   UNL     1       0.706  -1.645  -1.419  0.00  0.00    +0.125 A 
ATOM     19  C   UNL     1       0.116  -2.471  -0.473  0.00  0.00    +0.046 A 
ATOM     20  C   UNL     1       0.107  -3.840  -0.662  0.00  0.00    +0.004 A 
ATOM     21  C   UNL     1       0.684  -4.386  -1.794  0.00  0.00    +0.001 A 
ATOM     22  C   UNL     1       1.272  -3.566  -2.738  0.00  0.00    +0.008 A 
ATOM     23  C   UNL     1       1.280  -2.196  -2.556  0.00  0.00    +0.007 A 
BRANCH  18  24
ATOM     24  O   UNL     1       0.716  -0.299  -1.236  0.00  0.00    -0.492 OA
BRANCH  24  26
ATOM     25  C   UNL     1       0.205   1.720  -0.010  0.00  0.00    +0.048 C 
ATOM     26  C   UNL     1       0.205   0.190   0.006  0.00  0.00    +0.225 C 
ENDBRANCH  24  26
ENDBRANCH  18  24
ENDBRANCH   1  23
BRANCH   9  27
ATOM     27  N   UNL     1       5.359  -2.383  -4.600  0.00  0.00    -0.328 N 
ATOM     28  H   UNL     1       5.815  -2.845  -5.320  0.00  0.00    +0.145 HD
ATOM     29  H   UNL     1       5.863  -2.049  -3.841  0.00  0.00    +0.145 HD
ENDBRANCH   9  27
BRANCH  10  30
ATOM     30  C   UNL     1       4.211  -1.079  -2.546  0.00  0.00    +0.101 C 
ATOM     31  N   UNL     1       4.852  -0.706  -1.685  0.00  0.00    -0.191 NA
ENDBRANCH  10  30
TORSDOF 6
