REMARK  Name = ZINC22449710
REMARK  5 active torsions:
REMARK  status: ('A' for Active; 'I' for Inactive)
REMARK    1  A    between atoms: C_1  and  C_2
REMARK    2  A    between atoms: C_5  and  S_8
REMARK    3  A    between atoms: S_8  and  C_9
REMARK    4  A    between atoms: C_9  and  C_10
REMARK    5  A    between atoms: C_22  and  C_25
REMARK                            x       y       z     vdW  Elec       q    Type
REMARK                         _______ _______ _______ _____ _____    ______ ____
ROOT
ATOM      1  C   UNL     1      -0.018   1.503   0.010  0.00  0.00    +0.060 A 
ATOM      2  C   UNL     1      -1.210   2.168   0.020  0.00  0.00    +0.094 A 
ATOM      3  C   UNL     1      -1.203   3.574   0.032  0.00  0.00    +0.253 A 
ATOM      4  O   UNL     1      -2.250   4.201   0.046  0.00  0.00    -0.268 OA
ATOM      5  N   UNL     1      -0.016   4.217   0.024  0.00  0.00    -0.295 N 
ATOM      6  H   UNL     1       0.014   5.317   0.030  0.00  0.00    +0.172 HD
ATOM      7  C   UNL     1       1.140   3.501   0.009  0.00  0.00    +0.198 A 
ATOM      8  N   UNL     1       1.126   2.183   0.003  0.00  0.00    -0.220 NA
ATOM      9  N   UNL     1       2.340   4.160   0.002  0.00  0.00    -0.301 N 
ATOM     10  C   UNL     1       2.490   4.994   1.201  0.00  0.00    +0.108 C 
ATOM     11  C   UNL     1       3.771   5.825   1.090  0.00  0.00    +0.019 C 
ATOM     12  C   UNL     1       4.971   4.886   0.945  0.00  0.00    +0.006 C 
ATOM     13  C   UNL     1       4.767   3.995  -0.284  0.00  0.00    +0.003 C 
ATOM     14  C   UNL     1       3.458   3.218  -0.133  0.00  0.00    +0.111 C 
ATOM     15  C   UNL     1       5.934   3.013  -0.404  0.00  0.00    +0.009 C 
ENDROOT
BRANCH   1  16
ATOM     16  C   UNL     1       0.002  -0.004   0.002  0.00  0.00    +0.130 C 
BRANCH  16  17
ATOM     17  S   UNL     1       0.437  -0.594  -1.657  0.00  0.00    -0.119 S 
BRANCH  17  22
ATOM     18  C   UNL     1       0.376  -6.607  -1.133  0.00  0.00    +0.044 C 
ATOM     19  C   UNL     1       0.391  -5.106  -1.264  0.00  0.00    -0.050 A 
ATOM     20  C   UNL     1       0.697  -4.522  -2.480  0.00  0.00    +0.004 A 
ATOM     21  C   UNL     1       0.712  -3.147  -2.604  0.00  0.00    +0.015 A 
ATOM     22  C   UNL     1       0.419  -2.349  -1.504  0.00  0.00    +0.008 A 
ATOM     23  C   UNL     1       0.117  -2.939  -0.283  0.00  0.00    +0.015 A 
ATOM     24  C   UNL     1       0.099  -4.314  -0.168  0.00  0.00    +0.004 A 
ENDBRANCH  17  22
ENDBRANCH  16  17
ENDBRANCH   1  16
TORSDOF 3
