REMARK  Name = ZINC11856027
REMARK  3 active torsions:
REMARK  status: ('A' for Active; 'I' for Inactive)
REMARK    1  A    between atoms: C_3  and  C_6
REMARK    2  A    between atoms: C_8  and  N_23
REMARK    3  A    between atoms: C_24  and  C_26
REMARK                            x       y       z     vdW  Elec       q    Type
REMARK                         _______ _______ _______ _____ _____    ______ ____
ROOT
ATOM      1  C   UNL     1      -5.860  -1.576   0.021  0.00  0.00    +0.102 A 
ATOM      2  C   UNL     1      -4.933  -0.512   0.028  0.00  0.00    +0.074 A 
ATOM      3  C   UNL     1      -3.686  -1.048   0.014  0.00  0.00    +0.132 A 
ATOM      4  N   UNL     1      -3.819  -2.408   0.007  0.00  0.00    -0.185 N 
ATOM      5  N   UNL     1      -5.187  -2.708   0.012  0.00  0.00    -0.162 NA
ATOM      6  C   UNL     1      -2.786  -3.324  -0.002  0.00  0.00    +0.234 A 
ATOM      7  N   UNL     1      -3.071  -4.654  -0.008  0.00  0.00    -0.291 N 
ATOM      8  H   UNL     1      -3.993  -4.956  -0.010  0.00  0.00    +0.172 HD
ATOM      9  C   UNL     1      -2.063  -5.549  -0.013  0.00  0.00    +0.256 A 
ATOM     10  O   UNL     1      -2.299  -6.746  -0.020  0.00  0.00    -0.267 OA
ATOM     11  C   UNL     1      -0.730  -5.081  -0.009  0.00  0.00    +0.038 A 
ATOM     12  C   UNL     1      -0.505  -3.743  -0.011  0.00  0.00    +0.053 A 
ATOM     13  N   UNL     1      -1.545  -2.898  -0.011  0.00  0.00    -0.217 NA
ATOM     14  C   UNL     1       0.880  -3.152  -0.029  0.00  0.00    +0.056 C 
ATOM     15  C   UNL     1       1.912  -4.190   0.406  0.00  0.00    +0.006 C 
ATOM     16  C   UNL     1       1.698  -5.462  -0.422  0.00  0.00    +0.005 C 
ATOM     17  C   UNL     1       0.378  -6.099   0.007  0.00  0.00    +0.042 C 
ENDROOT
BRANCH   1  20
ATOM     18  C   UNL     1      -9.615  -2.055   0.038  0.00  0.00    +0.008 A 
ATOM     19  C   UNL     1      -8.288  -2.424   0.029  0.00  0.00    +0.018 A 
ATOM     20  C   UNL     1      -7.332  -1.443   0.029  0.00  0.00    +0.039 A 
ATOM     21  S   UNL     1      -8.328   0.040   0.051  0.00  0.00    -0.095 S 
ATOM     22  C   UNL     1      -9.936  -0.736   0.048  0.00  0.00    +0.046 A 
ENDBRANCH   1  20
BRANCH   3  23
ATOM     23  N   UNL     1      -2.488  -0.339   0.012  0.00  0.00    -0.266 N 
ATOM     24  C   UNL     1      -2.502   1.008   0.019  0.00  0.00    +0.252 C 
ATOM     25  O   UNL     1      -3.561   1.605   0.028  0.00  0.00    -0.270 OA
ATOM     26  H   UNL     1      -1.643  -0.816   0.005  0.00  0.00    +0.157 HD
BRANCH  24  27
ATOM     27  C   UNL     1      -1.232   1.759   0.017  0.00  0.00    +0.072 A 
ATOM     28  C   UNL     1      -0.013   1.076   0.008  0.00  0.00    +0.019 A 
ATOM     29  C   UNL     1       1.170   1.782   0.001  0.00  0.00    +0.039 A 
ATOM     30  C   UNL     1       1.155   3.169   0.007  0.00  0.00    +0.126 A 
ATOM     31  C   UNL     1      -0.049   3.854   0.022  0.00  0.00    +0.077 A 
ATOM     32  C   UNL     1      -1.242   3.158   0.030  0.00  0.00    +0.138 A 
ATOM     33  F   UNL     1      -2.416   3.827   0.044  0.00  0.00    -0.205 F 
ATOM     34  F   UNL     1       2.319   3.855  -0.001  0.00  0.00    -0.205 F 
ENDBRANCH  24  27
ENDBRANCH   3  23
TORSDOF 3
