REMARK  Name = ZINC04689236
REMARK  10 active torsions:
REMARK  status: ('A' for Active; 'I' for Inactive)
REMARK    1  A    between atoms: C_1  and  C_2
REMARK    2  A    between atoms: C_2  and  O_3
REMARK    3  A    between atoms: O_3  and  C_4
REMARK    4  A    between atoms: C_4  and  C_6
REMARK    5  A    between atoms: C_7  and  C_23
REMARK    6  A    between atoms: C_12  and  C_14
REMARK    7  A    between atoms: C_18  and  N_20
REMARK    8  A    between atoms: C_23  and  N_58
REMARK    9  A    between atoms: C_25  and  C_32
REMARK   10  A    between atoms: C_28  and  C_31
REMARK                            x       y       z     vdW  Elec       q    Type
REMARK                         _______ _______ _______ _____ _____    ______ ____
ROOT
ATOM      1  C   UNL     1       1.141   3.219   0.027  0.00  0.00    +0.076 C 
ATOM      2  C   UNL     1      -0.074   3.765  -0.195  0.00  0.00    +0.008 C 
ATOM      3  N   UNL     1      -1.201   2.994  -0.206  0.00  0.00    -0.274 N 
ATOM      4  C   UNL     1      -1.198   1.670  -0.011  0.00  0.00    +0.304 C 
ATOM      5  O   UNL     1      -2.253   1.067  -0.046  0.00  0.00    -0.252 OA
ATOM      6  N   UNL     1      -0.063   0.984   0.229  0.00  0.00    -0.288 N 
ATOM      7  C   UNL     1       1.210   1.724   0.262  0.00  0.00    +0.143 C 
ATOM      8  H   UNL     1      -2.052   3.430  -0.370  0.00  0.00    +0.156 HD
ATOM      9  H   UNL     1      -0.083   0.024   0.372  0.00  0.00    +0.151 HD
ENDROOT
BRANCH   7  10
ATOM     10  C   UNL     1       2.120   1.130  -0.783  0.00  0.00    -0.020 A 
ATOM     11  C   UNL     1       1.607   0.747  -2.009  0.00  0.00    +0.006 A 
ATOM     12  C   UNL     1       2.442   0.207  -2.968  0.00  0.00    +0.003 A 
ATOM     13  C   UNL     1       3.788   0.042  -2.700  0.00  0.00    +0.033 A 
ATOM     14  C   UNL     1       4.300   0.420  -1.473  0.00  0.00    +0.127 A 
ATOM     15  C   UNL     1       3.465   0.964  -0.514  0.00  0.00    +0.038 A 
BRANCH  14  16
ATOM     16  N   UNL     1       5.741   0.242  -1.185  0.00  0.00    +0.056 N 
ATOM     17  O   UNL     1       6.191   0.575  -0.103  0.00  0.00    -0.126 OA
ATOM     18  O   UNL     1       6.476  -0.237  -2.029  0.00  0.00    -0.126 OA
ENDBRANCH  14  16
ENDBRANCH   7  10
BRANCH   1  19
ATOM     19  C   UNL     1       2.310   4.016   0.040  0.00  0.00    +0.339 C 
ATOM     20  O   UNL     1       2.221   5.227  -0.042  0.00  0.00    -0.245 OA
BRANCH  19  21
ATOM     21  O   UNL     1       3.523   3.433   0.143  0.00  0.00    -0.462 OA
BRANCH  21  23
ATOM     22  C   UNL     1       5.936   3.464   0.273  0.00  0.00    +0.048 C 
ATOM     23  C   UNL     1       4.660   4.299   0.150  0.00  0.00    +0.229 C 
ENDBRANCH  21  23
ENDBRANCH  19  21
ENDBRANCH   1  19
BRANCH   2  24
ATOM     24  C   UNL     1      -0.188   5.248  -0.433  0.00  0.00    -0.026 C 
BRANCH  24  32
ATOM     25  C   UNL     1      -1.471   5.612   1.587  0.00  0.00    -0.075 C 
ATOM     26  C   UNL     1      -1.427   6.241   2.981  0.00  0.00    -0.031 C 
ATOM     27  C   UNL     1      -1.292   7.761   2.846  0.00  0.00    +0.003 C 
ATOM     28  C   UNL     1      -0.030   8.083   2.040  0.00  0.00    -0.031 C 
ATOM     29  C   UNL     1      -0.115   7.400   0.673  0.00  0.00    -0.075 C 
ATOM     30  C   UNL     1       0.081   9.597   1.849  0.00  0.00    +0.005 C 
ATOM     31  C   UNL     1      -0.227   5.688   3.753  0.00  0.00    +0.005 C 
ATOM     32  N   UNL     1      -0.219   5.939   0.872  0.00  0.00    +0.384 N 
ATOM     33  H   UNL     1       0.579   5.622   1.436  0.00  0.00    -0.081 HD
ENDBRANCH  24  32
ENDBRANCH   2  24
TORSDOF 7
