REMARK  Name = ZINC03346026
REMARK  9 active torsions:
REMARK  status: ('A' for Active; 'I' for Inactive)
REMARK    1  A    between atoms: C_4  and  N_11
REMARK    2  A    between atoms: C_5  and  C_7
REMARK    3  A    between atoms: N_11  and  C_12
REMARK    4  A    between atoms: C_12  and  N_14
REMARK    5  A    between atoms: N_14  and  N_15
REMARK    6  A    between atoms: N_15  and  C_16
REMARK    7  A    between atoms: C_16  and  N_18
REMARK    8  A    between atoms: N_18  and  C_19
REMARK    9  A    between atoms: C_19  and  C_20
REMARK                            x       y       z     vdW  Elec       q    Type
REMARK                         _______ _______ _______ _____ _____    ______ ____
ROOT
ATOM      1  N   UNL     1      -3.575   0.033   3.945  0.00  0.00    -0.246 N 
ATOM      2  H   UNL     1      -2.684   0.358   3.744  0.00  0.00    +0.172 HD
ENDROOT
BRANCH   1   3
ATOM      3  C   UNL     1      -3.931  -0.209   5.223  0.00  0.00    +0.151 C 
ATOM      4  S   UNL     1      -2.810   0.057   6.489  0.00  0.00    -0.017 S 
BRANCH   3   5
ATOM      5  N   UNL     1      -5.169  -0.662   5.503  0.00  0.00    -0.295 N 
ATOM      6  H   UNL     1      -5.824  -0.753   4.794  0.00  0.00    +0.154 HD
BRANCH   5  10
ATOM      7  C   UNL     1      -6.182  -1.668   9.416  0.00  0.00    +0.001 A 
ATOM      8  C   UNL     1      -5.544  -0.469   9.155  0.00  0.00    +0.002 A 
ATOM      9  C   UNL     1      -5.202  -0.135   7.860  0.00  0.00    +0.024 A 
ATOM     10  C   UNL     1      -5.509  -1.000   6.817  0.00  0.00    +0.044 A 
ATOM     11  C   UNL     1      -6.150  -2.203   7.083  0.00  0.00    +0.076 A 
ATOM     12  C   UNL     1      -6.485  -2.533   8.382  0.00  0.00    +0.014 A 
BRANCH  11  13
ATOM     13  C   UNL     1      -6.479  -3.147   5.955  0.00  0.00    +0.419 C 
ATOM     14  F   UNL     1      -7.117  -4.281   6.468  0.00  0.00    -0.166 F 
ATOM     15  F   UNL     1      -7.326  -2.507   5.044  0.00  0.00    -0.166 F 
ATOM     16  F   UNL     1      -5.299  -3.528   5.307  0.00  0.00    -0.166 F 
ENDBRANCH  11  13
ENDBRANCH   5  10
ENDBRANCH   3   5
ENDBRANCH   1   3
BRANCH   1  17
ATOM     17  N   UNL     1      -4.492  -0.185   2.909  0.00  0.00    -0.247 N 
ATOM     18  H   UNL     1      -5.384  -0.511   3.111  0.00  0.00    +0.172 HD
BRANCH  17  19
ATOM     19  C   UNL     1      -4.137   0.057   1.632  0.00  0.00    +0.147 C 
ATOM     20  S   UNL     1      -5.258  -0.210   0.366  0.00  0.00    -0.017 S 
BRANCH  19  21
ATOM     21  N   UNL     1      -2.899   0.509   1.352  0.00  0.00    -0.321 N 
ATOM     22  H   UNL     1      -2.263   0.660   2.069  0.00  0.00    +0.148 HD
BRANCH  21  23
ATOM     23  C   UNL     1      -2.512   0.772  -0.037  0.00  0.00    +0.138 C 
BRANCH  23  24
ATOM     24  C   UNL     1      -1.089   1.266  -0.077  0.00  0.00    -0.027 A 
ATOM     25  C   UNL     1      -0.049   0.363  -0.201  0.00  0.00    +0.009 A 
ATOM     26  C   UNL     1       1.258   0.811  -0.244  0.00  0.00    +0.050 A 
ATOM     27  C   UNL     1       1.530   2.167  -0.157  0.00  0.00    +0.166 A 
ATOM     28  C   UNL     1       0.482   3.076  -0.027  0.00  0.00    +0.167 A 
ATOM     29  C   UNL     1      -0.825   2.620   0.017  0.00  0.00    +0.054 A 
ATOM     30  O   UNL     1       1.004   4.336   0.038  0.00  0.00    -0.453 OA
ATOM     31  C   UNL     1       2.349   4.222  -0.465  0.00  0.00    +0.466 C 
ATOM     32  O   UNL     1       2.707   2.857  -0.175  0.00  0.00    -0.453 OA
ENDBRANCH  23  24
ENDBRANCH  21  23
ENDBRANCH  19  21
ENDBRANCH  17  19
ENDBRANCH   1  17
TORSDOF 9
