REMARK  Name = ZINC12881507
REMARK  7 active torsions:
REMARK  status: ('A' for Active; 'I' for Inactive)
REMARK    1  A    between atoms: C_1  and  C_2
REMARK    2  A    between atoms: C_13  and  C_15
REMARK    3  A    between atoms: C_15  and  C_16
REMARK    4  A    between atoms: C_19  and  O_22
REMARK    5  A    between atoms: N_25  and  C_28
REMARK    6  A    between atoms: C_28  and  C_29
REMARK    7  A    between atoms: C_29  and  C_30
REMARK                            x       y       z     vdW  Elec       q    Type
REMARK                         _______ _______ _______ _____ _____    ______ ____
ROOT
ATOM      1  C   UNL     1      -0.683   6.567  -0.160  0.00  0.00    +0.044 C 
ATOM      2  C   UNL     1      -1.323   5.265  -0.568  0.00  0.00    -0.050 A 
ATOM      3  C   UNL     1      -2.676   5.216  -0.852  0.00  0.00    +0.005 A 
ATOM      4  C   UNL     1      -3.266   4.027  -1.226  0.00  0.00    +0.024 A 
ATOM      5  C   UNL     1      -2.504   2.865  -1.322  0.00  0.00    +0.036 A 
ATOM      6  C   UNL     1      -1.144   2.926  -1.034  0.00  0.00    -0.027 A 
ATOM      7  C   UNL     1      -0.558   4.116  -0.660  0.00  0.00    +0.008 A 
ATOM      8  C   UNL     1      -0.620   1.532  -1.228  0.00  0.00    +0.050 C 
ATOM      9  C   UNL     1       0.484   1.488  -2.292  0.00  0.00    +0.088 C 
ATOM     10  C   UNL     1       1.809   1.497  -1.481  0.00  0.00    +0.073 C 
ATOM     11  C   UNL     1       1.369   1.557  -0.003  0.00  0.00    -0.053 C 
ATOM     12  C   UNL     1       2.405   0.138  -1.770  0.00  0.00    +0.224 C 
ATOM     13  O   UNL     1       3.451  -0.279  -1.322  0.00  0.00    -0.275 OA
ATOM     14  N   UNL     1       1.597  -0.534  -2.599  0.00  0.00    -0.241 N 
ATOM     15  C   UNL     1       0.492   0.130  -2.958  0.00  0.00    +0.225 C 
ATOM     16  O   UNL     1      -0.368  -0.291  -3.701  0.00  0.00    -0.275 OA
ATOM     17  C   UNL     1      -1.815   0.719  -1.643  0.00  0.00    +0.211 C 
ATOM     18  O   UNL     1      -1.832  -0.467  -1.899  0.00  0.00    -0.277 OA
ATOM     19  N   UNL     1      -2.865   1.563  -1.674  0.00  0.00    -0.286 N 
ATOM     20  H   UNL     1      -3.766   1.297  -1.914  0.00  0.00    +0.155 HD
ATOM     21  N   UNL     1       0.004   1.027  -0.018  0.00  0.00    +0.394 N 
ATOM     22  H   UNL     1       0.022   0.000  -0.029  0.00  0.00    -0.083 HD
ATOM     23  H   UNL     1      -0.511   1.350   0.809  0.00  0.00    -0.083 HD
ENDROOT
BRANCH  11  24
ATOM     24  C   UNL     1       2.292   0.697   0.863  0.00  0.00    +0.020 C 
BRANCH  24  25
ATOM     25  C   UNL     1       1.874   0.807   2.306  0.00  0.00    -0.049 A 
ATOM     26  C   UNL     1       2.424   1.788   3.111  0.00  0.00    +0.007 A 
ATOM     27  C   UNL     1       2.038   1.894   4.433  0.00  0.00    +0.045 A 
ATOM     28  C   UNL     1       1.107   1.009   4.957  0.00  0.00    +0.117 A 
ATOM     29  C   UNL     1       0.561   0.022   4.148  0.00  0.00    +0.045 A 
ATOM     30  C   UNL     1       0.946  -0.077   2.825  0.00  0.00    +0.007 A 
BRANCH  28  31
ATOM     31  O   UNL     1       0.729   1.108   6.258  0.00  0.00    -0.507 OA
ATOM     32  H   UNL     1       1.272   0.588   6.866  0.00  0.00    +0.292 HD
ENDBRANCH  28  31
ENDBRANCH  24  25
ENDBRANCH  11  24
BRANCH  14  33
ATOM     33  C   UNL     1       1.897  -1.887  -3.074  0.00  0.00    +0.121 C 
BRANCH  33  34
ATOM     34  C   UNL     1       1.301  -2.911  -2.107  0.00  0.00    +0.054 C 
BRANCH  34  35
ATOM     35  C   UNL     1       1.611  -4.303  -2.596  0.00  0.00    -0.046 A 
ATOM     36  C   UNL     1       0.732  -4.947  -3.447  0.00  0.00    +0.004 A 
ATOM     37  C   UNL     1       1.018  -6.222  -3.900  0.00  0.00    +0.000 A 
ATOM     38  C   UNL     1       2.177  -6.856  -3.493  0.00  0.00    +0.000 A 
ATOM     39  C   UNL     1       3.053  -6.213  -2.638  0.00  0.00    +0.000 A 
ATOM     40  C   UNL     1       2.769  -4.937  -2.189  0.00  0.00    +0.004 A 
ENDBRANCH  34  35
ENDBRANCH  33  34
ENDBRANCH  14  33
TORSDOF 6
