REMARK  Name = ZINC22064086
REMARK  4 active torsions:
REMARK  status: ('A' for Active; 'I' for Inactive)
REMARK    1  A    between atoms: C_1  and  C_2
REMARK    2  A    between atoms: N_11  and  C_12
REMARK    3  A    between atoms: C_12  and  C_13
REMARK    4  A    between atoms: N_15  and  C_16
REMARK                            x       y       z     vdW  Elec       q    Type
REMARK                         _______ _______ _______ _____ _____    ______ ____
ROOT
ATOM      1  C   UNL     1      -0.019   1.503   0.017  0.00  0.00    +0.201 C 
ATOM      2  O   UNL     1      -1.077   2.096   0.021  0.00  0.00    -0.278 OA
ATOM      3  N   UNL     1       1.139   2.192   0.003  0.00  0.00    -0.286 N 
ATOM      4  H   UNL     1       2.099   1.658   0.069  0.00  0.00    +0.155 HD
ENDROOT
BRANCH   3   5
ATOM      5  C   UNL     1       1.122   3.590  -0.095  0.00  0.00    +0.051 A 
ATOM      6  C   UNL     1       0.105   4.316   0.510  0.00  0.00    +0.073 A 
ATOM      7  C   UNL     1       0.090   5.699   0.417  0.00  0.00    +0.164 A 
ATOM      8  C   UNL     1       1.090   6.357  -0.291  0.00  0.00    +0.163 A 
ATOM      9  C   UNL     1       2.101   5.629  -0.899  0.00  0.00    +0.066 A 
ATOM     10  C   UNL     1       2.118   4.250  -0.803  0.00  0.00    +0.043 A 
ATOM     11 BR   UNL     1       3.499   3.261  -1.635  0.00  0.00    -0.048 Br
ATOM     12  O   UNL     1       1.092   7.715  -0.393  0.00  0.00    -0.485 OA
ATOM     13  C   UNL     1      -0.136   8.385  -0.088  0.00  0.00    +0.270 C 
ATOM     14  C   UNL     1      -0.693   7.798   1.215  0.00  0.00    +0.270 C 
ATOM     15  O   UNL     1      -0.913   6.397   1.017  0.00  0.00    -0.485 OA
ENDBRANCH   3   5
BRANCH   1  16
ATOM     16  C   UNL     1       0.001  -0.004   0.020  0.00  0.00    +0.020 C 
BRANCH  16  26
ATOM     17  C   UNL     1      -0.813  -2.271  -1.575  0.00  0.00    -0.008 C 
ATOM     18  C   UNL     1      -1.406  -1.961  -0.199  0.00  0.00    -0.039 C 
ATOM     19  C   UNL     1      -2.856  -2.434  -0.148  0.00  0.00    -0.051 A 
ATOM     20  C   UNL     1      -3.298  -3.642  -0.681  0.00  0.00    +0.010 A 
ATOM     21  C   UNL     1      -4.605  -3.983  -0.593  0.00  0.00    +0.045 A 
ATOM     22  S   UNL     1      -5.296  -2.578   0.268  0.00  0.00    -0.101 S 
ATOM     23  C   UNL     1      -3.799  -1.649   0.445  0.00  0.00    -0.010 A 
ATOM     24  C   UNL     1      -3.577  -0.319   1.087  0.00  0.00    +0.024 C 
ATOM     25  C   UNL     1      -2.062  -0.140   1.282  0.00  0.00    -0.072 C 
ATOM     26  N   UNL     1      -1.377  -0.512   0.035  0.00  0.00    +0.390 N 
ATOM     27  H   UNL     1      -1.928  -0.039  -0.791  0.00  0.00    -0.080 HD
ENDBRANCH  16  26
ENDBRANCH   1  16
TORSDOF 3
