REMARK  Name = ZINC06108833
REMARK  6 active torsions:
REMARK  status: ('A' for Active; 'I' for Inactive)
REMARK    1  A    between atoms: C_1  and  C_2
REMARK    2  A    between atoms: C_2  and  C_4
REMARK    3  A    between atoms: C_2  and  S_14
REMARK    4  A    between atoms: N_6  and  C_7
REMARK    5  A    between atoms: N_6  and  C_8
REMARK    6  A    between atoms: S_14  and  C_15
REMARK                            x       y       z     vdW  Elec       q    Type
REMARK                         _______ _______ _______ _____ _____    ______ ____
ROOT
ATOM      1  C   UNL     1       3.996   2.128   3.330  0.00  0.00    +0.192 A 
ATOM      2  N   UNL     1       4.321   1.338   2.313  0.00  0.00    -0.207 NA
ATOM      3  C   UNL     1       5.471   0.687   2.268  0.00  0.00    +0.129 A 
ATOM      4  C   UNL     1       6.390   0.824   3.346  0.00  0.00    +0.051 A 
ATOM      5  C   UNL     1       7.705   0.202   3.511  0.00  0.00    -0.025 A 
ATOM      6  C   UNL     1       8.385   0.498   4.636  0.00  0.00    -0.004 A 
ATOM      7  S   UNL     1       7.333   1.608   5.534  0.00  0.00    -0.073 S 
ATOM      8  C   UNL     1       5.977   1.673   4.392  0.00  0.00    +0.115 A 
ATOM      9  N   UNL     1       4.813   2.293   4.361  0.00  0.00    -0.214 NA
ATOM     10  C   UNL     1       9.739  -0.005   5.038  0.00  0.00    +0.043 C 
ATOM     11  C   UNL     1      10.092  -1.207   4.151  0.00  0.00    +0.005 C 
ATOM     12  C   UNL     1       9.806  -0.842   2.692  0.00  0.00    +0.005 C 
ATOM     13  C   UNL     1       8.297  -0.743   2.468  0.00  0.00    +0.037 C 
ATOM     14  N   UNL     1       5.774  -0.122   1.188  0.00  0.00    -0.343 N 
ATOM     15  H   UNL     1       6.484  -0.780   1.260  0.00  0.00    +0.144 HD
ATOM     16  H   UNL     1       5.278  -0.033   0.360  0.00  0.00    +0.144 HD
ENDROOT
BRANCH   1  17
ATOM     17  S   UNL     1       2.447   2.967   3.312  0.00  0.00    -0.073 S 
BRANCH  17  19
ATOM     18  C   UNL     1       1.555   0.875   1.798  0.00  0.00    +0.029 C 
ATOM     19  C   UNL     1       1.792   2.385   1.728  0.00  0.00    +0.137 C 
BRANCH  19  20
ATOM     20  C   UNL     1       0.489   3.084   1.436  0.00  0.00    +0.233 C 
ATOM     21  O   UNL     1      -0.136   3.603   2.336  0.00  0.00    -0.274 OA
ATOM     22  N   UNL     1       0.020   3.133   0.173  0.00  0.00    -0.274 N 
ATOM     23  C   UNL     1       0.826   2.605  -0.929  0.00  0.00    +0.138 C 
BRANCH  22  24
ATOM     24  C   UNL     1      -1.238   3.689  -0.084  0.00  0.00    +0.036 A 
ATOM     25  C   UNL     1      -2.277   2.882  -0.529  0.00  0.00    +0.023 A 
ATOM     26  C   UNL     1      -3.520   3.433  -0.776  0.00  0.00    +0.002 A 
ATOM     27  C   UNL     1      -3.726   4.788  -0.592  0.00  0.00    +0.000 A 
ATOM     28  C   UNL     1      -2.692   5.595  -0.154  0.00  0.00    +0.002 A 
ATOM     29  C   UNL     1      -1.449   5.049   0.100  0.00  0.00    +0.023 A 
ENDBRANCH  22  24
ENDBRANCH  19  20
ENDBRANCH  17  19
ENDBRANCH   1  17
TORSDOF 4
