REMARK  Name = ZINC36619307
REMARK  8 active torsions:
REMARK  status: ('A' for Active; 'I' for Inactive)
REMARK    1  A    between atoms: C_1  and  C_2
REMARK    2  A    between atoms: C_2  and  N_3
REMARK    3  A    between atoms: C_4  and  C_9
REMARK    4  A    between atoms: C_9  and  N_10
REMARK    5  A    between atoms: C_11  and  C_13
REMARK    6  A    between atoms: C_15  and  C_23
REMARK    7  A    between atoms: C_19  and  C_22
REMARK    8  A    between atoms: N_26  and  C_28
REMARK                            x       y       z     vdW  Elec       q    Type
REMARK                         _______ _______ _______ _____ _____    ______ ____
ROOT
ATOM      1  C   UNL     1       4.773   2.719  -0.976  0.00  0.00    +0.053 A 
ATOM      2  C   UNL     1       4.176   3.704  -0.195  0.00  0.00    +0.042 A 
ATOM      3  C   UNL     1       4.782   4.961  -0.106  0.00  0.00    +0.079 A 
ATOM      4  N   UNL     1       5.909   5.230  -0.748  0.00  0.00    -0.210 NA
ATOM      5  C   UNL     1       6.517   4.330  -1.503  0.00  0.00    +0.260 A 
ATOM      6  C   UNL     1       5.974   3.040  -1.641  0.00  0.00    +0.076 A 
ATOM      7  C   UNL     1       6.875   2.298  -2.521  0.00  0.00    +0.091 A 
ATOM      8  N   UNL     1       7.845   3.099  -2.846  0.00  0.00    -0.080 NA
ATOM      9  O   UNL     1       7.646   4.360  -2.240  0.00  0.00    -0.334 OA
ATOM     10  C   UNL     1       6.710   0.868  -2.967  0.00  0.00    +0.070 C 
ENDROOT
BRANCH   3  11
ATOM     11  C   UNL     1       4.150   6.013   0.724  0.00  0.00    +0.038 A 
ATOM     12  C   UNL     1       2.961   5.885   1.470  0.00  0.00    +0.144 A 
ATOM     13  N   UNL     1       2.731   7.025   2.065  0.00  0.00    -0.179 NA
ATOM     14  N   UNL     1       3.754   7.919   1.726  0.00  0.00    -0.274 N 
ATOM     15  C   UNL     1       4.617   7.284   0.911  0.00  0.00    +0.118 A 
ATOM     16  C   UNL     1       3.869   9.305   2.186  0.00  0.00    +0.172 C 
ENDBRANCH   3  11
BRANCH   1  18
ATOM     17  N   UNL     1       3.542   0.816  -0.045  0.00  0.00    -0.306 N 
ATOM     18  C   UNL     1       4.168   1.374  -1.100  0.00  0.00    +0.245 C 
ATOM     19  O   UNL     1       4.236   0.772  -2.154  0.00  0.00    -0.270 OA
ATOM     20  H   UNL     1       3.489   1.296   0.796  0.00  0.00    +0.149 HD
BRANCH  17  21
ATOM     21  C   UNL     1       2.944  -0.515  -0.168  0.00  0.00    +0.161 C 
BRANCH  21  23
ATOM     22  N   UNL     1       1.038  -0.659   1.519  0.00  0.00    -0.266 N 
ATOM     23  C   UNL     1       2.312  -0.905   1.144  0.00  0.00    +0.074 A 
ATOM     24  C   UNL     1       2.920  -1.565   2.158  0.00  0.00    +0.083 A 
ATOM     25  C   UNL     1       1.986  -1.728   3.186  0.00  0.00    +0.154 A 
ATOM     26  N   UNL     1       0.860  -1.181   2.807  0.00  0.00    -0.178 NA
ATOM     27 CL   UNL     1       4.567  -2.114   2.177  0.00  0.00    -0.080 Cl
BRANCH  22  29
ATOM     28  C   UNL     1       0.088   1.536   1.012  0.00  0.00    +0.029 C 
ATOM     29  C   UNL     1       0.025   0.036   0.722  0.00  0.00    +0.140 C 
ENDBRANCH  22  29
ENDBRANCH  21  23
ENDBRANCH  17  21
ENDBRANCH   1  18
TORSDOF 5
