REMARK  Name = ZINC30849212
REMARK  11 active torsions:
REMARK  status: ('A' for Active; 'I' for Inactive)
REMARK    1  A    between atoms: C_1  and  C_2
REMARK    2  A    between atoms: N_6  and  C_7
REMARK    3  A    between atoms: C_10  and  C_13
REMARK    4  A    between atoms: C_13  and  N_14
REMARK    5  A    between atoms: C_15  and  C_17
REMARK    6  A    between atoms: C_17  and  C_18
REMARK    7  A    between atoms: C_18  and  C_19
REMARK    8  A    between atoms: C_19  and  N_20
REMARK    9  A    between atoms: N_20  and  C_21
REMARK   10  A    between atoms: N_20  and  S_29
REMARK   11  A    between atoms: S_29  and  C_32
REMARK                            x       y       z     vdW  Elec       q    Type
REMARK                         _______ _______ _______ _____ _____    ______ ____
ROOT
ATOM      1  N   UNL     1      -0.721   1.571  -1.179  0.00  0.00    -0.311 N 
ATOM      2  C   UNL     1      -0.268   1.258  -2.409  0.00  0.00    +0.213 C 
ATOM      3  O   UNL     1       0.726   0.575  -2.534  0.00  0.00    -0.276 OA
ATOM      4  H   UNL     1      -1.623   2.191  -1.066  0.00  0.00    +0.149 HD
ENDROOT
BRANCH   1   5
ATOM      5  C   UNL     1      -0.013   1.086   0.008  0.00  0.00    +0.139 C 
BRANCH   5   9
ATOM      6  C   UNL     1      -2.012   2.464   3.525  0.00  0.00    +0.048 A 
ATOM      7  C   UNL     1      -2.368   1.249   2.953  0.00  0.00    +0.026 A 
ATOM      8  C   UNL     1      -1.720   0.807   1.817  0.00  0.00    +0.007 A 
ATOM      9  C   UNL     1      -0.718   1.572   1.248  0.00  0.00    -0.030 A 
ATOM     10  C   UNL     1      -0.359   2.779   1.818  0.00  0.00    +0.007 A 
ATOM     11  C   UNL     1      -1.007   3.230   2.951  0.00  0.00    +0.026 A 
BRANCH   6  17
ATOM     12  C   UNL     1      -0.598   3.454   6.067  0.00  0.00    +0.084 C 
ATOM     13  C   UNL     1      -2.082   3.360   5.820  0.00  0.00    +0.088 A 
ATOM     14  N   UNL     1      -3.018   3.695   6.665  0.00  0.00    -0.350 N 
ATOM     15  C   UNL     1      -4.218   3.474   6.110  0.00  0.00    +0.102 A 
ATOM     16  C   UNL     1      -4.024   2.988   4.870  0.00  0.00    +0.110 A 
ATOM     17  N   UNL     1      -2.669   2.916   4.678  0.00  0.00    -0.305 N 
ATOM     18  H   UNL     1      -2.748   4.089   7.657  0.00  0.00    +0.166 HD
ENDBRANCH   6  17
ENDBRANCH   5   9
ENDBRANCH   1   5
BRANCH   2  19
ATOM     19  C   UNL     1      -0.997   1.758  -3.630  0.00  0.00    +0.097 C 
BRANCH  19  20
ATOM     20  C   UNL     1      -0.281   1.264  -4.889  0.00  0.00    +0.030 C 
BRANCH  20  21
ATOM     21  C   UNL     1      -1.021   1.771  -6.128  0.00  0.00    +0.132 C 
BRANCH  21  22
ATOM     22  N   UNL     1      -0.335   1.299  -7.334  0.00  0.00    -0.206 N 
BRANCH  22  23
ATOM     23  C   UNL     1      -0.619   0.030  -7.847  0.00  0.00    +0.071 A 
ATOM     24  C   UNL     1      -1.701  -0.149  -8.699  0.00  0.00    +0.046 A 
ATOM     25  C   UNL     1      -1.976  -1.404  -9.210  0.00  0.00    +0.043 A 
ATOM     26  C   UNL     1      -1.181  -2.483  -8.864  0.00  0.00    +0.021 A 
ATOM     27  C   UNL     1      -0.106  -2.308  -8.012  0.00  0.00    +0.023 A 
ATOM     28  C   UNL     1       0.177  -1.055  -7.502  0.00  0.00    +0.064 A 
ATOM     29 CL   UNL     1       1.527  -0.837  -6.433  0.00  0.00    -0.082 Cl
ATOM     30 CL   UNL     1      -3.324  -1.628 -10.280  0.00  0.00    -0.083 Cl
ENDBRANCH  22  23
BRANCH  22  31
ATOM     31  S   UNL     1       0.776   2.267  -8.087  0.00  0.00    +0.043 S 
ATOM     32  O   UNL     1       0.771   1.839  -9.442  0.00  0.00    -0.155 OA
ATOM     33  O   UNL     1       0.394   3.592  -7.745  0.00  0.00    -0.155 OA
ATOM     34  C   UNL     1       2.361   1.853  -7.307  0.00  0.00    +0.218 C 
ENDBRANCH  22  31
ENDBRANCH  21  22
ENDBRANCH  20  21
ENDBRANCH  19  20
ENDBRANCH   2  19
TORSDOF 9
