REMARK  Name = ZINC07125854
REMARK  9 active torsions:
REMARK  status: ('A' for Active; 'I' for Inactive)
REMARK    1  A    between atoms: C_1  and  C_2
REMARK    2  A    between atoms: C_5  and  N_9
REMARK    3  A    between atoms: C_6  and  C_8
REMARK    4  A    between atoms: C_10  and  C_12
REMARK    5  A    between atoms: C_12  and  C_14
REMARK    6  A    between atoms: C_12  and  S_15
REMARK    7  A    between atoms: S_15  and  C_16
REMARK    8  A    between atoms: C_19  and  C_22
REMARK    9  A    between atoms: N_20  and  N_21
REMARK                            x       y       z     vdW  Elec       q    Type
REMARK                         _______ _______ _______ _____ _____    ______ ____
ROOT
ATOM      1  S   UNL     1       4.657   7.097   0.057  0.00  0.00    -0.072 S 
ENDROOT
BRANCH   1   2
ATOM      2  C   UNL     1       3.891   5.511   0.076  0.00  0.00    +0.209 A 
ATOM      3  N   UNL     1       4.504   4.349   0.096  0.00  0.00    -0.121 NA
ATOM      4  N   UNL     1       3.643   3.395   0.105  0.00  0.00    -0.127 NA
ATOM      5  C   UNL     1       2.427   3.889   0.091  0.00  0.00    +0.183 A 
ATOM      6  N   UNL     1       2.548   5.260   0.067  0.00  0.00    -0.224 N 
BRANCH   5   7
ATOM      7  C   UNL     1       1.165   3.119   0.095  0.00  0.00    +0.039 A 
ATOM      8  C   UNL     1       0.143   3.443  -0.798  0.00  0.00    +0.013 A 
ATOM      9  C   UNL     1      -1.032   2.720  -0.789  0.00  0.00    +0.001 A 
ATOM     10  C   UNL     1      -1.202   1.679   0.107  0.00  0.00    +0.001 A 
ATOM     11  C   UNL     1      -0.192   1.349   0.992  0.00  0.00    +0.021 A 
ATOM     12  C   UNL     1       0.990   2.064   0.994  0.00  0.00    +0.052 A 
ATOM     13 CL   UNL     1       2.255   1.652   2.109  0.00  0.00    -0.083 Cl
ENDBRANCH   5   7
BRANCH   6  14
ATOM     14  N   UNL     1       1.537   6.177   0.041  0.00  0.00    -0.295 N 
ATOM     15  H   UNL     1       1.219   6.391   0.975  0.00  0.00    +0.163 HD
ATOM     16  H   UNL     1       1.821   7.015  -0.445  0.00  0.00    +0.163 HD
ENDBRANCH   6  14
ENDBRANCH   1   2
BRANCH   1  17
ATOM     17  C   UNL     1       6.399   6.605   0.074  0.00  0.00    +0.137 C 
ATOM     18  C   UNL     1       6.731   5.860  -1.220  0.00  0.00    +0.029 C 
BRANCH  17  20
ATOM     19  N   UNL     1       8.539   7.721   0.615  0.00  0.00    -0.284 N 
ATOM     20  C   UNL     1       7.267   7.832   0.185  0.00  0.00    +0.230 C 
ATOM     21  O   UNL     1       6.820   8.919  -0.113  0.00  0.00    -0.274 OA
ATOM     22  H   UNL     1       8.916   6.845   0.792  0.00  0.00    +0.155 HD
BRANCH  19  27
ATOM     23  C   UNL     1      11.688  12.376   1.391  0.00  0.00    +0.044 C 
ATOM     24  C   UNL     1      10.851  11.139   1.185  0.00  0.00    -0.050 A 
ATOM     25  C   UNL     1       9.832  11.143   0.251  0.00  0.00    +0.005 A 
ATOM     26  C   UNL     1       9.064  10.012   0.059  0.00  0.00    +0.024 A 
ATOM     27  C   UNL     1       9.316   8.869   0.807  0.00  0.00    +0.036 A 
ATOM     28  C   UNL     1      10.336   8.869   1.748  0.00  0.00    -0.029 A 
ATOM     29  C   UNL     1      11.105  10.003   1.931  0.00  0.00    +0.008 A 
ATOM     30  C   UNL     1      10.609   7.633   2.566  0.00  0.00    +0.045 C 
ENDBRANCH  19  27
ENDBRANCH  17  20
ENDBRANCH   1  17
TORSDOF 6
