REMARK  Name = ZINC64837061
REMARK  6 active torsions:
REMARK  status: ('A' for Active; 'I' for Inactive)
REMARK    1  A    between atoms: C_1  and  O_2
REMARK    2  A    between atoms: O_2  and  C_3
REMARK    3  A    between atoms: C_6  and  C_20
REMARK    4  A    between atoms: C_8  and  S_9
REMARK    5  A    between atoms: S_9  and  N_12
REMARK    6  A    between atoms: N_12  and  C_13
REMARK                            x       y       z     vdW  Elec       q    Type
REMARK                         _______ _______ _______ _____ _____    ______ ____
ROOT
ATOM      1  C   UNL     1       0.762  -0.525  -1.077  0.00  0.00    +0.147 A 
ATOM      2  C   UNL     1       1.452   0.214  -2.030  0.00  0.00    +0.048 A 
ATOM      3  C   UNL     1       2.038  -0.421  -3.104  0.00  0.00    +0.014 A 
ATOM      4  C   UNL     1       1.937  -1.806  -3.234  0.00  0.00    +0.004 A 
ATOM      5  C   UNL     1       1.244  -2.544  -2.276  0.00  0.00    +0.042 A 
ATOM      6  C   UNL     1       0.664  -1.904  -1.201  0.00  0.00    +0.150 A 
ENDROOT
BRANCH   4   7
ATOM      7  C   UNL     1       2.566  -2.491  -4.389  0.00  0.00    +0.091 A 
ATOM      8  C   UNL     1       3.268  -1.738  -5.359  0.00  0.00    +0.035 A 
ATOM      9  C   UNL     1       3.833  -2.402  -6.407  0.00  0.00    +0.073 A 
ATOM     10  C   UNL     1       3.682  -3.805  -6.460  0.00  0.00    +0.265 A 
ATOM     11  O   UNL     1       4.171  -4.442  -7.379  0.00  0.00    -0.266 OA
ATOM     12  N   UNL     1       2.995  -4.435  -5.488  0.00  0.00    -0.243 N 
ATOM     13  N   UNL     1       2.474  -3.795  -4.505  0.00  0.00    -0.171 NA
ATOM     14  H   UNL     1       2.895  -5.399  -5.530  0.00  0.00    +0.192 HD
ENDBRANCH   4   7
BRANCH   6  15
ATOM     15  S   UNL     1      -0.206  -2.837   0.014  0.00  0.00    +0.076 S 
ATOM     16  O   UNL     1      -1.467  -2.204   0.186  0.00  0.00    -0.150 OA
ATOM     17  O   UNL     1      -0.085  -4.203  -0.360  0.00  0.00    -0.150 OA
BRANCH  15  18
ATOM     18  N   UNL     1       0.611  -2.663   1.444  0.00  0.00    -0.216 N 
ATOM     19  H   UNL     1       0.180  -2.233   2.199  0.00  0.00    +0.174 HD
BRANCH  18  20
ATOM     20  C   UNL     1       1.920  -3.135   1.562  0.00  0.00    +0.048 A 
ATOM     21  C   UNL     1       2.251  -4.396   1.082  0.00  0.00    +0.025 A 
ATOM     22  C   UNL     1       3.546  -4.860   1.200  0.00  0.00    +0.016 A 
ATOM     23  C   UNL     1       4.513  -4.072   1.797  0.00  0.00    +0.013 A 
ATOM     24  C   UNL     1       4.187  -2.816   2.277  0.00  0.00    +0.016 A 
ATOM     25  C   UNL     1       2.895  -2.343   2.155  0.00  0.00    +0.025 A 
ATOM     26  I   UNL     1       6.476  -4.781   1.976  0.00  0.00    -0.044 I 
ENDBRANCH  18  20
ENDBRANCH  15  18
ENDBRANCH   6  15
BRANCH   1  28
ATOM     27  C   UNL     1       0.229   1.532  -0.011  0.00  0.00    +0.277 C 
ATOM     28  O   UNL     1       0.185   0.103  -0.019  0.00  0.00    -0.493 OA
ENDBRANCH   1  28
TORSDOF 5
