REMARK  Name = ZINC41154765
REMARK  3 active torsions:
REMARK  status: ('A' for Active; 'I' for Inactive)
REMARK    1  A    between atoms: C_1  and  S_2
REMARK    2  A    between atoms: S_2  and  C_3
REMARK    3  A    between atoms: C_12  and  C_14
REMARK                            x       y       z     vdW  Elec       q    Type
REMARK                         _______ _______ _______ _____ _____    ______ ____
ROOT
ATOM      1  C   UNL     1       0.848  -0.411  -1.489  0.00  0.00    +0.171 A 
ATOM      2  N   UNL     1       1.036  -1.724  -1.808  0.00  0.00    -0.299 N 
ATOM      3  H   UNL     1       0.704  -2.417  -1.216  0.00  0.00    +0.171 HD
ATOM      4  C   UNL     1       1.681  -2.063  -2.946  0.00  0.00    +0.297 A 
ATOM      5  O   UNL     1       1.853  -3.235  -3.239  0.00  0.00    -0.264 OA
ATOM      6  C   UNL     1       2.149  -1.038  -3.782  0.00  0.00    +0.238 A 
ATOM      7  C   UNL     1       1.931   0.292  -3.410  0.00  0.00    +0.207 A 
ATOM      8  N   UNL     1       1.277   0.559  -2.265  0.00  0.00    -0.201 NA
ATOM      9  N   UNL     1       2.473   1.058  -4.372  0.00  0.00    -0.189 NA
ATOM     10  C   UNL     1       2.998   0.282  -5.293  0.00  0.00    +0.230 A 
ATOM     11  O   UNL     1       2.814  -1.007  -4.958  0.00  0.00    -0.428 OA
ENDROOT
BRANCH  10  12
ATOM     12  C   UNL     1       3.685   0.754  -6.512  0.00  0.00    +0.037 A 
ATOM     13  C   UNL     1       4.200  -0.167  -7.427  0.00  0.00    +0.014 A 
ATOM     14  C   UNL     1       4.841   0.280  -8.563  0.00  0.00    +0.021 A 
ATOM     15  C   UNL     1       4.973   1.638  -8.799  0.00  0.00    +0.041 A 
ATOM     16  C   UNL     1       4.464   2.556  -7.895  0.00  0.00    +0.021 A 
ATOM     17  C   UNL     1       3.816   2.122  -6.758  0.00  0.00    +0.014 A 
ATOM     18 CL   UNL     1       5.781   2.193 -10.232  0.00  0.00    -0.084 Cl
ENDBRANCH  10  12
BRANCH   1  20
ATOM     19  C   UNL     1      -0.022   1.810   0.012  0.00  0.00    +0.093 C 
ATOM     20  S   UNL     1       0.002  -0.004   0.002  0.00  0.00    -0.091 S 
ENDBRANCH   1  20
TORSDOF 2
