REMARK  Name = ZINC01479442
REMARK  9 active torsions:
REMARK  status: ('A' for Active; 'I' for Inactive)
REMARK    1  A    between atoms: C_1  and  C_2
REMARK    2  A    between atoms: C_5  and  N_8
REMARK    3  A    between atoms: C_9  and  C_26
REMARK    4  A    between atoms: C_12  and  S_13
REMARK    5  A    between atoms: S_13  and  C_14
REMARK    6  A    between atoms: C_14  and  C_15
REMARK    7  A    between atoms: N_17  and  N_18
REMARK    8  A    between atoms: C_19  and  C_20
REMARK    9  A    between atoms: C_23  and  C_25
REMARK                            x       y       z     vdW  Elec       q    Type
REMARK                         _______ _______ _______ _____ _____    ______ ____
ROOT
ATOM      1  N   UNL     1      -4.205  10.630   0.086  0.00  0.00    -0.270 N 
ATOM      2  C   UNL     1      -5.570  10.823   0.089  0.00  0.00    +0.169 A 
ATOM      3  N   UNL     1      -6.127   9.634   0.086  0.00  0.00    -0.128 NA
ATOM      4  N   UNL     1      -5.220   8.724   0.076  0.00  0.00    -0.122 NA
ATOM      5  C   UNL     1      -4.026   9.275   0.073  0.00  0.00    +0.197 A 
ENDROOT
BRANCH   1  10
ATOM      6  C   UNL     1      -0.174  14.625   0.116  0.00  0.00    +0.044 C 
ATOM      7  C   UNL     1      -1.244  13.564   0.108  0.00  0.00    -0.050 A 
ATOM      8  C   UNL     1      -1.381  12.730  -0.987  0.00  0.00    +0.005 A 
ATOM      9  C   UNL     1      -2.361  11.757  -0.997  0.00  0.00    +0.026 A 
ATOM     10  C   UNL     1      -3.210  11.617   0.093  0.00  0.00    +0.051 A 
ATOM     11  C   UNL     1      -3.074  12.460   1.188  0.00  0.00    +0.026 A 
ATOM     12  C   UNL     1      -2.088  13.428   1.195  0.00  0.00    +0.005 A 
ENDBRANCH   1  10
BRANCH   2  13
ATOM     13  C   UNL     1      -6.273  12.123   0.099  0.00  0.00    +0.022 A 
ATOM     14  C   UNL     1      -5.595  13.310  -0.204  0.00  0.00    +0.031 A 
ATOM     15  C   UNL     1      -6.292  14.500  -0.187  0.00  0.00    +0.111 A 
ATOM     16  N   UNL     1      -7.576  14.530   0.118  0.00  0.00    -0.263 NA
ATOM     17  C   UNL     1      -8.251  13.435   0.414  0.00  0.00    +0.111 A 
ATOM     18  C   UNL     1      -7.635  12.202   0.417  0.00  0.00    +0.031 A 
ENDBRANCH   2  13
BRANCH   5  19
ATOM     19  S   UNL     1      -2.482   8.425   0.060  0.00  0.00    -0.076 S 
BRANCH  19  20
ATOM     20  C   UNL     1      -3.067   6.712   0.054  0.00  0.00    +0.174 C 
BRANCH  20  21
ATOM     21  C   UNL     1      -1.884   5.778   0.043  0.00  0.00    +0.242 C 
ATOM     22  O   UNL     1      -0.757   6.226   0.040  0.00  0.00    -0.273 OA
ATOM     23  N   UNL     1      -2.079   4.444   0.037  0.00  0.00    -0.206 N 
ATOM     24  H   UNL     1      -2.980   4.086   0.039  0.00  0.00    +0.177 HD
BRANCH  23  25
ATOM     25  N   UNL     1      -0.979   3.576   0.026  0.00  0.00    -0.187 NA
ATOM     26  C   UNL     1      -1.167   2.289   0.020  0.00  0.00    +0.145 C 
BRANCH  26  27
ATOM     27  C   UNL     1      -0.017   1.380   0.010  0.00  0.00    +0.032 A 
ATOM     28  C   UNL     1       0.002  -0.004   0.002  0.00  0.00    +0.017 A 
ATOM     29  C   UNL     1       1.221  -0.641  -0.013  0.00  0.00    +0.011 A 
ATOM     30  C   UNL     1       2.359   0.101  -0.020  0.00  0.00    -0.013 A 
ATOM     31  S   UNL     1       1.726   1.770  -0.005  0.00  0.00    -0.093 S 
ATOM     32  C   UNL     1       3.792  -0.366  -0.036  0.00  0.00    +0.051 C 
ENDBRANCH  26  27
ENDBRANCH  23  25
ENDBRANCH  20  21
ENDBRANCH  19  20
ENDBRANCH   5  19
TORSDOF 7
