REMARK  Name = ZINC59446073
REMARK  9 active torsions:
REMARK  status: ('A' for Active; 'I' for Inactive)
REMARK    1  A    between atoms: C_1  and  C_2
REMARK    2  A    between atoms: C_2  and  O_3
REMARK    3  A    between atoms: O_3  and  C_4
REMARK    4  A    between atoms: C_8  and  N_10
REMARK    5  A    between atoms: C_14  and  S_18
REMARK    6  A    between atoms: S_18  and  C_19
REMARK    7  A    between atoms: N_21  and  N_22
REMARK    8  A    between atoms: C_23  and  C_24
REMARK    9  A    between atoms: C_23  and  C_25
REMARK                            x       y       z     vdW  Elec       q    Type
REMARK                         _______ _______ _______ _____ _____    ______ ____
ROOT
ATOM      1  N   UNL     1       2.173  -4.224  -3.741  0.00  0.00    -0.209 N 
ATOM      2  C   UNL     1       2.629  -3.456  -4.738  0.00  0.00    +0.228 C 
ATOM      3  O   UNL     1       2.541  -2.248  -4.790  0.00  0.00    -0.275 OA
ATOM      4  C   UNL     1       3.271  -4.334  -5.790  0.00  0.00    +0.120 C 
ATOM      5  C   UNL     1       3.106  -5.758  -5.221  0.00  0.00    +0.149 C 
ATOM      6  C   UNL     1       2.393  -5.535  -3.905  0.00  0.00    +0.240 C 
ATOM      7  O   UNL     1       2.069  -6.404  -3.125  0.00  0.00    -0.274 OA
ENDROOT
BRANCH   1  12
ATOM      8  C   UNL     1       1.487  -3.249  -0.257  0.00  0.00    +0.122 A 
ATOM      9  C   UNL     1       0.237  -2.660  -0.392  0.00  0.00    +0.046 A 
ATOM     10  C   UNL     1      -0.365  -2.592  -1.634  0.00  0.00    +0.005 A 
ATOM     11  C   UNL     1       0.275  -3.109  -2.744  0.00  0.00    +0.024 A 
ATOM     12  C   UNL     1       1.524  -3.699  -2.614  0.00  0.00    +0.047 A 
ATOM     13  C   UNL     1       2.133  -3.764  -1.369  0.00  0.00    +0.069 A 
BRANCH   8  14
ATOM     14  O   UNL     1       2.078  -3.316   0.965  0.00  0.00    -0.492 OA
BRANCH  14  16
ATOM     15  C   UNL     1       2.173  -2.932   3.349  0.00  0.00    +0.048 C 
ATOM     16  C   UNL     1       1.354  -2.765   2.067  0.00  0.00    +0.225 C 
ENDBRANCH  14  16
ENDBRANCH   8  14
ENDBRANCH   1  12
BRANCH   5  17
ATOM     17  S   UNL     1       4.726  -6.527  -4.944  0.00  0.00    -0.078 S 
BRANCH  17  18
ATOM     18  C   UNL     1       4.337  -8.172  -4.444  0.00  0.00    +0.146 C 
ATOM     19  N   UNL     1       3.025  -8.570  -4.353  0.00  0.00    -0.338 N 
ATOM     20  N   UNL     1       5.304  -9.019  -4.159  0.00  0.00    -0.259 N 
ATOM     21  H   UNL     1       2.312  -7.946  -4.563  0.00  0.00    +0.144 HD
ATOM     22  H   UNL     1       2.811  -9.476  -4.077  0.00  0.00    +0.144 HD
ATOM     23  H   UNL     1       6.231  -8.738  -4.224  0.00  0.00    +0.191 HD
BRANCH  20  24
ATOM     24  N   UNL     1       4.996 -10.326  -3.762  0.00  0.00    -0.176 NA
ATOM     25  C   UNL     1       5.956 -11.168  -3.478  0.00  0.00    +0.072 C 
ATOM     26  C   UNL     1       7.395 -10.731  -3.579  0.00  0.00    +0.068 C 
BRANCH  25  27
ATOM     27  C   UNL     1       5.633 -12.534  -3.063  0.00  0.00    +0.036 A 
ATOM     28  C   UNL     1       4.392 -13.131  -2.914  0.00  0.00    +0.018 A 
ATOM     29  C   UNL     1       4.344 -14.444  -2.507  0.00  0.00    +0.023 A 
ATOM     30  C   UNL     1       5.506 -15.109  -2.267  0.00  0.00    +0.055 A 
ATOM     31  S   UNL     1       6.737 -13.867  -2.625  0.00  0.00    -0.080 S 
ATOM     32 BR   UNL     1       5.754 -16.897  -1.704  0.00  0.00    -0.043 Br
ENDBRANCH  25  27
ENDBRANCH  20  24
ENDBRANCH  17  18
ENDBRANCH   5  17
TORSDOF 7
