REMARK  Name = ZINC15869371
REMARK  8 active torsions:
REMARK  status: ('A' for Active; 'I' for Inactive)
REMARK    1  A    between atoms: C_1  and  C_2
REMARK    2  A    between atoms: C_2  and  N_3
REMARK    3  A    between atoms: C_6  and  N_25
REMARK    4  A    between atoms: C_7  and  S_15
REMARK    5  A    between atoms: N_10  and  C_13
REMARK    6  A    between atoms: C_13  and  C_14
REMARK    7  A    between atoms: S_15  and  C_18
REMARK    8  A    between atoms: C_21  and  C_24
REMARK                            x       y       z     vdW  Elec       q    Type
REMARK                         _______ _______ _______ _____ _____    ______ ____
ROOT
ATOM      1  N   UNL     1       0.620   1.642   3.622  0.00  0.00    -0.292 N 
ATOM      2  C   UNL     1       0.068   0.376   3.803  0.00  0.00    +0.072 A 
ATOM      3  C   UNL     1       0.312  -0.647   4.705  0.00  0.00    +0.052 A 
ATOM      4  C   UNL     1      -0.431  -1.817   4.640  0.00  0.00    +0.052 A 
ATOM      5  C   UNL     1      -1.411  -1.967   3.664  0.00  0.00    +0.116 A 
ATOM      6  C   UNL     1      -1.654  -0.952   2.761  0.00  0.00    +0.057 A 
ATOM      7  C   UNL     1      -0.919   0.223   2.826  0.00  0.00    +0.072 A 
ATOM      8  N   UNL     1      -0.929   1.399   2.076  0.00  0.00    -0.292 N 
ATOM      9  C   UNL     1       0.003   2.230   2.581  0.00  0.00    +0.330 A 
ATOM     10  O   UNL     1       0.249   3.345   2.159  0.00  0.00    -0.246 OA
ENDROOT
BRANCH   5  11
ATOM     11  S   UNL     1      -2.345  -3.459   3.581  0.00  0.00    +0.027 S 
ATOM     12  O   UNL     1      -3.279  -3.295   2.522  0.00  0.00    -0.164 OA
ATOM     13  O   UNL     1      -1.408  -4.527   3.611  0.00  0.00    -0.164 OA
BRANCH  11  14
ATOM     14  C   UNL     1      -3.284  -3.570   5.067  0.00  0.00    +0.094 A 
ATOM     15  C   UNL     1      -2.816  -4.325   6.126  0.00  0.00    +0.027 A 
ATOM     16  C   UNL     1      -3.551  -4.409   7.294  0.00  0.00    +0.005 A 
ATOM     17  C   UNL     1      -4.758  -3.744   7.400  0.00  0.00    -0.050 A 
ATOM     18  C   UNL     1      -5.229  -2.993   6.339  0.00  0.00    +0.005 A 
ATOM     19  C   UNL     1      -4.492  -2.906   5.173  0.00  0.00    +0.027 A 
ATOM     20  C   UNL     1      -5.561  -3.839   8.671  0.00  0.00    +0.044 C 
ENDBRANCH  11  14
ENDBRANCH   5  11
BRANCH   4  21
ATOM     21  N   UNL     1      -0.190  -2.850   5.552  0.00  0.00    -0.356 N 
ATOM     22  H   UNL     1      -0.631  -3.707   5.442  0.00  0.00    +0.142 HD
ATOM     23  H   UNL     1       0.419  -2.709   6.294  0.00  0.00    +0.142 HD
ENDBRANCH   4  21
BRANCH   1  25
ATOM     24  C   UNL     1       1.082   2.994   5.607  0.00  0.00    +0.027 C 
ATOM     25  C   UNL     1       1.691   2.232   4.428  0.00  0.00    +0.123 C 
ENDBRANCH   1  25
BRANCH   8  26
ATOM     26  C   UNL     1      -1.806   1.683   0.938  0.00  0.00    +0.123 C 
ATOM     27  C   UNL     1      -1.129   1.225  -0.355  0.00  0.00    +0.027 C 
ENDBRANCH   8  26
TORSDOF 5
