REMARK  Name = ZINC02506497
REMARK  6 active torsions:
REMARK  status: ('A' for Active; 'I' for Inactive)
REMARK    1  A    between atoms: C_4  and  C_7
REMARK    2  A    between atoms: C_8  and  C_18
REMARK    3  A    between atoms: N_10  and  C_12
REMARK    4  A    between atoms: N_19  and  N_20
REMARK    5  A    between atoms: C_21  and  C_23
REMARK    6  A    between atoms: N_25  and  C_26
REMARK                            x       y       z     vdW  Elec       q    Type
REMARK                         _______ _______ _______ _____ _____    ______ ____
ROOT
ATOM      1  C   UNL     1       1.091   6.471   0.089  0.00  0.00    +0.102 A 
ATOM      2  C   UNL     1       2.237   5.612  -0.225  0.00  0.00    +0.040 A 
ATOM      3  C   UNL     1       3.345   6.432  -0.249  0.00  0.00    +0.124 A 
ATOM      4  N   UNL     1       2.935   7.689   0.016  0.00  0.00    -0.239 N 
ATOM      5  N   UNL     1       1.552   7.696   0.224  0.00  0.00    -0.166 NA
ENDROOT
BRANCH   1   9
ATOM      6  C   UNL     1      -2.957   5.238   0.491  0.00  0.00    +0.000 A 
ATOM      7  C   UNL     1      -1.948   4.490   1.071  0.00  0.00    +0.001 A 
ATOM      8  C   UNL     1      -0.632   4.886   0.944  0.00  0.00    +0.010 A 
ATOM      9  C   UNL     1      -0.320   6.041   0.229  0.00  0.00    +0.003 A 
ATOM     10  C   UNL     1      -1.342   6.794  -0.349  0.00  0.00    +0.010 A 
ATOM     11  C   UNL     1      -2.654   6.385  -0.220  0.00  0.00    +0.001 A 
ENDBRANCH   1   9
BRANCH   4  12
ATOM     12  C   UNL     1       3.767   8.814   0.080  0.00  0.00    +0.065 A 
ATOM     13  C   UNL     1       5.132   8.683  -0.140  0.00  0.00    +0.028 A 
ATOM     14  C   UNL     1       5.949   9.795  -0.081  0.00  0.00    +0.002 A 
ATOM     15  C   UNL     1       5.410  11.036   0.206  0.00  0.00    +0.000 A 
ATOM     16  C   UNL     1       4.052  11.169   0.430  0.00  0.00    +0.002 A 
ATOM     17  C   UNL     1       3.229  10.062   0.368  0.00  0.00    +0.028 A 
ENDBRANCH   4  12
BRANCH   2  18
ATOM     18  C   UNL     1       2.210   4.159  -0.463  0.00  0.00    +0.142 C 
ATOM     19  N   UNL     1       1.074   3.528  -0.501  0.00  0.00    -0.187 NA
BRANCH  19  20
ATOM     20  N   UNL     1       1.049   2.146  -0.727  0.00  0.00    -0.199 N 
ATOM     21  C   UNL     1      -0.129   1.491  -0.766  0.00  0.00    +0.318 C 
ATOM     22  O   UNL     1      -1.168   2.100  -0.611  0.00  0.00    -0.263 OA
ATOM     23  H   UNL     1       1.878   1.660  -0.855  0.00  0.00    +0.178 HD
BRANCH  21  24
ATOM     24  C   UNL     1      -0.156   0.020  -1.007  0.00  0.00    +0.305 C 
ATOM     25  O   UNL     1       0.882  -0.588  -1.167  0.00  0.00    -0.265 OA
ATOM     26  N   UNL     1      -1.333  -0.635  -1.046  0.00  0.00    -0.278 N 
ATOM     27  H   UNL     1      -2.158  -0.162  -0.851  0.00  0.00    +0.155 HD
BRANCH  26  28
ATOM     28  C   UNL     1      -1.367  -1.994  -1.369  0.00  0.00    +0.034 A 
ATOM     29  C   UNL     1      -2.429  -2.510  -2.099  0.00  0.00    +0.024 A 
ATOM     30  C   UNL     1      -2.456  -3.853  -2.421  0.00  0.00    +0.017 A 
ATOM     31  C   UNL     1      -1.432  -4.686  -2.007  0.00  0.00    +0.018 A 
ATOM     32  C   UNL     1      -0.375  -4.176  -1.274  0.00  0.00    +0.017 A 
ATOM     33  C   UNL     1      -0.340  -2.833  -0.954  0.00  0.00    +0.024 A 
ATOM     34 BR   UNL     1      -1.476  -6.525  -2.444  0.00  0.00    -0.050 Br
ENDBRANCH  26  28
ENDBRANCH  21  24
ENDBRANCH  19  20
ENDBRANCH   2  18
TORSDOF 6
