REMARK  Name = ZINC38890134
REMARK  3 active torsions:
REMARK  status: ('A' for Active; 'I' for Inactive)
REMARK    1  A    between atoms: C_5  and  N_7
REMARK    2  A    between atoms: C_8  and  N_10
REMARK    3  A    between atoms: C_14  and  C_17
REMARK                            x       y       z     vdW  Elec       q    Type
REMARK                         _______ _______ _______ _____ _____    ______ ____
ROOT
ATOM      1  N   UNL     1       0.114  -4.114   0.180  0.00  0.00    -0.136 NA
ATOM      2  C   UNL     1      -1.014  -4.792   0.287  0.00  0.00    +0.203 C 
ATOM      3  N   UNL     1      -2.310  -4.326   0.315  0.00  0.00    -0.153 NA
ATOM      4  N   UNL     1      -3.291  -5.029   0.416  0.00  0.00    -0.289 N 
ATOM      5  C   UNL     1      -3.101  -6.495   0.517  0.00  0.00    +0.193 C 
ATOM      6  S   UNL     1      -1.260  -6.562   0.424  0.00  0.00    -0.056 S 
ATOM      7  H   UNL     1      -4.179  -4.641   0.431  0.00  0.00    +0.184 HD
ENDROOT
BRANCH   5   8
ATOM      8  C   UNL     1      -3.612  -7.028   1.831  0.00  0.00    -0.013 A 
ATOM      9  C   UNL     1      -3.593  -6.225   2.956  0.00  0.00    +0.007 A 
ATOM     10  C   UNL     1      -4.063  -6.713   4.161  0.00  0.00    +0.015 A 
ATOM     11  C   UNL     1      -4.551  -8.005   4.241  0.00  0.00    +0.018 A 
ATOM     12  C   UNL     1      -4.570  -8.807   3.114  0.00  0.00    +0.015 A 
ATOM     13  C   UNL     1      -4.105  -8.317   1.909  0.00  0.00    +0.007 A 
ATOM     14 BR   UNL     1      -5.193  -8.674   5.889  0.00  0.00    -0.050 Br
ENDBRANCH   5   8
BRANCH   1  16
ATOM     15  N   UNL     1       1.236  -2.080  -0.022  0.00  0.00    -0.265 N 
ATOM     16  C   UNL     1       0.085  -2.773   0.087  0.00  0.00    +0.330 C 
ATOM     17  O   UNL     1      -0.981  -2.185   0.101  0.00  0.00    -0.250 OA
ATOM     18  H   UNL     1       2.079  -2.551  -0.116  0.00  0.00    +0.157 HD
BRANCH  15  23
ATOM     19  C   UNL     1       0.154   1.371   0.643  0.00  0.00    +0.002 A 
ATOM     20  C   UNL     1       1.173   2.087   0.042  0.00  0.00    +0.003 A 
ATOM     21  C   UNL     1       2.215   1.423  -0.580  0.00  0.00    +0.040 A 
ATOM     22  C   UNL     1       2.240   0.041  -0.603  0.00  0.00    +0.145 A 
ATOM     23  C   UNL     1       1.216  -0.681  -0.000  0.00  0.00    +0.070 A 
ATOM     24  C   UNL     1       0.172  -0.010   0.623  0.00  0.00    +0.026 A 
ATOM     25  F   UNL     1       3.257  -0.607  -1.212  0.00  0.00    -0.204 F 
ENDBRANCH  15  23
ENDBRANCH   1  16
TORSDOF 3
