REMARK  Name = ZINC37060376
REMARK  5 active torsions:
REMARK  status: ('A' for Active; 'I' for Inactive)
REMARK    1  A    between atoms: C_1  and  C_2
REMARK    2  A    between atoms: C_2  and  C_4
REMARK    3  A    between atoms: C_2  and  N_12
REMARK    4  A    between atoms: N_12  and  C_13
REMARK    5  A    between atoms: C_15  and  N_20
REMARK                            x       y       z     vdW  Elec       q    Type
REMARK                         _______ _______ _______ _____ _____    ______ ____
ROOT
ATOM      1  N   UNL     1       0.711  -0.489   1.189  0.00  0.00    -0.335 N 
ATOM      2  H   UNL     1       0.213  -0.731   1.986  0.00  0.00    +0.147 HD
ENDROOT
BRANCH   1   3
ATOM      3  C   UNL     1       2.104  -0.604   1.173  0.00  0.00    +0.065 A 
ATOM      4  C   UNL     1       2.818  -0.253   0.036  0.00  0.00    +0.058 A 
ATOM      5  C   UNL     1       4.195  -0.367   0.023  0.00  0.00    +0.128 A 
ATOM      6  C   UNL     1       4.863  -0.830   1.142  0.00  0.00    +0.035 A 
ATOM      7  C   UNL     1       4.156  -1.181   2.277  0.00  0.00    +0.042 A 
ATOM      8  C   UNL     1       2.779  -1.065   2.299  0.00  0.00    +0.144 A 
ATOM      9  F   UNL     1       2.088  -1.403   3.410  0.00  0.00    -0.204 F 
BRANCH   5  10
ATOM     10  N   UNL     1       4.957   0.007  -1.190  0.00  0.00    +0.056 N 
ATOM     11  O   UNL     1       4.373   0.412  -2.169  0.00  0.00    -0.126 OA
ATOM     12  O   UNL     1       6.161  -0.092  -1.202  0.00  0.00    -0.126 OA
ENDBRANCH   5  10
ENDBRANCH   1   3
BRANCH   1  14
ATOM     13  C   UNL     1      -0.019   1.526   0.010  0.00  0.00    +0.033 C 
ATOM     14  C   UNL     1       0.002  -0.004   0.002  0.00  0.00    +0.099 C 
BRANCH  14  15
ATOM     15  C   UNL     1      -1.412  -0.526   0.013  0.00  0.00    -0.008 A 
ATOM     16  C   UNL     1      -2.015  -0.864   1.210  0.00  0.00    +0.027 A 
ATOM     17  C   UNL     1      -3.312  -1.343   1.220  0.00  0.00    +0.041 A 
ATOM     18  C   UNL     1      -4.007  -1.483   0.031  0.00  0.00    +0.021 A 
ATOM     19  C   UNL     1      -3.404  -1.145  -1.166  0.00  0.00    +0.022 A 
ATOM     20  C   UNL     1      -2.108  -0.661  -1.175  0.00  0.00    +0.046 A 
ATOM     21 CL   UNL     1      -1.353  -0.229  -2.678  0.00  0.00    -0.083 Cl
ATOM     22 CL   UNL     1      -4.069  -1.768   2.723  0.00  0.00    -0.084 Cl
ENDBRANCH  14  15
ENDBRANCH   1  14
TORSDOF 4
