REMARK  Name = ZINC03363904
REMARK  9 active torsions:
REMARK  status: ('A' for Active; 'I' for Inactive)
REMARK    1  A    between atoms: C_1  and  C_2
REMARK    2  A    between atoms: C_15  and  C_17
REMARK    3  A    between atoms: C_17  and  S_18
REMARK    4  A    between atoms: S_18  and  C_19
REMARK    5  A    between atoms: C_22  and  C_25
REMARK    6  A    between atoms: N_23  and  N_24
REMARK    7  A    between atoms: C_25  and  C_26
REMARK    8  A    between atoms: C_26  and  C_28
REMARK    9  A    between atoms: C_26  and  C_29
REMARK                            x       y       z     vdW  Elec       q    Type
REMARK                         _______ _______ _______ _____ _____    ______ ____
ROOT
ATOM      1  S   UNL     1      -1.574   4.067  -4.105  0.00  0.00    -0.077 S 
ENDROOT
BRANCH   1   2
ATOM      2  C   UNL     1      -1.400   2.788  -2.905  0.00  0.00    +0.209 A 
ATOM      3  N   UNL     1      -2.102   1.681  -2.837  0.00  0.00    -0.121 NA
ATOM      4  N   UNL     1      -1.706   0.973  -1.841  0.00  0.00    -0.132 NA
ATOM      5  C   UNL     1      -0.742   1.585  -1.213  0.00  0.00    +0.152 A 
ATOM      6  N   UNL     1      -0.510   2.761  -1.871  0.00  0.00    -0.228 N 
BRANCH   6   7
ATOM      7  N   UNL     1       0.420   3.712  -1.557  0.00  0.00    -0.295 N 
ATOM      8  H   UNL     1       1.294   3.531  -2.027  0.00  0.00    +0.163 HD
ATOM      9  H   UNL     1       0.078   4.637  -1.773  0.00  0.00    +0.163 HD
ENDBRANCH   6   7
BRANCH   5  10
ATOM     10  C   UNL     1      -0.013   1.086   0.008  0.00  0.00    +0.086 C 
BRANCH  10  11
ATOM     11  C   UNL     1      -0.729   1.579   1.267  0.00  0.00    +0.023 C 
ATOM     12  C   UNL     1      -0.641   3.105   1.339  0.00  0.00    +0.013 C 
BRANCH  11  13
ATOM     13  C   UNL     1      -0.074   0.981   2.485  0.00  0.00    -0.044 A 
ATOM     14  C   UNL     1       1.263   1.222   2.739  0.00  0.00    +0.004 A 
ATOM     15  C   UNL     1       1.863   0.676   3.859  0.00  0.00    +0.000 A 
ATOM     16  C   UNL     1       1.128  -0.119   4.719  0.00  0.00    +0.000 A 
ATOM     17  C   UNL     1      -0.208  -0.364   4.462  0.00  0.00    +0.000 A 
ATOM     18  C   UNL     1      -0.809   0.185   3.344  0.00  0.00    +0.004 A 
ENDBRANCH  11  13
ENDBRANCH  10  11
ENDBRANCH   5  10
ENDBRANCH   1   2
BRANCH   1  19
ATOM     19  C   UNL     1      -2.921   3.382  -5.102  0.00  0.00    +0.151 C 
BRANCH  19  33
ATOM     20  C   UNL     1      -4.258  10.289 -12.199  0.00  0.00    +0.008 C 
ATOM     21  C   UNL     1      -3.993   9.018 -11.388  0.00  0.00    -0.009 C 
ATOM     22  C   UNL     1      -5.324   8.382 -10.975  0.00  0.00    +0.008 C 
ATOM     23  C   UNL     1      -5.075   6.993 -10.387  0.00  0.00    +0.037 C 
ATOM     24  C   UNL     1      -4.028   7.106  -9.282  0.00  0.00    -0.023 A 
ATOM     25  C   UNL     1      -3.220   8.184  -9.207  0.00  0.00    -0.004 A 
ATOM     26  S   UNL     1      -2.188   7.887  -7.796  0.00  0.00    -0.073 S 
ATOM     27  C   UNL     1      -2.847   6.311  -7.312  0.00  0.00    +0.116 A 
ATOM     28  C   UNL     1      -3.849   6.070  -8.265  0.00  0.00    +0.075 A 
ATOM     29  C   UNL     1      -4.565   4.837  -8.114  0.00  0.00    +0.260 A 
ATOM     30  O   UNL     1      -5.454   4.537  -8.892  0.00  0.00    -0.267 OA
ATOM     31  N   UNL     1      -4.238   4.016  -7.098  0.00  0.00    -0.310 N 
ATOM     32  H   UNL     1      -4.719   3.181  -6.990  0.00  0.00    +0.170 HD
ATOM     33  C   UNL     1      -3.250   4.334  -6.223  0.00  0.00    +0.121 A 
ATOM     34  N   UNL     1      -2.584   5.452  -6.331  0.00  0.00    -0.226 NA
ATOM     35  C   UNL     1      -3.202   9.371 -10.120  0.00  0.00    +0.046 C 
ENDBRANCH  19  33
ENDBRANCH   1  19
TORSDOF 7
