REMARK  Name = ZINC46710798
REMARK  5 active torsions:
REMARK  status: ('A' for Active; 'I' for Inactive)
REMARK    1  A    between atoms: C_1  and  C_2
REMARK    2  A    between atoms: C_2  and  C_3
REMARK    3  A    between atoms: C_13  and  C_15
REMARK    4  A    between atoms: C_18  and  N_24
REMARK    5  A    between atoms: C_19  and  N_21
REMARK                            x       y       z     vdW  Elec       q    Type
REMARK                         _______ _______ _______ _____ _____    ______ ____
ROOT
ATOM      1  C   UNL     1       0.590  -0.242  -2.107  0.00  0.00    +0.107 C 
ATOM      2  C   UNL     1       0.408  -1.721  -1.771  0.00  0.00    -0.017 A 
ATOM      3  C   UNL     1      -0.666  -2.482  -2.231  0.00  0.00    +0.013 A 
ATOM      4  C   UNL     1      -0.765  -3.787  -1.889  0.00  0.00    +0.046 A 
ATOM      5  S   UNL     1       0.688  -4.015  -0.876  0.00  0.00    -0.101 S 
ATOM      6  C   UNL     1       1.318  -2.360  -0.986  0.00  0.00    -0.004 A 
ATOM      7  C   UNL     1       2.556  -1.796  -0.370  0.00  0.00    +0.062 C 
ATOM      8  C   UNL     1       2.470  -0.262  -0.408  0.00  0.00    +0.114 C 
ATOM      9  N   UNL     1       1.957   0.141  -1.727  0.00  0.00    -0.290 N 
ATOM     10  C   UNL     1       2.729   0.848  -2.575  0.00  0.00    +0.247 C 
ATOM     11  O   UNL     1       2.328   1.100  -3.695  0.00  0.00    -0.270 OA
ENDROOT
BRANCH  10  12
ATOM     12  C   UNL     1       4.060   1.316  -2.145  0.00  0.00    +0.039 A 
ATOM     13  C   UNL     1       4.937   0.438  -1.502  0.00  0.00    +0.015 A 
ATOM     14  C   UNL     1       6.178   0.878  -1.102  0.00  0.00    +0.026 A 
ATOM     15  C   UNL     1       6.560   2.196  -1.337  0.00  0.00    +0.055 A 
ATOM     16  C   UNL     1       5.689   3.073  -1.977  0.00  0.00    +0.147 A 
ATOM     17  C   UNL     1       4.449   2.637  -2.385  0.00  0.00    +0.047 A 
BRANCH  16  18
ATOM     18  N   UNL     1       6.099   4.474  -2.224  0.00  0.00    +0.058 N 
ATOM     19  O   UNL     1       5.291   5.367  -2.120  0.00  0.00    -0.126 OA
ATOM     20  O   UNL     1       7.241   4.724  -2.530  0.00  0.00    -0.126 OA
ENDBRANCH  16  18
BRANCH  15  21
ATOM     21  N   UNL     1       7.815   2.637  -0.932  0.00  0.00    -0.356 N 
ATOM     22  H   UNL     1       8.467   2.003  -0.596  0.00  0.00    +0.142 HD
ATOM     23  H   UNL     1       8.038   3.580  -0.985  0.00  0.00    +0.142 HD
ENDBRANCH  15  21
ENDBRANCH  10  12
BRANCH   1  25
ATOM     24  C   UNL     1      -0.302   2.063  -1.740  0.00  0.00    +0.006 C 
ATOM     25  C   UNL     1      -0.420   0.596  -1.321  0.00  0.00    +0.024 C 
ENDBRANCH   1  25
TORSDOF 4
