REMARK  Name = ZINC41892692
REMARK  3 active torsions:
REMARK  status: ('A' for Active; 'I' for Inactive)
REMARK    1  A    between atoms: C_6  and  C_7
REMARK    2  A    between atoms: N_12  and  C_13
REMARK    3  A    between atoms: C_13  and  N_14
REMARK                            x       y       z     vdW  Elec       q    Type
REMARK                         _______ _______ _______ _____ _____    ______ ____
ROOT
ATOM      1  N   UNL     1      -2.046  -2.966  -2.866  0.00  0.00    -0.241 N 
ATOM      2  C   UNL     1      -1.266  -2.923  -3.968  0.00  0.00    +0.245 C 
ATOM      3  O   UNL     1      -0.353  -2.173  -4.211  0.00  0.00    -0.273 OA
ATOM      4  C   UNL     1      -1.828  -4.014  -4.865  0.00  0.00    +0.112 C 
ATOM      5  C   UNL     1      -3.028  -3.447  -5.621  0.00  0.00    +0.035 C 
ATOM      6  C   UNL     1      -3.404  -4.320  -6.818  0.00  0.00    +0.003 C 
ATOM      7  C   UNL     1      -4.287  -5.517  -6.423  0.00  0.00    +0.000 C 
ATOM      8  C   UNL     1      -3.393  -6.586  -5.769  0.00  0.00    +0.000 C 
ATOM      9  C   UNL     1      -2.087  -6.716  -6.555  0.00  0.00    +0.000 C 
ATOM     10  C   UNL     1      -0.904  -6.170  -5.763  0.00  0.00    +0.003 C 
ATOM     11  C   UNL     1      -0.808  -4.646  -5.784  0.00  0.00    +0.035 C 
ATOM     12  N   UNL     1      -2.252  -4.958  -3.810  0.00  0.00    -0.285 N 
ATOM     13  C   UNL     1      -2.599  -4.181  -2.756  0.00  0.00    +0.308 C 
ATOM     14  O   UNL     1      -3.308  -4.540  -1.845  0.00  0.00    -0.252 OA
ATOM     15  H   UNL     1      -2.196  -5.912  -3.780  0.00  0.00    +0.151 HD
ENDROOT
BRANCH   1  16
ATOM     16  C   UNL     1      -2.228  -1.873  -1.916  0.00  0.00    +0.043 C 
BRANCH  16  21
ATOM     17  C   UNL     1      -1.293  -0.775   0.010  0.00  0.00    -0.036 C 
ATOM     18  C   UNL     1      -1.580  -1.304   1.431  0.00  0.00    -0.012 C 
ATOM     19  C   UNL     1      -2.182  -2.709   1.165  0.00  0.00    -0.020 C 
ATOM     20  C   UNL     1      -1.368  -3.170  -0.070  0.00  0.00    -0.076 C 
ATOM     21  N   UNL     1      -1.187  -1.944  -0.882  0.00  0.00    +0.395 N 
ATOM     22  H   UNL     1      -0.277  -1.956  -1.319  0.00  0.00    -0.079 HD
BRANCH  17  28
ATOM     23  C   UNL     1      -0.017   1.378   0.010  0.00  0.00    +0.005 A 
ATOM     24  C   UNL     1       1.170   2.086   0.002  0.00  0.00    +0.038 A 
ATOM     25  C   UNL     1       2.379   1.410  -0.013  0.00  0.00    +0.123 A 
ATOM     26  C   UNL     1       2.396   0.026  -0.021  0.00  0.00    +0.038 A 
ATOM     27  C   UNL     1       1.208  -0.680  -0.013  0.00  0.00    +0.005 A 
ATOM     28  C   UNL     1       0.002  -0.004   0.002  0.00  0.00    -0.061 A 
ATOM     29  F   UNL     1       3.540   2.101  -0.021  0.00  0.00    -0.205 F 
ENDBRANCH  17  28
ENDBRANCH  16  21
ENDBRANCH   1  16
TORSDOF 3
