REMARK  Name = ZINC41182924
REMARK  6 active torsions:
REMARK  status: ('A' for Active; 'I' for Inactive)
REMARK    1  A    between atoms: C_1  and  C_2
REMARK    2  A    between atoms: C_2  and  C_3
REMARK    3  A    between atoms: C_2  and  C_4
REMARK    4  A    between atoms: C_7  and  C_9
REMARK    5  A    between atoms: C_9  and  C_11
REMARK    6  A    between atoms: C_9  and  N_22
REMARK                            x       y       z     vdW  Elec       q    Type
REMARK                         _______ _______ _______ _____ _____    ______ ____
ROOT
ATOM      1  C   UNL     1       0.729  -3.277   3.717  0.00  0.00    +0.138 C 
ENDROOT
BRANCH   1   2
ATOM      2  C   UNL     1       1.767  -4.325   3.411  0.00  0.00    -0.019 A 
ATOM      3  C   UNL     1       1.472  -5.354   2.537  0.00  0.00    +0.055 A 
ATOM      4  C   UNL     1       2.426  -6.320   2.252  0.00  0.00    +0.164 A 
ATOM      5  C   UNL     1       3.680  -6.250   2.848  0.00  0.00    +0.180 A 
ATOM      6  C   UNL     1       3.969  -5.215   3.726  0.00  0.00    +0.086 A 
ATOM      7  C   UNL     1       3.015  -4.253   4.002  0.00  0.00    +0.029 A 
ATOM      8 CL   UNL     1       5.533  -5.126   4.476  0.00  0.00    -0.080 Cl
ATOM      9  O   UNL     1       4.633  -7.183   2.576  0.00  0.00    -0.483 OA
ATOM     10  C   UNL     1       4.185  -8.407   1.983  0.00  0.00    +0.270 C 
ATOM     11  C   UNL     1       3.219  -8.062   0.842  0.00  0.00    +0.270 C 
ATOM     12  O   UNL     1       2.119  -7.328   1.391  0.00  0.00    -0.485 OA
ENDBRANCH   1   2
BRANCH   1  16
ATOM     13  C   UNL     1       0.731  -0.503   1.223  0.00  0.00    +0.051 A 
ATOM     14  C   UNL     1       1.791   0.169   1.741  0.00  0.00    +0.070 A 
ATOM     15  S   UNL     1       2.203  -0.883   3.124  0.00  0.00    -0.078 S 
ATOM     16  C   UNL     1       1.004  -2.042   2.898  0.00  0.00    +0.100 A 
ATOM     17  N   UNL     1       0.365  -1.609   1.840  0.00  0.00    -0.247 NA
BRANCH  13  19
ATOM     18  C   UNL     1      -0.019   1.526   0.010  0.00  0.00    +0.014 C 
ATOM     19  C   UNL     1       0.002  -0.004   0.002  0.00  0.00    +0.032 C 
ATOM     20  C   UNL     1       0.718  -0.497  -1.257  0.00  0.00    +0.014 C 
ENDBRANCH  13  19
ENDBRANCH   1  16
BRANCH   1  21
ATOM     21  N   UNL     1       0.781  -2.938   5.146  0.00  0.00    -0.318 NA
ATOM     22  H   UNL     1       0.536  -3.734   5.715  0.00  0.00    +0.119 HD
ATOM     23  H   UNL     1       1.689  -2.578   5.399  0.00  0.00    +0.119 HD
ENDBRANCH   1  21
TORSDOF 4
