REMARK  Name = ZINC21877800
REMARK  8 active torsions:
REMARK  status: ('A' for Active; 'I' for Inactive)
REMARK    1  A    between atoms: C_1  and  C_2
REMARK    2  A    between atoms: C_2  and  C_3
REMARK    3  A    between atoms: C_3  and  N_4
REMARK    4  A    between atoms: C_9  and  C_23
REMARK    5  A    between atoms: C_13  and  C_14
REMARK    6  A    between atoms: C_13  and  C_15
REMARK    7  A    between atoms: N_17  and  C_18
REMARK    8  A    between atoms: N_28  and  C_31
REMARK                            x       y       z     vdW  Elec       q    Type
REMARK                         _______ _______ _______ _____ _____    ______ ____
ROOT
ATOM      1  N   UNL     1      -3.681   2.236   7.365  0.00  0.00    -0.281 N 
ATOM      2  C   UNL     1      -3.031   1.175   6.830  0.00  0.00    +0.266 C 
ATOM      3  O   UNL     1      -2.898   0.131   7.440  0.00  0.00    -0.268 OA
ATOM      4  C   UNL     1      -2.494   1.355   5.471  0.00  0.00    +0.124 A 
ATOM      5  C   UNL     1      -1.975   0.466   4.593  0.00  0.00    +0.067 A 
ATOM      6  C   UNL     1      -1.652   1.226   3.445  0.00  0.00    +0.148 A 
ATOM      7  N   UNL     1      -1.989   2.482   3.691  0.00  0.00    -0.166 NA
ATOM      8  N   UNL     1      -2.473   2.594   4.866  0.00  0.00    -0.256 N 
ATOM      9  C   UNL     1      -2.947   3.791   5.571  0.00  0.00    +0.179 C 
ATOM     10  C   UNL     1      -4.044   3.396   6.558  0.00  0.00    +0.130 C 
ATOM     11  C   UNL     1      -4.323   4.578   7.487  0.00  0.00    +0.044 C 
ENDROOT
BRANCH   6  12
ATOM     12  C   UNL     1      -1.054   0.710   2.197  0.00  0.00    +0.267 C 
ATOM     13  O   UNL     1      -0.675  -0.443   2.135  0.00  0.00    -0.268 OA
ATOM     14  N   UNL     1      -0.927   1.519   1.126  0.00  0.00    -0.300 N 
ATOM     15  C   UNL     1      -0.204   1.074  -0.075  0.00  0.00    +0.089 C 
ATOM     16  C   UNL     1      -1.092   1.316  -1.300  0.00  0.00    -0.059 C 
ATOM     17  N   UNL     1      -1.523   2.720  -1.319  0.00  0.00    +0.384 N 
ATOM     18  C   UNL     1      -2.349   3.040  -0.148  0.00  0.00    -0.059 C 
ATOM     19  C   UNL     1      -1.512   2.869   1.125  0.00  0.00    +0.089 C 
ATOM     20  H   UNL     1      -0.621   3.347  -1.274  0.00  0.00    -0.081 HD
BRANCH  17  21
ATOM     21  C   UNL     1      -2.233   3.035  -2.566  0.00  0.00    -0.068 C 
ATOM     22  C   UNL     1      -1.306   2.790  -3.758  0.00  0.00    -0.015 C 
ATOM     23  C   UNL     1      -2.045   3.119  -5.056  0.00  0.00    -0.002 C 
ATOM     24  C   UNL     1      -2.478   4.587  -5.039  0.00  0.00    -0.000 C 
ATOM     25  C   UNL     1      -3.406   4.831  -3.848  0.00  0.00    -0.002 C 
ATOM     26  C   UNL     1      -2.666   4.503  -2.549  0.00  0.00    -0.015 C 
ENDBRANCH  17  21
ENDBRANCH   6  12
BRANCH  10  27
ATOM     27  C   UNL     1      -5.301   3.078   5.788  0.00  0.00    +0.238 C 
ATOM     28  O   UNL     1      -6.120   3.948   5.580  0.00  0.00    -0.273 OA
ATOM     29  N   UNL     1      -5.513   1.828   5.331  0.00  0.00    -0.311 N 
ATOM     30  H   UNL     1      -4.769   1.040   5.519  0.00  0.00    +0.149 HD
BRANCH  29  31
ATOM     31  C   UNL     1      -6.734   1.520   4.582  0.00  0.00    +0.073 C 
ATOM     32  C   UNL     1      -7.864   1.123   5.555  0.00  0.00    +0.022 C 
ATOM     33  C   UNL     1      -8.630   0.001   4.809  0.00  0.00    +0.002 C 
ATOM     34  C   UNL     1      -7.492  -0.784   4.111  0.00  0.00    +0.002 C 
ATOM     35  C   UNL     1      -6.498   0.308   3.664  0.00  0.00    +0.022 C 
ENDBRANCH  29  31
ENDBRANCH  10  27
BRANCH   1  36
ATOM     36  C   UNL     1      -4.028   2.219   8.789  0.00  0.00    +0.109 C 
BRANCH  36  38
ATOM     37  C   UNL     1      -3.246   2.812  11.086  0.00  0.00    +0.005 C 
ATOM     38  C   UNL     1      -2.884   2.830   9.600  0.00  0.00    +0.016 C 
ENDBRANCH  36  38
ENDBRANCH   1  36
TORSDOF 6
