REMARK  Name = ZINC44577179
REMARK  9 active torsions:
REMARK  status: ('A' for Active; 'I' for Inactive)
REMARK    1  A    between atoms: C_1  and  C_2
REMARK    2  A    between atoms: C_2  and  C_3
REMARK    3  A    between atoms: C_2  and  C_4
REMARK    4  A    between atoms: C_4  and  C_5
REMARK    5  A    between atoms: C_5  and  C_7
REMARK    6  A    between atoms: C_5  and  N_11
REMARK    7  A    between atoms: C_7  and  O_9
REMARK    8  A    between atoms: O_9  and  C_10
REMARK    9  A    between atoms: C_23  and  C_25
REMARK                            x       y       z     vdW  Elec       q    Type
REMARK                         _______ _______ _______ _____ _____    ______ ____
ROOT
ATOM      1  N   UNL     1       4.046   1.083  -0.424  0.00  0.00    -0.286 N 
ATOM      2  C   UNL     1       3.030   1.761  -0.993  0.00  0.00    +0.304 C 
ATOM      3  O   UNL     1       2.121   1.157  -1.530  0.00  0.00    -0.253 OA
ATOM      4  N   UNL     1       3.021   3.108  -0.968  0.00  0.00    -0.273 N 
ATOM      5  C   UNL     1       1.868   3.864  -1.480  0.00  0.00    +0.116 C 
ATOM      6  C   UNL     1       1.220   4.636  -0.323  0.00  0.00    +0.074 C 
ATOM      7  C   UNL     1       2.304   5.297   0.486  0.00  0.00    +0.040 A 
ATOM      8  C   UNL     1       3.610   4.957   0.450  0.00  0.00    +0.062 A 
ATOM      9  N   UNL     1       4.270   5.751   1.297  0.00  0.00    -0.348 N 
ATOM     10  C   UNL     1       3.423   6.575   1.858  0.00  0.00    +0.171 A 
ATOM     11  N   UNL     1       2.185   6.322   1.375  0.00  0.00    -0.349 N 
ATOM     12  H   UNL     1       1.367   6.784   1.617  0.00  0.00    +0.166 HD
ATOM     13  C   UNL     1       4.165   3.861  -0.421  0.00  0.00    +0.159 C 
ATOM     14  H   UNL     1       4.804   1.563  -0.057  0.00  0.00    +0.151 HD
ATOM     15  H   UNL     1       5.224   5.721   1.469  0.00  0.00    +0.167 HD
ENDROOT
BRANCH  13  16
ATOM     16  C   UNL     1       4.968   4.462  -1.545  0.00  0.00    +0.015 A 
ATOM     17  C   UNL     1       5.425   5.762  -1.450  0.00  0.00    +0.028 A 
ATOM     18  C   UNL     1       6.163   6.314  -2.482  0.00  0.00    +0.041 A 
ATOM     19  C   UNL     1       6.444   5.564  -3.610  0.00  0.00    +0.023 A 
ATOM     20  C   UNL     1       5.987   4.263  -3.707  0.00  0.00    +0.040 A 
ATOM     21  C   UNL     1       5.253   3.709  -2.672  0.00  0.00    +0.129 A 
ATOM     22  F   UNL     1       4.812   2.435  -2.763  0.00  0.00    -0.205 F 
ATOM     23 CL   UNL     1       6.736   7.948  -2.361  0.00  0.00    -0.084 Cl
ENDBRANCH  13  16
BRANCH   1  24
ATOM     24  C   UNL     1       4.004  -0.380  -0.358  0.00  0.00    +0.183 C 
BRANCH  24  25
ATOM     25  C   UNL     1       3.227  -0.807   0.860  0.00  0.00    +0.327 C 
ATOM     26  O   UNL     1       2.756   0.025   1.598  0.00  0.00    -0.249 OA
BRANCH  25  27
ATOM     27  O   UNL     1       3.058  -2.112   1.125  0.00  0.00    -0.467 OA
ATOM     28  C   UNL     1       2.311  -2.445   2.297  0.00  0.00    +0.280 C 
ENDBRANCH  25  27
ENDBRANCH  24  25
BRANCH  24  29
ATOM     29  C   UNL     1       5.431  -0.927  -0.271  0.00  0.00    +0.036 C 
BRANCH  29  31
ATOM     30  C   UNL     1       7.662  -0.972  -1.393  0.00  0.00    +0.007 C 
ATOM     31  C   UNL     1       6.197  -0.559  -1.544  0.00  0.00    -0.015 C 
ATOM     32  C   UNL     1       5.581  -1.290  -2.739  0.00  0.00    +0.007 C 
ENDBRANCH  29  31
ENDBRANCH  24  29
ENDBRANCH   1  24
TORSDOF 6
