REMARK  Name = ZINC36207770
REMARK  12 active torsions:
REMARK  status: ('A' for Active; 'I' for Inactive)
REMARK    1  A    between atoms: C_1  and  C_2
REMARK    2  A    between atoms: C_2  and  C_3
REMARK    3  A    between atoms: C_2  and  N_4
REMARK    4  A    between atoms: N_4  and  C_5
REMARK    5  A    between atoms: N_4  and  C_24
REMARK    6  A    between atoms: C_5  and  C_6
REMARK    7  A    between atoms: C_12  and  C_17
REMARK    8  A    between atoms: C_24  and  C_25
REMARK    9  A    between atoms: C_25  and  C_27
REMARK   10  A    between atoms: C_25  and  O_36
REMARK   11  A    between atoms: C_27  and  O_28
REMARK   12  A    between atoms: O_28  and  C_29
REMARK                            x       y       z     vdW  Elec       q    Type
REMARK                         _______ _______ _______ _____ _____    ______ ____
ROOT
ATOM      1  C   UNL     1       0.365  -0.018   2.331  0.00  0.00    -0.003 C 
ENDROOT
BRANCH   1   2
ATOM      2  C   UNL     1       0.720   1.435   2.521  0.00  0.00    +0.094 A 
ATOM      3  N   UNL     1       0.293   2.086   3.633  0.00  0.00    -0.312 N 
ATOM      4  H   UNL     1      -0.234   1.608   4.291  0.00  0.00    +0.170 HD
ATOM      5  C   UNL     1       0.589   3.383   3.840  0.00  0.00    +0.260 A 
ATOM      6  O   UNL     1       0.199   3.954   4.844  0.00  0.00    -0.267 OA
ATOM      7  C   UNL     1       1.368   4.081   2.864  0.00  0.00    +0.080 A 
ATOM      8  C   UNL     1       1.814   5.470   2.860  0.00  0.00    +0.004 A 
ATOM      9  C   UNL     1       2.552   5.914   1.814  0.00  0.00    +0.056 A 
ATOM     10  S   UNL     1       2.691   4.479   0.767  0.00  0.00    -0.076 S 
ATOM     11  C   UNL     1       1.764   3.326   1.748  0.00  0.00    +0.116 A 
ATOM     12  N   UNL     1       1.437   2.044   1.615  0.00  0.00    -0.229 NA
BRANCH   8  13
ATOM     13  C   UNL     1       1.465   6.378   3.978  0.00  0.00    -0.016 A 
ATOM     14  C   UNL     1       0.145   6.472   4.417  0.00  0.00    +0.010 A 
ATOM     15  C   UNL     1      -0.174   7.319   5.459  0.00  0.00    +0.020 A 
ATOM     16  C   UNL     1       0.814   8.073   6.069  0.00  0.00    +0.041 A 
ATOM     17  C   UNL     1       2.126   7.984   5.636  0.00  0.00    +0.020 A 
ATOM     18  C   UNL     1       2.457   7.136   4.599  0.00  0.00    +0.010 A 
ATOM     19 CL   UNL     1       0.405   9.136   7.379  0.00  0.00    -0.084 Cl
ENDBRANCH   8  13
ENDBRANCH   1   2
BRANCH   1  20
ATOM     20  N   UNL     1       0.792  -0.456   0.996  0.00  0.00    +0.388 N 
ATOM     21  H   UNL     1       1.673  -0.022   0.765  0.00  0.00    -0.081 HD
BRANCH  20  23
ATOM     22  C   UNL     1      -1.552  -0.739   0.346  0.00  0.00    -0.014 C 
ATOM     23  C   UNL     1      -0.220  -0.066   0.006  0.00  0.00    -0.074 C 
ATOM     24  C   UNL     1      -0.396   1.453   0.027  0.00  0.00    -0.014 C 
ENDBRANCH  20  23
BRANCH  20  25
ATOM     25  C   UNL     1       0.949  -1.917   0.987  0.00  0.00    -0.043 C 
BRANCH  25  26
ATOM     26  C   UNL     1       1.514  -2.361  -0.364  0.00  0.00    +0.135 C 
BRANCH  26  27
ATOM     27  O   UNL     1       2.786  -1.745  -0.574  0.00  0.00    -0.390 OA
ATOM     28  H   UNL     1       3.446  -1.967   0.097  0.00  0.00    +0.210 HD
ENDBRANCH  26  27
BRANCH  26  29
ATOM     29  C   UNL     1       1.675  -3.882  -0.374  0.00  0.00    +0.258 C 
BRANCH  29  30
ATOM     30  O   UNL     1       2.091  -4.309  -1.673  0.00  0.00    -0.489 OA
BRANCH  30  31
ATOM     31  C   UNL     1       2.282  -5.642  -1.853  0.00  0.00    +0.121 A 
ATOM     32  C   UNL     1       2.067  -6.523  -0.803  0.00  0.00    +0.047 A 
ATOM     33  C   UNL     1       2.261  -7.878  -0.988  0.00  0.00    +0.023 A 
ATOM     34  C   UNL     1       2.670  -8.357  -2.220  0.00  0.00    +0.041 A 
ATOM     35  C   UNL     1       2.885  -7.481  -3.268  0.00  0.00    +0.023 A 
ATOM     36  C   UNL     1       2.686  -6.125  -3.089  0.00  0.00    +0.047 A 
ATOM     37 CL   UNL     1       2.914 -10.060  -2.449  0.00  0.00    -0.084 Cl
ENDBRANCH  30  31
ENDBRANCH  29  30
ENDBRANCH  26  29
ENDBRANCH  25  26
ENDBRANCH  20  25
ENDBRANCH   1  20
TORSDOF 10
