REMARK  Name = ZINC39454544
REMARK  8 active torsions:
REMARK  status: ('A' for Active; 'I' for Inactive)
REMARK    1  A    between atoms: C_1  and  C_2
REMARK    2  A    between atoms: C_5  and  C_33
REMARK    3  A    between atoms: C_12  and  N_15
REMARK    4  A    between atoms: C_16  and  C_18
REMARK    5  A    between atoms: C_18  and  N_19
REMARK    6  A    between atoms: N_19  and  C_20
REMARK    7  A    between atoms: C_20  and  C_21
REMARK    8  A    between atoms: C_20  and  C_27
REMARK                            x       y       z     vdW  Elec       q    Type
REMARK                         _______ _______ _______ _____ _____    ______ ____
ROOT
ATOM      1  N   UNL     1      -0.606   0.540   2.937  0.00  0.00    -0.288 N 
ATOM      2  C   UNL     1      -0.064   0.624   4.168  0.00  0.00    +0.198 C 
ATOM      3  O   UNL     1       0.572  -0.307   4.615  0.00  0.00    -0.278 OA
ATOM      4  H   UNL     1      -1.114   1.284   2.579  0.00  0.00    +0.151 HD
ENDROOT
BRANCH   1  15
ATOM      5  C   UNL     1      -0.019   1.526   0.010  0.00  0.00    +0.043 C 
ATOM      6  C   UNL     1       0.002  -0.004   0.002  0.00  0.00    +0.150 C 
ATOM      7  C   UNL     1      -1.405  -0.543   0.038  0.00  0.00    +0.016 A 
ATOM      8  C   UNL     1      -2.412  -0.692  -0.924  0.00  0.00    +0.065 A 
ATOM      9  N   UNL     1      -3.565  -1.206  -0.589  0.00  0.00    -0.176 NA
ATOM     10  N   UNL     1      -3.830  -1.592   0.607  0.00  0.00    -0.243 N 
ATOM     11  C   UNL     1      -2.926  -1.489   1.603  0.00  0.00    +0.272 A 
ATOM     12  O   UNL     1      -3.201  -1.863   2.732  0.00  0.00    -0.266 OA
ATOM     13  C   UNL     1      -1.661  -0.945   1.319  0.00  0.00    +0.072 A 
ATOM     14  H   UNL     1      -4.704  -1.966   0.800  0.00  0.00    +0.192 HD
ATOM     15  C   UNL     1      -0.427  -0.676   2.139  0.00  0.00    +0.243 C 
ATOM     16  O   UNL     1       0.646  -0.498   1.192  0.00  0.00    -0.347 OA
ATOM     17  C   UNL     1      -2.165  -0.259  -2.346  0.00  0.00    +0.068 C 
ENDBRANCH   1  15
BRANCH   2  18
ATOM     18  C   UNL     1      -0.247   1.875   4.988  0.00  0.00    +0.016 C 
BRANCH  18  19
ATOM     19  N   UNL     1       0.434   1.717   6.280  0.00  0.00    +0.392 N 
ATOM     20  H   UNL     1       0.040   0.930   6.774  0.00  0.00    -0.084 HD
ATOM     21  H   UNL     1       1.418   1.559   6.124  0.00  0.00    -0.084 HD
BRANCH  19  22
ATOM     22  C   UNL     1       0.255   2.937   7.080  0.00  0.00    -0.009 C 
BRANCH  22  23
ATOM     23  C   UNL     1       0.847   2.730   8.450  0.00  0.00    -0.057 A 
ATOM     24  C   UNL     1       2.044   2.054   8.591  0.00  0.00    +0.002 A 
ATOM     25  C   UNL     1       2.587   1.864   9.848  0.00  0.00    +0.000 A 
ATOM     26  C   UNL     1       1.933   2.352  10.964  0.00  0.00    +0.000 A 
ATOM     27  C   UNL     1       0.737   3.029  10.823  0.00  0.00    +0.000 A 
ATOM     28  C   UNL     1       0.196   3.222   9.565  0.00  0.00    +0.002 A 
ENDBRANCH  22  23
BRANCH  22  29
ATOM     29  C   UNL     1       0.949   4.089   6.401  0.00  0.00    -0.057 A 
ATOM     30  C   UNL     1       2.177   3.897   5.797  0.00  0.00    +0.002 A 
ATOM     31  C   UNL     1       2.814   4.954   5.174  0.00  0.00    +0.000 A 
ATOM     32  C   UNL     1       2.222   6.203   5.155  0.00  0.00    +0.000 A 
ATOM     33  C   UNL     1       0.993   6.395   5.758  0.00  0.00    +0.000 A 
ATOM     34  C   UNL     1       0.354   5.337   6.377  0.00  0.00    +0.002 A 
ENDBRANCH  22  29
ENDBRANCH  19  22
ENDBRANCH  18  19
ENDBRANCH   2  18
TORSDOF 6
