REMARK  Name = ZINC35760748
REMARK  18 active torsions:
REMARK  status: ('A' for Active; 'I' for Inactive)
REMARK    1  A    between atoms: C_1  and  N_2
REMARK    2  A    between atoms: N_2  and  C_3
REMARK    3  A    between atoms: N_2  and  C_34
REMARK    4  A    between atoms: C_4  and  C_14
REMARK    5  A    between atoms: C_5  and  C_8
REMARK    6  A    between atoms: C_14  and  N_15
REMARK    7  A    between atoms: N_15  and  C_16
REMARK    8  A    between atoms: N_15  and  C_21
REMARK    9  A    between atoms: C_16  and  C_17
REMARK   10  A    between atoms: C_17  and  C_18
REMARK   11  A    between atoms: C_18  and  O_19
REMARK   12  A    between atoms: O_19  and  C_20
REMARK   13  A    between atoms: C_21  and  C_22
REMARK   14  A    between atoms: C_22  and  C_24
REMARK   15  A    between atoms: C_22  and  O_33
REMARK   16  A    between atoms: C_24  and  O_25
REMARK   17  A    between atoms: O_25  and  C_26
REMARK   18  A    between atoms: C_26  and  C_27
REMARK                            x       y       z     vdW  Elec       q    Type
REMARK                         _______ _______ _______ _____ _____    ______ ____
ROOT
ATOM      1  C   UNL     1      -0.565   1.192   3.595  0.00  0.00    -0.035 C 
ENDROOT
BRANCH   1   3
ATOM      2  C   UNL     1       1.108   0.637   5.442  0.00  0.00    +0.222 A 
ATOM      3  C   UNL     1       0.697   1.394   4.394  0.00  0.00    +0.025 A 
ATOM      4  C   UNL     1       1.659   2.404   4.184  0.00  0.00    +0.117 A 
ATOM      5  N   UNL     1       2.608   2.251   5.077  0.00  0.00    -0.076 NA
ATOM      6  O   UNL     1       2.273   1.139   5.886  0.00  0.00    -0.339 OA
BRANCH   4   7
ATOM      7  C   UNL     1       1.607   3.455   3.136  0.00  0.00    +0.004 A 
ATOM      8  C   UNL     1       1.261   3.121   1.828  0.00  0.00    +0.010 A 
ATOM      9  C   UNL     1       1.214   4.102   0.858  0.00  0.00    +0.001 A 
ATOM     10  C   UNL     1       1.508   5.414   1.183  0.00  0.00    +0.000 A 
ATOM     11  C   UNL     1       1.852   5.750   2.479  0.00  0.00    +0.001 A 
ATOM     12  C   UNL     1       1.897   4.778   3.458  0.00  0.00    +0.010 A 
ENDBRANCH   4   7
BRANCH   2  14
ATOM     13  C   UNL     1      -0.621  -0.261   6.955  0.00  0.00    +0.132 C 
ATOM     14  N   UNL     1       0.442  -0.456   5.966  0.00  0.00    -0.299 N 
BRANCH  14  15
ATOM     15  C   UNL     1       0.799  -1.809   5.532  0.00  0.00    +0.076 C 
ATOM     16  C   UNL     1      -0.401  -2.454   4.834  0.00  0.00    +0.022 C 
ATOM     17  C   UNL     1      -0.028  -3.867   4.380  0.00  0.00    +0.002 C 
ATOM     18  C   UNL     1       0.367  -4.706   5.597  0.00  0.00    +0.000 C 
ATOM     19  C   UNL     1       1.566  -4.061   6.295  0.00  0.00    +0.002 C 
ATOM     20  C   UNL     1       1.193  -2.648   6.748  0.00  0.00    +0.022 C 
ENDBRANCH  14  15
ENDBRANCH   2  14
ENDBRANCH   1   3
BRANCH   1  21
ATOM     21  N   UNL     1      -1.692   1.825   4.292  0.00  0.00    +0.384 N 
ATOM     22  H   UNL     1      -1.762   1.454   5.227  0.00  0.00    -0.081 HD
BRANCH  21  23
ATOM     23  C   UNL     1      -2.937   1.550   3.561  0.00  0.00    -0.076 C 
BRANCH  23  24
ATOM     24  C   UNL     1      -3.196   0.042   3.546  0.00  0.00    +0.009 C 
BRANCH  24  25
ATOM     25  C   UNL     1      -4.445  -0.252   2.713  0.00  0.00    +0.157 C 
BRANCH  25  26
ATOM     26  O   UNL     1      -4.754  -1.645   2.793  0.00  0.00    -0.383 OA
ATOM     27  C   UNL     1      -5.842  -2.048   1.960  0.00  0.00    +0.193 C 
ENDBRANCH  25  26
ENDBRANCH  24  25
ENDBRANCH  23  24
ENDBRANCH  21  23
BRANCH  21  28
ATOM     28  C   UNL     1      -1.474   3.277   4.357  0.00  0.00    -0.044 C 
BRANCH  28  29
ATOM     29  C   UNL     1      -2.551   3.916   5.236  0.00  0.00    +0.124 C 
BRANCH  29  30
ATOM     30  O   UNL     1      -3.815   3.837   4.574  0.00  0.00    -0.391 OA
ATOM     31  H   UNL     1      -3.840   4.288   3.719  0.00  0.00    +0.210 HD
ENDBRANCH  29  30
BRANCH  29  32
ATOM     32  C   UNL     1      -2.199   5.383   5.489  0.00  0.00    +0.189 C 
BRANCH  32  33
ATOM     33  O   UNL     1      -3.140   5.948   6.403  0.00  0.00    -0.373 OA
BRANCH  33  34
ATOM     34  C   UNL     1      -2.901   7.323   6.708  0.00  0.00    +0.195 C 
BRANCH  34  35
ATOM     35  C   UNL     1      -3.947   7.813   7.676  0.00  0.00    -0.022 A 
ATOM     36  C   UNL     1      -5.126   8.358   7.201  0.00  0.00    +0.006 A 
ATOM     37  C   UNL     1      -6.086   8.807   8.088  0.00  0.00    +0.000 A 
ATOM     38  C   UNL     1      -5.868   8.711   9.450  0.00  0.00    +0.000 A 
ATOM     39  C   UNL     1      -4.690   8.166   9.924  0.00  0.00    +0.000 A 
ATOM     40  C   UNL     1      -3.732   7.712   9.037  0.00  0.00    +0.006 A 
ENDBRANCH  34  35
ENDBRANCH  33  34
ENDBRANCH  32  33
ENDBRANCH  29  32
ENDBRANCH  28  29
ENDBRANCH  21  28
ENDBRANCH   1  21
TORSDOF 16
