REMARK  Name = ZINC54064816
REMARK  7 active torsions:
REMARK  status: ('A' for Active; 'I' for Inactive)
REMARK    1  A    between atoms: C_1  and  C_2
REMARK    2  A    between atoms: C_2  and  C_4
REMARK    3  A    between atoms: C_2  and  N_11
REMARK    4  A    between atoms: N_14  and  N_15
REMARK    5  A    between atoms: C_16  and  C_18
REMARK    6  A    between atoms: C_18  and  O_19
REMARK    7  A    between atoms: O_19  and  C_20
REMARK                            x       y       z     vdW  Elec       q    Type
REMARK                         _______ _______ _______ _____ _____    ______ ____
ROOT
ATOM      1  N   UNL     1       0.711  -0.489   1.189  0.00  0.00    -0.292 N 
ATOM      2  C   UNL     1       0.051  -0.633   2.355  0.00  0.00    +0.316 C 
ATOM      3  O   UNL     1      -1.132  -0.361   2.423  0.00  0.00    -0.251 OA
ATOM      4  N   UNL     1       0.703  -1.080   3.447  0.00  0.00    -0.218 N 
ATOM      5  H   UNL     1       1.654  -0.707   1.135  0.00  0.00    +0.151 HD
ATOM      6  H   UNL     1       0.229  -1.184   4.287  0.00  0.00    +0.174 HD
ENDROOT
BRANCH   4   7
ATOM      7  N   UNL     1       2.066  -1.394   3.370  0.00  0.00    -0.230 N 
ATOM      8  C   UNL     1       2.718  -1.841   4.462  0.00  0.00    +0.267 C 
ATOM      9  O   UNL     1       2.125  -1.970   5.511  0.00  0.00    -0.271 OA
ATOM     10  H   UNL     1       2.541  -1.290   2.530  0.00  0.00    +0.173 HD
BRANCH   8  11
ATOM     11  C   UNL     1       4.184  -2.179   4.378  0.00  0.00    +0.326 C 
BRANCH  11  12
ATOM     12  O   UNL     1       4.643  -2.627   5.655  0.00  0.00    -0.480 OA
BRANCH  12  13
ATOM     13  C   UNL     1       5.954  -2.974   5.753  0.00  0.00    +0.156 A 
ATOM     14  C   UNL     1       6.782  -2.880   4.644  0.00  0.00    +0.048 A 
ATOM     15  C   UNL     1       8.114  -3.234   4.746  0.00  0.00    +0.004 A 
ATOM     16  C   UNL     1       8.622  -3.682   5.951  0.00  0.00    +0.003 A 
ATOM     17  C   UNL     1       7.800  -3.777   7.059  0.00  0.00    +0.042 A 
ATOM     18  C   UNL     1       6.468  -3.418   6.965  0.00  0.00    +0.165 A 
ATOM     19  F   UNL     1       5.666  -3.505   8.048  0.00  0.00    -0.202 F 
ENDBRANCH  12  13
ENDBRANCH  11  12
ENDBRANCH   8  11
ENDBRANCH   4   7
BRANCH   1  21
ATOM     20  C   UNL     1      -0.019   1.526   0.010  0.00  0.00    +0.033 C 
ATOM     21  C   UNL     1       0.002  -0.004   0.002  0.00  0.00    +0.102 C 
BRANCH  21  22
ATOM     22  C   UNL     1       0.707  -0.490  -1.238  0.00  0.00    -0.026 A 
ATOM     23  C   UNL     1       2.089  -0.511  -1.284  0.00  0.00    +0.005 A 
ATOM     24  C   UNL     1       2.737  -0.956  -2.421  0.00  0.00    +0.002 A 
ATOM     25  C   UNL     1       2.003  -1.381  -3.513  0.00  0.00    +0.020 A 
ATOM     26  C   UNL     1       0.621  -1.361  -3.467  0.00  0.00    +0.041 A 
ATOM     27  C   UNL     1      -0.027  -0.920  -2.327  0.00  0.00    +0.025 A 
ATOM     28 CL   UNL     1      -0.301  -1.894  -4.838  0.00  0.00    -0.084 Cl
ENDBRANCH  21  22
ENDBRANCH   1  21
TORSDOF 6
