REMARK  Name = ZINC03899445
REMARK  8 active torsions:
REMARK  status: ('A' for Active; 'I' for Inactive)
REMARK    1  A    between atoms: C_1  and  C_2
REMARK    2  A    between atoms: C_2  and  C_3
REMARK    3  A    between atoms: C_3  and  C_4
REMARK    4  A    between atoms: C_6  and  C_13
REMARK    5  A    between atoms: C_7  and  O_12
REMARK    6  A    between atoms: C_9  and  O_10
REMARK    7  A    between atoms: O_10  and  C_11
REMARK    8  A    between atoms: C_14  and  C_19
REMARK                            x       y       z     vdW  Elec       q    Type
REMARK                         _______ _______ _______ _____ _____    ______ ____
ROOT
ATOM      1  C   UNL     1      -1.371  -4.755   2.601  0.00  0.00    +0.104 A 
ATOM      2  C   UNL     1      -1.610  -4.672   3.996  0.00  0.00    +0.027 A 
ATOM      3  C   UNL     1      -2.441  -5.699   4.330  0.00  0.00    +0.114 A 
ATOM      4  N   UNL     1      -2.713  -6.394   3.206  0.00  0.00    -0.284 N 
ATOM      5  H   UNL     1      -3.280  -7.179   3.147  0.00  0.00    +0.188 HD
ATOM      6  N   UNL     1      -2.041  -5.788   2.138  0.00  0.00    -0.173 NA
ENDROOT
BRANCH   2   7
ATOM      7  C   UNL     1      -1.057  -3.654   4.922  0.00  0.00    -0.011 A 
ATOM      8  C   UNL     1       0.320  -3.454   4.998  0.00  0.00    +0.012 A 
ATOM      9  C   UNL     1       0.833  -2.507   5.861  0.00  0.00    +0.050 A 
ATOM     10  C   UNL     1      -0.018  -1.752   6.656  0.00  0.00    +0.162 A 
ATOM     11  C   UNL     1      -1.393  -1.946   6.583  0.00  0.00    +0.163 A 
ATOM     12  C   UNL     1      -1.912  -2.893   5.715  0.00  0.00    +0.058 A 
ATOM     13  O   UNL     1      -2.242  -1.209   7.349  0.00  0.00    -0.485 OA
ATOM     14  C   UNL     1      -1.670  -0.528   8.472  0.00  0.00    +0.270 C 
ATOM     15  C   UNL     1      -0.386   0.171   8.006  0.00  0.00    +0.270 C 
ATOM     16  O   UNL     1       0.510  -0.826   7.503  0.00  0.00    -0.485 OA
ENDBRANCH   2   7
BRANCH   1  19
ATOM     17  C   UNL     1       0.139  -1.605   1.215  0.00  0.00    -0.005 A 
ATOM     18  C   UNL     1      -0.652  -2.457   1.957  0.00  0.00    +0.021 A 
ATOM     19  C   UNL     1      -0.523  -3.836   1.804  0.00  0.00    +0.045 A 
ATOM     20  C   UNL     1       0.410  -4.351   0.898  0.00  0.00    +0.130 A 
ATOM     21  C   UNL     1       1.200  -3.489   0.158  0.00  0.00    +0.092 A 
ATOM     22  C   UNL     1       1.061  -2.117   0.312  0.00  0.00    +0.127 A 
BRANCH  22  23
ATOM     23  O   UNL     1       1.834  -1.272  -0.420  0.00  0.00    -0.495 OA
ATOM     24  C   UNL     1       2.762  -1.865  -1.330  0.00  0.00    +0.277 C 
ENDBRANCH  22  23
BRANCH  20  25
ATOM     25  O   UNL     1       0.541  -5.695   0.745  0.00  0.00    -0.506 OA
ATOM     26  H   UNL     1       0.025  -6.060   0.013  0.00  0.00    +0.292 HD
ENDBRANCH  20  25
BRANCH  17  27
ATOM     27  C   UNL     1      -0.002  -0.114   1.381  0.00  0.00    +0.038 C 
BRANCH  27  29
ATOM     28  C   UNL     1      -1.103   1.943   0.487  0.00  0.00    +0.004 C 
ATOM     29  C   UNL     1      -0.960   0.429   0.319  0.00  0.00    +0.001 C 
ENDBRANCH  27  29
ENDBRANCH  17  27
ENDBRANCH   1  19
TORSDOF 6
