REMARK  Name = ZINC04195099
REMARK  11 active torsions:
REMARK  status: ('A' for Active; 'I' for Inactive)
REMARK    1  A    between atoms: C_1  and  C_2
REMARK    2  A    between atoms: C_5  and  C_35
REMARK    3  A    between atoms: C_5  and  C_36
REMARK    4  A    between atoms: N_11  and  C_15
REMARK    5  A    between atoms: C_15  and  C_16
REMARK    6  A    between atoms: N_18  and  C_19
REMARK    7  A    between atoms: C_19  and  C_20
REMARK    8  A    between atoms: C_20  and  C_22
REMARK    9  A    between atoms: C_20  and  N_73
REMARK   10  A    between atoms: C_25  and  O_28
REMARK   11  A    between atoms: O_28  and  C_29
REMARK                            x       y       z     vdW  Elec       q    Type
REMARK                         _______ _______ _______ _____ _____    ______ ____
ROOT
ATOM      1  C   UNL     1      -2.622   1.619   1.197  0.00  0.00    +0.231 C 
ATOM      2  O   UNL     1      -2.273   0.820   2.040  0.00  0.00    -0.274 OA
ATOM      3  N   UNL     1      -3.317   2.717   1.555  0.00  0.00    -0.315 N 
ATOM      4  H   UNL     1      -3.596   3.355   0.880  0.00  0.00    +0.149 HD
ENDROOT
BRANCH   1   5
ATOM      5  C   UNL     1      -2.279   1.383  -0.252  0.00  0.00    +0.213 C 
BRANCH   5  15
ATOM      6  C   UNL     1      -2.227  -5.305   0.766  0.00  0.00    +0.007 C 
ATOM      7  C   UNL     1      -2.151  -4.152  -0.241  0.00  0.00    -0.011 C 
ATOM      8  C   UNL     1      -1.845  -4.712  -1.628  0.00  0.00    +0.009 C 
ATOM      9  C   UNL     1      -1.783  -3.598  -2.667  0.00  0.00    -0.032 C 
ATOM     10  C   UNL     1      -0.856  -2.468  -2.257  0.00  0.00    +0.041 C 
ATOM     11  C   UNL     1      -0.951  -2.034  -0.808  0.00  0.00    +0.113 C 
ATOM     12  C   UNL     1      -1.022  -3.203   0.163  0.00  0.00    +0.038 C 
ATOM     13  C   UNL     1      -2.096  -1.077  -0.579  0.00  0.00    +0.247 C 
ATOM     14  O   UNL     1      -3.283  -1.321  -0.552  0.00  0.00    -0.273 OA
ATOM     15  N   UNL     1      -1.528   0.132  -0.378  0.00  0.00    -0.215 N 
ATOM     16  C   UNL     1      -0.195   0.043  -0.316  0.00  0.00    +0.310 C 
ATOM     17  O   UNL     1       0.538   0.995  -0.130  0.00  0.00    -0.252 OA
ATOM     18  N   UNL     1       0.240  -1.218  -0.483  0.00  0.00    -0.285 N 
ATOM     19  C   UNL     1      -1.242  -4.208  -3.978  0.00  0.00    +0.011 C 
ATOM     20  C   UNL     1      -3.191  -3.068  -2.954  0.00  0.00    +0.011 C 
ATOM     21  H   UNL     1       1.148  -1.544  -0.408  0.00  0.00    +0.151 HD
ENDBRANCH   5  15
ENDBRANCH   1   5
BRANCH   3  22
ATOM     22  C   UNL     1      -3.650   2.946   2.963  0.00  0.00    +0.093 C 
BRANCH  22  23
ATOM     23  C   UNL     1      -4.435   4.252   3.095  0.00  0.00    -0.020 C 
BRANCH  23  29
ATOM     24  C   UNL     1      -2.384   5.539   3.182  0.00  0.00    -0.049 C 
ATOM     25  C   UNL     1      -1.593   6.647   2.483  0.00  0.00    +0.141 C 
ATOM     26  O   UNL     1      -2.377   7.843   2.458  0.00  0.00    -0.383 OA
ATOM     27  C   UNL     1      -3.633   7.694   1.790  0.00  0.00    +0.141 C 
ATOM     28  C   UNL     1      -4.445   6.596   2.482  0.00  0.00    -0.049 C 
ATOM     29  N   UNL     1      -3.661   5.343   2.464  0.00  0.00    +0.388 N 
ATOM     30  H   UNL     1      -3.460   5.088   1.489  0.00  0.00    -0.081 HD
ENDBRANCH  23  29
BRANCH  23  31
ATOM     31  C   UNL     1      -4.671   4.551   4.553  0.00  0.00    -0.059 A 
ATOM     32  C   UNL     1      -3.620   4.490   5.450  0.00  0.00    +0.005 A 
ATOM     33  C   UNL     1      -3.833   4.769   6.786  0.00  0.00    +0.046 A 
ATOM     34  C   UNL     1      -5.106   5.098   7.230  0.00  0.00    +0.120 A 
ATOM     35  C   UNL     1      -6.160   5.153   6.330  0.00  0.00    +0.046 A 
ATOM     36  C   UNL     1      -5.940   4.879   4.994  0.00  0.00    +0.005 A 
BRANCH  34  37
ATOM     37  O   UNL     1      -5.319   5.367   8.545  0.00  0.00    -0.495 OA
ATOM     38  C   UNL     1      -4.187   5.292   9.415  0.00  0.00    +0.277 C 
ENDBRANCH  34  37
ENDBRANCH  23  31
ENDBRANCH  22  23
ENDBRANCH   3  22
TORSDOF 7
