REMARK  Name = ZINC20258819
REMARK  8 active torsions:
REMARK  status: ('A' for Active; 'I' for Inactive)
REMARK    1  A    between atoms: C_1  and  O_2
REMARK    2  A    between atoms: O_2  and  C_3
REMARK    3  A    between atoms: C_8  and  N_9
REMARK    4  A    between atoms: N_9  and  C_10
REMARK    5  A    between atoms: C_10  and  N_12
REMARK    6  A    between atoms: N_12  and  N_13
REMARK    7  A    between atoms: C_14  and  C_16
REMARK    8  A    between atoms: C_25  and  N_28
REMARK                            x       y       z     vdW  Elec       q    Type
REMARK                         _______ _______ _______ _____ _____    ______ ____
ROOT
ATOM      1  N   UNL     1       2.253  -4.184   0.160  0.00  0.00    -0.235 N 
ATOM      2  C   UNL     1       3.392  -4.898   0.246  0.00  0.00    +0.235 C 
ATOM      3  O   UNL     1       3.345  -6.107   0.331  0.00  0.00    -0.274 OA
ATOM      4  H   UNL     1       2.290  -3.217   0.091  0.00  0.00    +0.173 HD
ENDROOT
BRANCH   2   5
ATOM      5  C   UNL     1       4.725  -4.195   0.236  0.00  0.00    +0.051 C 
ATOM      6  C   UNL     1       4.878  -3.411  -1.069  0.00  0.00    +0.020 C 
ATOM      7  C   UNL     1       6.231  -2.697  -1.079  0.00  0.00    -0.007 C 
ATOM      8  C   UNL     1       6.308  -1.734   0.108  0.00  0.00    +0.007 C 
ATOM      9  C   UNL     1       6.155  -2.518   1.412  0.00  0.00    -0.007 C 
ATOM     10  C   UNL     1       4.802  -3.232   1.422  0.00  0.00    +0.020 C 
ATOM     11  C   UNL     1       7.278  -3.551   1.521  0.00  0.00    +0.034 C 
ATOM     12  C   UNL     1       7.201  -4.515   0.335  0.00  0.00    +0.067 C 
ATOM     13  C   UNL     1       7.354  -3.731  -0.970  0.00  0.00    +0.034 C 
ATOM     14  C   UNL     1       5.848  -5.229   0.345  0.00  0.00    +0.046 C 
BRANCH  12  15
ATOM     15  N   UNL     1       8.276  -5.504   0.439  0.00  0.00    -0.244 N 
ATOM     16  C   UNL     1       9.582  -5.304   0.191  0.00  0.00    +0.221 A 
ATOM     17  N   UNL     1      10.213  -6.432   0.399  0.00  0.00    -0.205 NA
ATOM     18  C   UNL     1       9.346  -7.371   0.780  0.00  0.00    +0.242 A 
ATOM     19  N   UNL     1       8.148  -6.849   0.824  0.00  0.00    -0.137 NA
ATOM     20 CL   UNL     1       9.745  -9.016   1.161  0.00  0.00    -0.040 Cl
ENDBRANCH  12  15
ENDBRANCH   2   5
BRANCH   1  21
ATOM     21  N   UNL     1       1.014  -4.838   0.169  0.00  0.00    -0.246 N 
ATOM     22  H   UNL     1       0.976  -5.804   0.237  0.00  0.00    +0.172 HD
BRANCH  21  23
ATOM     23  C   UNL     1      -0.126  -4.123   0.082  0.00  0.00    +0.151 C 
ATOM     24  S   UNL     1      -1.640  -4.922   0.093  0.00  0.00    -0.017 S 
BRANCH  23  25
ATOM     25  N   UNL     1      -0.074  -2.780  -0.013  0.00  0.00    -0.293 N 
ATOM     26  H   UNL     1       0.783  -2.333  -0.099  0.00  0.00    +0.154 HD
BRANCH  25  32
ATOM     27  C   UNL     1      -1.438  -0.982  -0.887  0.00  0.00    +0.141 A 
ATOM     28  C   UNL     1      -2.612  -0.246  -0.861  0.00  0.00    +0.049 A 
ATOM     29  C   UNL     1      -3.598  -0.548   0.060  0.00  0.00    +0.024 A 
ATOM     30  C   UNL     1      -3.416  -1.585   0.959  0.00  0.00    +0.043 A 
ATOM     31  C   UNL     1      -2.246  -2.323   0.939  0.00  0.00    +0.047 A 
ATOM     32  C   UNL     1      -1.256  -2.029   0.013  0.00  0.00    +0.076 A 
ATOM     33 CL   UNL     1      -4.657  -1.958   2.113  0.00  0.00    -0.083 Cl
BRANCH  27  35
ATOM     34  C   UNL     1      -0.724   0.401  -2.685  0.00  0.00    +0.277 C 
ATOM     35  O   UNL     1      -0.468  -0.686  -1.793  0.00  0.00    -0.493 OA
ENDBRANCH  27  35
ENDBRANCH  25  32
ENDBRANCH  23  25
ENDBRANCH  21  23
ENDBRANCH   1  21
TORSDOF 7
