REMARK  Name = ZINC09959956
REMARK  7 active torsions:
REMARK  status: ('A' for Active; 'I' for Inactive)
REMARK    1  A    between atoms: C_6  and  C_7
REMARK    2  A    between atoms: C_7  and  N_8
REMARK    3  A    between atoms: N_8  and  C_21
REMARK    4  A    between atoms: C_9  and  C_11
REMARK    5  A    between atoms: C_11  and  S_12
REMARK    6  A    between atoms: S_12  and  C_13
REMARK    7  A    between atoms: C_17  and  N_19
REMARK                            x       y       z     vdW  Elec       q    Type
REMARK                         _______ _______ _______ _____ _____    ______ ____
ROOT
ATOM      1  N   UNL     1      -0.260   1.450  -2.394  0.00  0.00    -0.291 N 
ATOM      2  C   UNL     1      -0.794   1.609  -1.167  0.00  0.00    +0.227 C 
ATOM      3  O   UNL     1      -1.802   2.268  -1.024  0.00  0.00    -0.275 OA
ENDROOT
BRANCH   1   4
ATOM      4  C   UNL     1       0.901   0.577  -2.581  0.00  0.00    +0.039 C 
ATOM      5  C   UNL     1       2.154   1.274  -2.046  0.00  0.00    +0.029 C 
ATOM      6  C   UNL     1       3.367   0.362  -2.241  0.00  0.00    -0.008 C 
ATOM      7  C   UNL     1       3.148  -0.948  -1.481  0.00  0.00    +0.007 C 
ATOM      8  C   UNL     1       1.895  -1.644  -2.017  0.00  0.00    -0.008 C 
ATOM      9  C   UNL     1       0.682  -0.733  -1.822  0.00  0.00    +0.029 C 
ATOM     10  C   UNL     1       2.075  -1.942  -3.507  0.00  0.00    +0.007 C 
ATOM     11  C   UNL     1       2.294  -0.632  -4.266  0.00  0.00    -0.008 C 
ATOM     12  C   UNL     1       3.547   0.064  -3.731  0.00  0.00    +0.007 C 
ATOM     13  C   UNL     1       1.081   0.279  -4.071  0.00  0.00    +0.029 C 
ENDBRANCH   1   4
BRANCH   1  14
ATOM     14  C   UNL     1      -0.842   2.151  -3.542  0.00  0.00    +0.143 C 
BRANCH  14  20
ATOM     15  C   UNL     1      -0.829   4.545  -2.809  0.00  0.00    +0.006 A 
ATOM     16  C   UNL     1      -0.319   5.829  -2.864  0.00  0.00    +0.020 A 
ATOM     17  C   UNL     1       0.722   6.123  -3.726  0.00  0.00    +0.041 A 
ATOM     18  C   UNL     1       1.257   5.130  -4.528  0.00  0.00    +0.020 A 
ATOM     19  C   UNL     1       0.751   3.846  -4.468  0.00  0.00    +0.006 A 
ATOM     20  C   UNL     1      -0.290   3.552  -3.607  0.00  0.00    -0.030 A 
ATOM     21 CL   UNL     1       1.358   7.736  -3.800  0.00  0.00    -0.084 Cl
ENDBRANCH  14  20
ENDBRANCH   1  14
BRANCH   2  22
ATOM     22  C   UNL     1      -0.139   0.966   0.028  0.00  0.00    +0.173 C 
BRANCH  22  23
ATOM     23  S   UNL     1      -0.672   1.812   1.537  0.00  0.00    -0.077 S 
BRANCH  23  24
ATOM     24  C   UNL     1       0.219   0.883   2.740  0.00  0.00    +0.192 A 
ATOM     25  N   UNL     1       0.991  -0.117   2.341  0.00  0.00    -0.207 NA
ATOM     26  C   UNL     1       1.683  -0.837   3.222  0.00  0.00    +0.122 A 
ATOM     27  C   UNL     1       1.579  -0.533   4.576  0.00  0.00    +0.086 A 
ATOM     28  C   UNL     1       0.754   0.521   4.957  0.00  0.00    +0.122 A 
ATOM     29  N   UNL     1       0.096   1.200   4.021  0.00  0.00    -0.207 NA
ATOM     30  N   UNL     1       2.493  -1.878   2.796  0.00  0.00    -0.343 N 
ATOM     31  H   UNL     1       2.991  -2.400   3.443  0.00  0.00    +0.144 HD
ATOM     32  H   UNL     1       2.561  -2.084   1.850  0.00  0.00    +0.144 HD
BRANCH  28  33
ATOM     33  N   UNL     1       0.619   0.859   6.295  0.00  0.00    -0.343 N 
ATOM     34  H   UNL     1       0.043   1.595   6.554  0.00  0.00    +0.144 HD
ATOM     35  H   UNL     1       1.102   0.360   6.972  0.00  0.00    +0.144 HD
ENDBRANCH  28  33
ENDBRANCH  23  24
ENDBRANCH  22  23
ENDBRANCH   2  22
TORSDOF 7
