REMARK  Name = ZINC02131675
REMARK  6 active torsions:
REMARK  status: ('A' for Active; 'I' for Inactive)
REMARK    1  A    between atoms: C_1  and  C_2
REMARK    2  A    between atoms: C_5  and  C_8
REMARK    3  A    between atoms: N_26  and  C_29
REMARK    4  A    between atoms: C_34  and  C_35
REMARK    5  A    between atoms: N_37  and  C_38
REMARK    6  A    between atoms: C_38  and  C_39
REMARK                            x       y       z     vdW  Elec       q    Type
REMARK                         _______ _______ _______ _____ _____    ______ ____
ROOT
ATOM      1  C   UNL     1       1.433  -5.268  -1.783  0.00  0.00    +0.155 C 
ATOM      2  C   UNL     1       2.490  -6.313  -1.484  0.00  0.00    +0.046 A 
ATOM      3  C   UNL     1       3.117  -6.423  -0.294  0.00  0.00    -0.015 A 
ATOM      4  C   UNL     1       4.039  -7.538  -0.409  0.00  0.00    +0.003 A 
ATOM      5  C   UNL     1       4.939  -8.117   0.491  0.00  0.00    +0.010 A 
ATOM      6  C   UNL     1       5.673  -9.184   0.033  0.00  0.00    +0.001 A 
ATOM      7  C   UNL     1       5.538  -9.671  -1.256  0.00  0.00    +0.002 A 
ATOM      8  C   UNL     1       4.655  -9.118  -2.167  0.00  0.00    +0.026 A 
ATOM      9  C   UNL     1       3.895  -8.034  -1.730  0.00  0.00    +0.047 A 
ATOM     10  N   UNL     1       2.951  -7.268  -2.350  0.00  0.00    -0.356 N 
ATOM     11  H   UNL     1       2.652  -7.383  -3.266  0.00  0.00    +0.166 HD
ATOM     12  C   UNL     1       2.893  -5.539   0.907  0.00  0.00    +0.069 C 
ATOM     13  C   UNL     1       1.544  -4.824   0.769  0.00  0.00    +0.170 C 
ATOM     14  N   UNL     1       1.414  -4.360  -0.630  0.00  0.00    -0.260 N 
ATOM     15  C   UNL     1       1.300  -3.031  -0.598  0.00  0.00    +0.317 C 
ATOM     16  O   UNL     1       1.121  -2.342  -1.583  0.00  0.00    -0.252 OA
ATOM     17  N   UNL     1       1.410  -2.544   0.646  0.00  0.00    -0.192 N 
ATOM     18  C   UNL     1       1.572  -3.528   1.554  0.00  0.00    +0.248 C 
ATOM     19  O   UNL     1       1.710  -3.402   2.752  0.00  0.00    -0.273 OA
ENDROOT
BRANCH   1  24
ATOM     20  C   UNL     1      -3.729  -7.791  -2.408  0.00  0.00    +0.044 C 
ATOM     21  C   UNL     1      -2.382  -7.134  -2.245  0.00  0.00    -0.050 A 
ATOM     22  C   UNL     1      -1.781  -6.514  -3.325  0.00  0.00    +0.004 A 
ATOM     23  C   UNL     1      -0.546  -5.910  -3.175  0.00  0.00    +0.006 A 
ATOM     24  C   UNL     1       0.087  -5.926  -1.946  0.00  0.00    -0.021 A 
ATOM     25  C   UNL     1      -0.512  -6.551  -0.868  0.00  0.00    +0.006 A 
ATOM     26  C   UNL     1      -1.749  -7.151  -1.017  0.00  0.00    +0.004 A 
ENDBRANCH   1  24
BRANCH  17  27
ATOM     27  C   UNL     1       1.359  -1.185   0.964  0.00  0.00    +0.058 A 
ATOM     28  C   UNL     1       2.523  -0.431   0.993  0.00  0.00    +0.025 A 
ATOM     29  C   UNL     1       2.471   0.912   1.308  0.00  0.00    +0.002 A 
ATOM     30  C   UNL     1       1.258   1.517   1.596  0.00  0.00    +0.001 A 
ATOM     31  C   UNL     1       0.092   0.784   1.572  0.00  0.00    +0.015 A 
ATOM     32  C   UNL     1       0.130  -0.576   1.255  0.00  0.00    +0.059 A 
BRANCH  32  33
ATOM     33  C   UNL     1      -1.115  -1.367   1.228  0.00  0.00    +0.246 C 
ATOM     34  O   UNL     1      -1.078  -2.551   0.952  0.00  0.00    -0.270 OA
ATOM     35  N   UNL     1      -2.295  -0.778   1.509  0.00  0.00    -0.308 N 
ATOM     36  H   UNL     1      -2.324   0.167   1.729  0.00  0.00    +0.149 HD
BRANCH  35  37
ATOM     37  C   UNL     1      -3.531  -1.563   1.482  0.00  0.00    +0.131 C 
BRANCH  37  38
ATOM     38  C   UNL     1      -4.698  -0.675   1.830  0.00  0.00    -0.016 C 
ATOM     39  C   UNL     1      -5.721  -0.589   1.016  0.00  0.00    +0.005 C 
ENDBRANCH  37  38
ENDBRANCH  35  37
ENDBRANCH  32  33
ENDBRANCH  17  27
TORSDOF 5
