REMARK  Name = ZINC20718147
REMARK  4 active torsions:
REMARK  status: ('A' for Active; 'I' for Inactive)
REMARK    1  A    between atoms: C_9  and  S_14
REMARK    2  A    between atoms: C_11  and  O_13
REMARK    3  A    between atoms: S_14  and  C_15
REMARK    4  A    between atoms: C_18  and  C_20
REMARK                            x       y       z     vdW  Elec       q    Type
REMARK                         _______ _______ _______ _____ _____    ______ ____
ROOT
ATOM      1  C   UNL     1      -0.017   1.373   0.010  0.00  0.00    +0.000 A 
ATOM      2  C   UNL     1       1.178   2.071   0.002  0.00  0.00    +0.002 A 
ATOM      3  C   UNL     1       2.366   1.387  -0.018  0.00  0.00    +0.028 A 
ATOM      4  C   UNL     1       2.401  -0.025  -0.029  0.00  0.00    +0.071 A 
ATOM      5  C   UNL     1       1.200  -0.715  -0.012  0.00  0.00    -0.022 A 
ATOM      6  C   UNL     1       0.002  -0.004   0.002  0.00  0.00    +0.006 A 
ATOM      7  C   UNL     1       1.071  -2.206   0.008  0.00  0.00    +0.039 C 
ATOM      8  C   UNL     1       2.115  -2.952  -0.764  0.00  0.00    +0.029 C 
ATOM      9  C   UNL     1       3.449  -3.006  -0.061  0.00  0.00    +0.139 C 
ATOM     10  C   UNL     1       4.160  -1.701  -0.109  0.00  0.00    +0.201 C 
ATOM     11  N   UNL     1       3.635  -0.562  -0.062  0.00  0.00    -0.216 NA
ENDROOT
BRANCH  10  12
ATOM     12  O   UNL     1       5.504  -1.746  -0.213  0.00  0.00    -0.495 OA
ATOM     13  H   UNL     1       5.925  -0.876  -0.240  0.00  0.00    +0.293 HD
ENDBRANCH  10  12
BRANCH   9  14
ATOM     14  S   UNL     1       4.483  -4.267  -0.856  0.00  0.00    -0.084 S 
BRANCH  14  15
ATOM     15  C   UNL     1       5.931  -4.324   0.146  0.00  0.00    +0.160 A 
ATOM     16  N   UNL     1       6.220  -3.627   1.232  0.00  0.00    -0.134 NA
ATOM     17  N   UNL     1       7.312  -3.778   1.851  0.00  0.00    -0.140 NA
ATOM     18  C   UNL     1       8.190  -4.662   1.395  0.00  0.00    +0.133 A 
ATOM     19  S   UNL     1       7.305  -5.286  -0.027  0.00  0.00    -0.039 S 
BRANCH  18  20
ATOM     20  C   UNL     1       9.521  -5.031   1.919  0.00  0.00    +0.012 A 
ATOM     21  C   UNL     1      10.304  -5.999   1.277  0.00  0.00    +0.030 A 
ATOM     22  C   UNL     1      11.541  -6.312   1.800  0.00  0.00    +0.111 A 
ATOM     23  N   UNL     1      11.988  -5.714   2.889  0.00  0.00    -0.263 NA
ATOM     24  C   UNL     1      11.283  -4.798   3.524  0.00  0.00    +0.111 A 
ATOM     25  C   UNL     1      10.038  -4.419   3.068  0.00  0.00    +0.030 A 
ENDBRANCH  18  20
ENDBRANCH  14  15
ENDBRANCH   9  14
TORSDOF 4
