REMARK  Name = ZINC22060978
REMARK  10 active torsions:
REMARK  status: ('A' for Active; 'I' for Inactive)
REMARK    1  A    between atoms: C_1  and  C_2
REMARK    2  A    between atoms: C_4  and  C_34
REMARK    3  A    between atoms: C_6  and  S_8
REMARK    4  A    between atoms: S_8  and  C_9
REMARK    5  A    between atoms: C_9  and  C_10
REMARK    6  A    between atoms: C_13  and  C_16
REMARK    7  A    between atoms: N_18  and  N_19
REMARK    8  A    between atoms: C_20  and  C_22
REMARK    9  A    between atoms: C_28  and  C_33
REMARK   10  A    between atoms: C_29  and  C_32
REMARK                            x       y       z     vdW  Elec       q    Type
REMARK                         _______ _______ _______ _____ _____    ______ ____
ROOT
ATOM      1  C   UNL     1      -6.049   1.628   0.039  0.00  0.00    +0.260 C 
ATOM      2  O   UNL     1      -6.059   2.844   0.046  0.00  0.00    -0.269 OA
ATOM      3  N   UNL     1      -4.876   0.965   0.030  0.00  0.00    -0.230 N 
ATOM      4  H   UNL     1      -4.866  -0.135   0.024  0.00  0.00    +0.173 HD
ENDROOT
BRANCH   1   8
ATOM      5  C   UNL     1      -9.709  -0.528   0.044  0.00  0.00    -0.037 A 
ATOM      6  C   UNL     1      -9.724   0.856   0.052  0.00  0.00    +0.005 A 
ATOM      7  C   UNL     1      -8.539   1.562   0.051  0.00  0.00    +0.013 A 
ATOM      8  C   UNL     1      -7.323   0.878   0.041  0.00  0.00    +0.038 A 
ATOM      9  C   UNL     1      -7.314  -0.518   0.028  0.00  0.00    +0.013 A 
ATOM     10  C   UNL     1      -8.506  -1.212   0.035  0.00  0.00    +0.005 A 
BRANCH   5  11
ATOM     11  C   UNL     1     -11.007  -1.293   0.046  0.00  0.00    +0.112 C 
BRANCH  11  12
ATOM     12  S   UNL     1     -11.535  -1.590  -1.660  0.00  0.00    -0.081 S 
BRANCH  12  18
ATOM     13  C   UNL     1     -14.954  -3.630   1.556  0.00  0.00    +0.066 C 
ATOM     14  C   UNL     1     -14.529  -3.368   0.134  0.00  0.00    +0.043 A 
ATOM     15  C   UNL     1     -15.304  -3.816  -0.924  0.00  0.00    +0.046 A 
ATOM     16  C   UNL     1     -14.877  -3.554  -2.216  0.00  0.00    +0.043 A 
ATOM     17  N   UNL     1     -13.750  -2.888  -2.401  0.00  0.00    -0.227 NA
ATOM     18  C   UNL     1     -13.031  -2.473  -1.367  0.00  0.00    +0.189 A 
ATOM     19  N   UNL     1     -13.408  -2.712  -0.119  0.00  0.00    -0.227 NA
ATOM     20  C   UNL     1     -15.689  -4.022  -3.397  0.00  0.00    +0.066 C 
ENDBRANCH  12  18
ENDBRANCH  11  12
ENDBRANCH   5  11
ENDBRANCH   1   8
BRANCH   3  21
ATOM     21  N   UNL     1      -3.669   1.676   0.028  0.00  0.00    -0.230 N 
ATOM     22  C   UNL     1      -2.496   1.012   0.019  0.00  0.00    +0.260 C 
ATOM     23  O   UNL     1      -2.485  -0.204   0.013  0.00  0.00    -0.269 OA
ATOM     24  H   UNL     1      -3.678   2.776   0.034  0.00  0.00    +0.173 HD
BRANCH  22  25
ATOM     25  C   UNL     1      -1.223   1.762   0.017  0.00  0.00    +0.039 A 
ATOM     26  C   UNL     1      -1.236   3.163   0.031  0.00  0.00    +0.015 A 
ATOM     27  C   UNL     1      -0.070   3.870   0.024  0.00  0.00    +0.027 A 
ATOM     28  C   UNL     1       1.154   3.203   0.008  0.00  0.00    +0.047 A 
ATOM     29  C   UNL     1       1.180   1.795   0.000  0.00  0.00    +0.004 A 
ATOM     30  C   UNL     1      -0.013   1.076   0.008  0.00  0.00    +0.023 A 
ATOM     31  C   UNL     1       2.596   1.417  -0.014  0.00  0.00    -0.022 A 
ATOM     32  C   UNL     1       3.305   2.556  -0.015  0.00  0.00    +0.017 A 
ATOM     33  N   UNL     1       2.459   3.632  -0.001  0.00  0.00    -0.358 N 
ATOM     34  H   UNL     1       2.684   4.709   0.003  0.00  0.00    +0.166 HD
ATOM     35  C   UNL     1       4.809   2.639  -0.028  0.00  0.00    +0.063 C 
ATOM     36  C   UNL     1       3.151   0.015  -0.026  0.00  0.00    +0.046 C 
ENDBRANCH  22  25
ENDBRANCH   3  21
TORSDOF 6
