REMARK  Name = ZINC65138084
REMARK  10 active torsions:
REMARK  status: ('A' for Active; 'I' for Inactive)
REMARK    1  A    between atoms: C_1  and  C_2
REMARK    2  A    between atoms: C_4  and  C_33
REMARK    3  A    between atoms: C_6  and  N_8
REMARK    4  A    between atoms: C_9  and  C_11
REMARK    5  A    between atoms: C_11  and  N_12
REMARK    6  A    between atoms: C_15  and  S_25
REMARK    7  A    between atoms: N_19  and  C_22
REMARK    8  A    between atoms: C_22  and  C_23
REMARK    9  A    between atoms: C_22  and  C_24
REMARK   10  A    between atoms: S_25  and  N_28
REMARK                            x       y       z     vdW  Elec       q    Type
REMARK                         _______ _______ _______ _____ _____    ______ ____
ROOT
ATOM      1  N   UNL     1       0.370  -1.959   5.973  0.00  0.00    -0.283 N 
ATOM      2  C   UNL     1       1.544  -1.415   6.488  0.00  0.00    +0.072 A 
ATOM      3  C   UNL     1       2.883  -1.558   6.160  0.00  0.00    +0.056 A 
ATOM      4  C   UNL     1       3.843  -0.869   6.874  0.00  0.00    +0.108 A 
ATOM      5  C   UNL     1       3.474  -0.036   7.917  0.00  0.00    +0.030 A 
ATOM      6  C   UNL     1       2.143   0.113   8.251  0.00  0.00    +0.030 A 
ATOM      7  C   UNL     1       1.171  -0.574   7.539  0.00  0.00    +0.070 A 
ATOM      8  N   UNL     1      -0.217  -0.634   7.630  0.00  0.00    -0.289 N 
ATOM      9  C   UNL     1      -0.669  -1.468   6.674  0.00  0.00    +0.331 A 
ATOM     10  O   UNL     1      -1.839  -1.738   6.476  0.00  0.00    -0.246 OA
ENDROOT
BRANCH   8  11
ATOM     11  C   UNL     1      -1.045   0.091   8.597  0.00  0.00    +0.086 C 
ATOM     12  C   UNL     1      -2.019   1.004   7.850  0.00  0.00    +0.031 C 
ATOM     13  C   UNL     1      -1.833  -0.909   9.446  0.00  0.00    +0.031 C 
ENDBRANCH   8  11
BRANCH   4  14
ATOM     14  S   UNL     1       5.546  -1.050   6.457  0.00  0.00    +0.061 S 
ATOM     15  O   UNL     1       6.287  -0.724   7.624  0.00  0.00    -0.153 OA
ATOM     16  O   UNL     1       5.671  -2.304   5.800  0.00  0.00    -0.153 OA
BRANCH  14  17
ATOM     17  N   UNL     1       5.901   0.111   5.331  0.00  0.00    -0.177 NA
ATOM     18  C   UNL     1       5.783  -0.044   3.873  0.00  0.00    +0.109 C 
ATOM     19  C   UNL     1       6.244   1.282   3.233  0.00  0.00    +0.018 C 
ATOM     20  C   UNL     1       7.131   1.912   4.339  0.00  0.00    +0.018 C 
ATOM     21  C   UNL     1       6.381   1.474   5.624  0.00  0.00    +0.109 C 
ENDBRANCH  14  17
ENDBRANCH   4  14
BRANCH   1  22
ATOM     22  C   UNL     1       0.280  -2.900   4.854  0.00  0.00    +0.222 C 
BRANCH  22  24
ATOM     23  N   UNL     1       0.052  -2.797   2.393  0.00  0.00    -0.284 N 
ATOM     24  C   UNL     1       0.150  -2.134   3.562  0.00  0.00    +0.237 C 
ATOM     25  O   UNL     1       0.134  -0.922   3.575  0.00  0.00    -0.274 OA
ATOM     26  H   UNL     1      -0.012  -3.765   2.388  0.00  0.00    +0.155 HD
BRANCH  23  32
ATOM     27  C   UNL     1      -1.512  -2.365  -2.248  0.00  0.00    +0.044 C 
ATOM     28  C   UNL     1      -0.707  -1.857  -1.080  0.00  0.00    -0.048 A 
ATOM     29  C   UNL     1       0.025  -0.690  -1.201  0.00  0.00    +0.006 A 
ATOM     30  C   UNL     1       0.765  -0.220  -0.131  0.00  0.00    -0.048 A 
ATOM     31  C   UNL     1       0.776  -0.917   1.061  0.00  0.00    +0.026 A 
ATOM     32  C   UNL     1       0.043  -2.089   1.186  0.00  0.00    +0.034 A 
ATOM     33  C   UNL     1      -0.704  -2.555   0.112  0.00  0.00    +0.026 A 
ATOM     34  C   UNL     1       1.561   1.052  -0.268  0.00  0.00    +0.044 C 
ENDBRANCH  23  32
ENDBRANCH  22  24
ENDBRANCH   1  22
TORSDOF 6
