REMARK  Name = ZINC10040240
REMARK  12 active torsions:
REMARK  status: ('A' for Active; 'I' for Inactive)
REMARK    1  A    between atoms: C_1  and  C_2
REMARK    2  A    between atoms: C_4  and  C_12
REMARK    3  A    between atoms: C_6  and  N_9
REMARK    4  A    between atoms: C_7  and  C_8
REMARK    5  A    between atoms: C_15  and  C_17
REMARK    6  A    between atoms: N_18  and  N_19
REMARK    7  A    between atoms: C_20  and  C_22
REMARK    8  A    between atoms: C_22  and  C_24
REMARK    9  A    between atoms: C_22  and  N_27
REMARK   10  A    between atoms: C_24  and  C_25
REMARK   11  A    between atoms: C_24  and  C_26
REMARK   12  A    between atoms: C_28  and  C_30
REMARK                            x       y       z     vdW  Elec       q    Type
REMARK                         _______ _______ _______ _____ _____    ______ ____
ROOT
ATOM      1  N   UNL     1       3.967  -6.296   0.641  0.00  0.00    -0.205 N 
ATOM      2  C   UNL     1       3.644  -4.987   0.620  0.00  0.00    +0.253 C 
ATOM      3  O   UNL     1       4.416  -4.168   1.059  0.00  0.00    -0.272 OA
ATOM      4  H   UNL     1       3.347  -6.954   0.288  0.00  0.00    +0.177 HD
ENDROOT
BRANCH   1   6
ATOM      5  C   UNL     1       5.418  -7.962   1.149  0.00  0.00    +0.176 C 
ATOM      6  N   UNL     1       5.100  -6.673   1.129  0.00  0.00    -0.185 NA
BRANCH   5  10
ATOM      7  C   UNL     1       8.629  -8.316   2.603  0.00  0.00    +0.136 A 
ATOM      8  C   UNL     1       8.357  -9.682   2.341  0.00  0.00    +0.050 A 
ATOM      9  C   UNL     1       7.127  -9.752   1.771  0.00  0.00    +0.051 A 
ATOM     10  C   UNL     1       6.637  -8.368   1.674  0.00  0.00    +0.148 A 
ATOM     11  O   UNL     1       7.591  -7.566   2.196  0.00  0.00    -0.454 OA
BRANCH   7  15
ATOM     12  C   UNL     1      11.293  -4.488   4.223  0.00  0.00    +0.044 C 
ATOM     13  C   UNL     1      11.118  -5.967   3.994  0.00  0.00    -0.045 A 
ATOM     14  C   UNL     1       9.976  -6.435   3.409  0.00  0.00    +0.015 A 
ATOM     15  C   UNL     1       9.813  -7.819   3.203  0.00  0.00    +0.020 A 
ATOM     16  C   UNL     1      10.838  -8.703   3.591  0.00  0.00    +0.044 A 
ATOM     17  C   UNL     1      11.974  -8.212   4.168  0.00  0.00    +0.130 A 
ATOM     18  C   UNL     1      12.121  -6.848   4.372  0.00  0.00    -0.017 A 
ATOM     19  C   UNL     1      13.380  -6.318   5.009  0.00  0.00    +0.046 C 
BRANCH  17  20
ATOM     20  N   UNL     1      13.053  -9.139   4.576  0.00  0.00    +0.057 N 
ATOM     21  O   UNL     1      14.314  -8.787   4.431  0.00  0.00    -0.126 OA
ATOM     22  O   UNL     1      12.753 -10.316   5.085  0.00  0.00    -0.126 OA
ENDBRANCH  17  20
ENDBRANCH   7  15
ENDBRANCH   5  10
ENDBRANCH   1   6
BRANCH   2  23
ATOM     23  C   UNL     1       2.321  -4.547   0.050  0.00  0.00    +0.163 C 
BRANCH  23  24
ATOM     24  N   UNL     1       2.211  -3.089   0.143  0.00  0.00    -0.300 N 
ATOM     25  C   UNL     1       0.996  -2.506   0.183  0.00  0.00    +0.245 C 
ATOM     26  O   UNL     1      -0.008  -3.190   0.142  0.00  0.00    -0.270 OA
ATOM     27  H   UNL     1       3.012  -2.543   0.175  0.00  0.00    +0.150 HD
BRANCH  25  28
ATOM     28  C   UNL     1       0.884  -1.035   0.277  0.00  0.00    +0.037 A 
ATOM     29  C   UNL     1      -0.372  -0.429   0.319  0.00  0.00    +0.014 A 
ATOM     30  C   UNL     1      -0.470   0.944   0.406  0.00  0.00    +0.021 A 
ATOM     31  C   UNL     1       0.676   1.721   0.452  0.00  0.00    +0.041 A 
ATOM     32  C   UNL     1       1.925   1.125   0.410  0.00  0.00    +0.021 A 
ATOM     33  C   UNL     1       2.036  -0.247   0.324  0.00  0.00    +0.014 A 
ATOM     34 CL   UNL     1       0.545   3.448   0.560  0.00  0.00    -0.084 Cl
ENDBRANCH  25  28
ENDBRANCH  23  24
BRANCH  23  35
ATOM     35  C   UNL     1       2.230  -4.973  -1.417  0.00  0.00    +0.012 C 
ATOM     36  C   UNL     1       0.886  -4.525  -1.996  0.00  0.00    +0.009 C 
ATOM     37  C   UNL     1       3.368  -4.323  -2.208  0.00  0.00    +0.009 C 
ENDBRANCH  23  35
ENDBRANCH   2  23
TORSDOF 8
