REMARK  Name = ZINC20437322
REMARK  7 active torsions:
REMARK  status: ('A' for Active; 'I' for Inactive)
REMARK    1  A    between atoms: C_3  and  C_8
REMARK    2  A    between atoms: C_8  and  O_9
REMARK    3  A    between atoms: O_9  and  C_10
REMARK    4  A    between atoms: C_14  and  C_16
REMARK    5  A    between atoms: C_19  and  C_30
REMARK    6  A    between atoms: C_25  and  N_29
REMARK    7  A    between atoms: C_26  and  C_27
REMARK                            x       y       z     vdW  Elec       q    Type
REMARK                         _______ _______ _______ _____ _____    ______ ____
ROOT
ATOM      1  C   UNL     1       7.415   4.356   4.332  0.00  0.00    +0.102 C 
ATOM      2  C   UNL     1       8.783   3.749   4.502  0.00  0.00    +0.054 A 
ATOM      3  C   UNL     1       9.145   2.405   4.632  0.00  0.00    +0.100 A 
ATOM      4  N   UNL     1      10.457   2.347   4.756  0.00  0.00    -0.171 NA
ATOM      5  N   UNL     1      10.963   3.655   4.708  0.00  0.00    -0.246 N 
ATOM      6  H   UNL     1      11.897   3.909   4.774  0.00  0.00    +0.192 HD
ATOM      7  C   UNL     1       9.922   4.499   4.553  0.00  0.00    +0.223 A 
ATOM      8  O   UNL     1       9.912   5.852   4.457  0.00  0.00    -0.423 OA
ATOM      9  C   UNL     1       8.725   6.479   4.583  0.00  0.00    +0.200 C 
ATOM     10  C   UNL     1       7.530   5.846   4.537  0.00  0.00    +0.098 C 
ENDROOT
BRANCH   3  11
ATOM     11  C   UNL     1       8.216   1.246   4.631  0.00  0.00    +0.003 A 
ATOM     12  C   UNL     1       6.949   1.366   5.199  0.00  0.00    +0.011 A 
ATOM     13  C   UNL     1       6.090   0.287   5.195  0.00  0.00    +0.020 A 
ATOM     14  C   UNL     1       6.484  -0.914   4.630  0.00  0.00    +0.041 A 
ATOM     15  C   UNL     1       7.742  -1.037   4.065  0.00  0.00    +0.020 A 
ATOM     16  C   UNL     1       8.607   0.038   4.058  0.00  0.00    +0.011 A 
ATOM     17 CL   UNL     1       5.399  -2.268   4.630  0.00  0.00    -0.084 Cl
ENDBRANCH   3  11
BRANCH   1  22
ATOM     18  C   UNL     1       5.252   3.110   1.494  0.00  0.00    +0.121 A 
ATOM     19  C   UNL     1       5.966   3.555   0.390  0.00  0.00    +0.045 A 
ATOM     20  C   UNL     1       7.143   4.256   0.566  0.00  0.00    +0.004 A 
ATOM     21  C   UNL     1       7.610   4.514   1.842  0.00  0.00    +0.005 A 
ATOM     22  C   UNL     1       6.902   4.072   2.943  0.00  0.00    -0.031 A 
ATOM     23  C   UNL     1       5.721   3.376   2.772  0.00  0.00    +0.050 A 
BRANCH  18  24
ATOM     24  O   UNL     1       4.094   2.421   1.323  0.00  0.00    -0.487 OA
BRANCH  24  25
ATOM     25  C   UNL     1       3.672   2.184  -0.021  0.00  0.00    +0.264 C 
BRANCH  25  28
ATOM     26  C   UNL     1      -0.017   1.378   0.010  0.00  0.00    +0.002 A 
ATOM     27  C   UNL     1       1.171   2.086   0.002  0.00  0.00    +0.007 A 
ATOM     28  C   UNL     1       2.378   1.412  -0.013  0.00  0.00    -0.009 A 
ATOM     29  C   UNL     1       2.398   0.029  -0.021  0.00  0.00    +0.027 A 
ATOM     30  C   UNL     1       1.210  -0.679  -0.013  0.00  0.00    +0.041 A 
ATOM     31  C   UNL     1       0.002  -0.004   0.002  0.00  0.00    +0.020 A 
ATOM     32 CL   UNL     1       1.234  -2.415  -0.024  0.00  0.00    -0.084 Cl
ENDBRANCH  25  28
ENDBRANCH  24  25
ENDBRANCH  18  24
ENDBRANCH   1  22
BRANCH   9  33
ATOM     33  N   UNL     1       8.728   7.839   4.770  0.00  0.00    -0.328 N 
ATOM     34  H   UNL     1       9.568   8.321   4.807  0.00  0.00    +0.145 HD
ATOM     35  H   UNL     1       7.889   8.317   4.864  0.00  0.00    +0.145 HD
ENDBRANCH   9  33
BRANCH  10  36
ATOM     36  C   UNL     1       6.333   6.616   4.688  0.00  0.00    +0.101 C 
ATOM     37  N   UNL     1       5.383   7.228   4.808  0.00  0.00    -0.191 NA
ENDBRANCH  10  36
TORSDOF 7
