REMARK  Name = ZINC09791407
REMARK  6 active torsions:
REMARK  status: ('A' for Active; 'I' for Inactive)
REMARK    1  A    between atoms: N_11  and  C_12
REMARK    2  A    between atoms: C_12  and  C_13
REMARK    3  A    between atoms: C_13  and  C_14
REMARK    4  A    between atoms: C_14  and  S_15
REMARK    5  A    between atoms: S_15  and  C_16
REMARK    6  A    between atoms: C_22  and  N_24
REMARK                            x       y       z     vdW  Elec       q    Type
REMARK                         _______ _______ _______ _____ _____    ______ ____
ROOT
ATOM      1  C   UNL     1      -4.213   3.686  -1.380  0.00  0.00    +0.033 C 
ENDROOT
BRANCH   1   2
ATOM      2  C   UNL     1      -3.699   3.781   0.058  0.00  0.00    +0.128 C 
BRANCH   2  13
ATOM      3  C   UNL     1       1.179   1.781   0.000  0.00  0.00    +0.002 A 
ATOM      4  C   UNL     1      -0.013   1.076   0.008  0.00  0.00    +0.002 A 
ATOM      5  C   UNL     1      -1.220   1.747   0.017  0.00  0.00    +0.028 A 
ATOM      6  C   UNL     1      -1.238   3.134   0.031  0.00  0.00    +0.070 A 
ATOM      7  C   UNL     1      -0.037   3.845   0.023  0.00  0.00    +0.067 A 
ATOM      8  C   UNL     1       1.170   3.162   0.007  0.00  0.00    +0.028 A 
ATOM      9  N   UNL     1      -0.370   5.197   0.033  0.00  0.00    -0.306 N 
ATOM     10  H   UNL     1       0.258   5.937   0.031  0.00  0.00    +0.170 HD
ATOM     11  C   UNL     1      -1.712   5.304   0.046  0.00  0.00    +0.328 A 
ATOM     12  O   UNL     1      -2.332   6.351   0.058  0.00  0.00    -0.247 OA
ATOM     13  N   UNL     1      -2.264   4.076   0.045  0.00  0.00    -0.292 N 
ENDBRANCH   2  13
ENDBRANCH   1   2
BRANCH   1  14
ATOM     14  C   UNL     1      -5.711   3.378  -1.367  0.00  0.00    +0.079 C 
BRANCH  14  15
ATOM     15  S   UNL     1      -6.319   3.265  -3.068  0.00  0.00    -0.088 S 
BRANCH  15  16
ATOM     16  C   UNL     1      -8.018   2.914  -2.764  0.00  0.00    +0.171 A 
ATOM     17  N   UNL     1      -8.866   2.753  -3.818  0.00  0.00    -0.302 N 
ATOM     18  H   UNL     1      -8.531   2.833  -4.725  0.00  0.00    +0.171 HD
ATOM     19  C   UNL     1     -10.170   2.479  -3.603  0.00  0.00    +0.254 A 
ATOM     20  O   UNL     1     -10.935   2.329  -4.542  0.00  0.00    -0.268 OA
ATOM     21  C   UNL     1     -10.630   2.374  -2.287  0.00  0.00    +0.113 A 
ATOM     22  C   UNL     1      -9.727   2.552  -1.248  0.00  0.00    +0.124 A 
ATOM     23  N   UNL     1      -8.444   2.817  -1.521  0.00  0.00    -0.209 NA
BRANCH  22  24
ATOM     24  N   UNL     1     -10.150   2.454   0.062  0.00  0.00    -0.343 N 
ATOM     25  H   UNL     1      -9.518   2.578   0.787  0.00  0.00    +0.144 HD
ATOM     26  H   UNL     1     -11.081   2.262   0.258  0.00  0.00    +0.144 HD
ENDBRANCH  22  24
ENDBRANCH  15  16
ENDBRANCH  14  15
ENDBRANCH   1  14
TORSDOF 6
