REMARK  Name = ZINC32121282
REMARK  5 active torsions:
REMARK  status: ('A' for Active; 'I' for Inactive)
REMARK    1  A    between atoms: C_5  and  N_7
REMARK    2  A    between atoms: C_11  and  C_20
REMARK    3  A    between atoms: C_23  and  O_26
REMARK    4  A    between atoms: O_26  and  C_27
REMARK    5  A    between atoms: C_27  and  C_28
REMARK                            x       y       z     vdW  Elec       q    Type
REMARK                         _______ _______ _______ _____ _____    ______ ____
ROOT
ATOM      1  C   UNL     1       1.168   2.086   0.002  0.00  0.00    +0.003 A 
ATOM      2  C   UNL     1       2.373   1.408  -0.005  0.00  0.00    +0.006 A 
ATOM      3  C   UNL     1       2.401   0.030  -0.004  0.00  0.00    -0.017 A 
ATOM      4  C   UNL     1       1.210  -0.703  -0.013  0.00  0.00    +0.062 A 
ATOM      5  C   UNL     1       0.002  -0.004   0.002  0.00  0.00    +0.147 A 
ATOM      6  C   UNL     1      -0.017   1.373   0.010  0.00  0.00    +0.034 A 
ATOM      7  N   UNL     1       1.151  -2.094  -0.059  0.00  0.00    -0.335 N 
ATOM      8  C   UNL     1       2.413  -2.805   0.022  0.00  0.00    +0.105 C 
ATOM      9  C   UNL     1       3.442  -2.036  -0.780  0.00  0.00    +0.029 C 
ATOM     10  C   UNL     1       3.674  -0.722   0.029  0.00  0.00    +0.049 C 
ATOM     11  C   UNL     1       4.934  -0.192  -0.544  0.00  0.00    -0.023 C 
ATOM     12  C   UNL     1       5.657  -1.213  -0.991  0.00  0.00    -0.030 C 
ATOM     13  C   UNL     1       4.896  -2.524  -0.777  0.00  0.00    +0.033 C 
ATOM     14  H   UNL     1       0.209  -2.654  -0.151  0.00  0.00    +0.147 HD
ENDROOT
BRANCH   8  15
ATOM     15  C   UNL     1       2.258  -4.194  -0.539  0.00  0.00    -0.027 A 
ATOM     16  C   UNL     1       1.473  -4.402  -1.659  0.00  0.00    +0.009 A 
ATOM     17  C   UNL     1       1.333  -5.674  -2.179  0.00  0.00    +0.046 A 
ATOM     18  C   UNL     1       1.972  -6.745  -1.571  0.00  0.00    +0.121 A 
ATOM     19  C   UNL     1       2.753  -6.535  -0.444  0.00  0.00    +0.046 A 
ATOM     20  C   UNL     1       2.894  -5.260   0.069  0.00  0.00    +0.009 A 
BRANCH  18  21
ATOM     21  O   UNL     1       1.831  -7.998  -2.078  0.00  0.00    -0.487 OA
BRANCH  21  22
ATOM     22  C   UNL     1       1.012  -8.140  -3.240  0.00  0.00    +0.264 C 
BRANCH  22  23
ATOM     23  C   UNL     1       0.974  -9.589  -3.654  0.00  0.00    -0.010 A 
ATOM     24  C   UNL     1       1.911 -10.076  -4.546  0.00  0.00    +0.008 A 
ATOM     25  C   UNL     1       1.881 -11.406  -4.922  0.00  0.00    +0.020 A 
ATOM     26  C   UNL     1       0.906 -12.246  -4.415  0.00  0.00    +0.041 A 
ATOM     27  C   UNL     1      -0.035 -11.756  -3.527  0.00  0.00    +0.020 A 
ATOM     28  C   UNL     1      -0.001 -10.428  -3.147  0.00  0.00    +0.008 A 
ATOM     29 CL   UNL     1       0.862 -13.914  -4.893  0.00  0.00    -0.084 Cl
ENDBRANCH  22  23
ENDBRANCH  21  22
ENDBRANCH  18  21
ENDBRANCH   8  15
BRANCH   5  30
ATOM     30  N   UNL     1      -1.275  -0.752   0.009  0.00  0.00    +0.058 N 
ATOM     31  O   UNL     1      -2.333  -0.150   0.022  0.00  0.00    -0.126 OA
ATOM     32  O   UNL     1      -1.267  -1.970   0.003  0.00  0.00    -0.126 OA
ENDBRANCH   5  30
TORSDOF 5
