REMARK  Name = ZINC06005267
REMARK  6 active torsions:
REMARK  status: ('A' for Active; 'I' for Inactive)
REMARK    1  A    between atoms: C_1  and  C_2
REMARK    2  A    between atoms: C_2  and  C_3
REMARK    3  A    between atoms: C_3  and  C_5
REMARK    4  A    between atoms: C_3  and  S_6
REMARK    5  A    between atoms: S_6  and  C_7
REMARK    6  A    between atoms: C_18  and  C_20
REMARK                            x       y       z     vdW  Elec       q    Type
REMARK                         _______ _______ _______ _____ _____    ______ ____
ROOT
ATOM      1  C   UNL     1       1.708   2.135  -0.003  0.00  0.00    +0.171 A 
ATOM      2  N   UNL     1       2.142   3.427  -0.006  0.00  0.00    -0.302 N 
ATOM      3  H   UNL     1       1.413   4.251  -0.003  0.00  0.00    +0.171 HD
ATOM      4  C   UNL     1       3.464   3.698  -0.011  0.00  0.00    +0.258 A 
ATOM      5  O   UNL     1       3.862   4.852  -0.008  0.00  0.00    -0.267 OA
ATOM      6  C   UNL     1       4.370   2.631  -0.027  0.00  0.00    +0.069 A 
ATOM      7  C   UNL     1       3.878   1.337  -0.028  0.00  0.00    +0.135 A 
ATOM      8  N   UNL     1       2.557   1.127  -0.016  0.00  0.00    -0.208 NA
ATOM      9  N   UNL     1       4.756   0.272  -0.039  0.00  0.00    -0.302 N 
ATOM     10  C   UNL     1       6.061   0.439   0.337  0.00  0.00    +0.017 C 
ATOM     11  C   UNL     1       6.624   1.665   0.363  0.00  0.00    +0.024 C 
ATOM     12  C   UNL     1       5.847   2.891  -0.044  0.00  0.00    +0.092 C 
ATOM     13  C   UNL     1       7.959   1.839   0.768  0.00  0.00    +0.162 C 
ATOM     14  O   UNL     1       8.438   2.956   0.775  0.00  0.00    -0.292 OA
ATOM     15  C   UNL     1       8.806   0.672   1.194  0.00  0.00    +0.080 C 
ATOM     16  C   UNL     1       7.899  -0.419   1.772  0.00  0.00    +0.014 C 
ATOM     17  C   UNL     1       6.854  -0.788   0.717  0.00  0.00    +0.051 C 
ATOM     18  H   UNL     1       4.409  -0.724  -0.353  0.00  0.00    +0.153 HD
ENDROOT
BRANCH  12  19
ATOM     19  C   UNL     1       6.260   3.296  -1.436  0.00  0.00    -0.035 A 
ATOM     20  C   UNL     1       6.094   2.417  -2.490  0.00  0.00    +0.007 A 
ATOM     21  C   UNL     1       6.468   2.790  -3.767  0.00  0.00    +0.038 A 
ATOM     22  C   UNL     1       7.019   4.041  -3.989  0.00  0.00    +0.123 A 
ATOM     23  C   UNL     1       7.190   4.918  -2.932  0.00  0.00    +0.038 A 
ATOM     24  C   UNL     1       6.810   4.545  -1.656  0.00  0.00    +0.007 A 
ATOM     25  F   UNL     1       7.390   4.404  -5.236  0.00  0.00    -0.205 F 
ENDBRANCH  12  19
BRANCH   1  26
ATOM     26  S   UNL     1      -0.022   1.806   0.012  0.00  0.00    -0.085 S 
BRANCH  26  27
ATOM     27  C   UNL     1       0.002  -0.004   0.002  0.00  0.00    +0.051 C 
ATOM     28  C   UNL     1       0.631  -0.513   1.301  0.00  0.00    +0.019 C 
BRANCH  27  30
ATOM     29  C   UNL     1      -2.015  -0.129  -1.467  0.00  0.00    +0.005 C 
ATOM     30  C   UNL     1      -1.429  -0.533  -0.113  0.00  0.00    +0.011 C 
ENDBRANCH  27  30
ENDBRANCH  26  27
ENDBRANCH   1  26
TORSDOF 4
