REMARK  Name = ZINC02139633
REMARK  10 active torsions:
REMARK  status: ('A' for Active; 'I' for Inactive)
REMARK    1  A    between atoms: C_1  and  C_2
REMARK    2  A    between atoms: C_2  and  O_3
REMARK    3  A    between atoms: O_3  and  C_4
REMARK    4  A    between atoms: C_4  and  C_6
REMARK    5  A    between atoms: C_7  and  N_18
REMARK    6  A    between atoms: C_10  and  O_16
REMARK    7  A    between atoms: O_16  and  C_17
REMARK    8  A    between atoms: C_19  and  C_21
REMARK    9  A    between atoms: C_21  and  C_23
REMARK   10  A    between atoms: C_21  and  N_65
REMARK                            x       y       z     vdW  Elec       q    Type
REMARK                         _______ _______ _______ _____ _____    ______ ____
ROOT
ATOM      1  N   UNL     1      -0.100   0.793   5.713  0.00  0.00    -0.284 N 
ATOM      2  C   UNL     1       0.047   0.096   4.569  0.00  0.00    +0.203 C 
ATOM      3  O   UNL     1      -0.929  -0.339   3.995  0.00  0.00    -0.277 OA
ATOM      4  H   UNL     1       0.682   1.060   6.222  0.00  0.00    +0.155 HD
ENDROOT
BRANCH   1   6
ATOM      5  C   UNL     1      -1.962   0.724   7.344  0.00  0.00    +0.147 A 
ATOM      6  C   UNL     1      -1.372   1.129   6.164  0.00  0.00    +0.073 A 
ATOM      7  C   UNL     1      -2.344   1.988   5.483  0.00  0.00    +0.025 A 
ATOM      8  C   UNL     1      -2.325   2.689   4.272  0.00  0.00    +0.057 A 
ATOM      9  C   UNL     1      -3.425   3.430   3.896  0.00  0.00    +0.121 A 
ATOM     10  C   UNL     1      -4.551   3.482   4.715  0.00  0.00    +0.047 A 
ATOM     11  C   UNL     1      -4.585   2.790   5.904  0.00  0.00    +0.030 A 
ATOM     12  C   UNL     1      -3.483   2.039   6.306  0.00  0.00    +0.049 A 
ATOM     13  N   UNL     1      -3.232   1.274   7.424  0.00  0.00    -0.348 N 
ATOM     14  H   UNL     1      -3.852   1.141   8.158  0.00  0.00    +0.166 HD
BRANCH   5  15
ATOM     15  C   UNL     1      -1.366  -0.119   8.316  0.00  0.00    +0.358 C 
ATOM     16  O   UNL     1      -0.304  -0.665   8.080  0.00  0.00    -0.243 OA
BRANCH  15  17
ATOM     17  O   UNL     1      -1.976  -0.315   9.504  0.00  0.00    -0.460 OA
BRANCH  17  19
ATOM     18  C   UNL     1      -2.154  -1.276  11.714  0.00  0.00    +0.048 C 
ATOM     19  C   UNL     1      -1.319  -1.176  10.436  0.00  0.00    +0.229 C 
ENDBRANCH  17  19
ENDBRANCH  15  17
ENDBRANCH   5  15
BRANCH   9  20
ATOM     20  O   UNL     1      -3.412   4.113   2.720  0.00  0.00    -0.495 OA
ATOM     21  C   UNL     1      -4.584   4.861   2.390  0.00  0.00    +0.277 C 
ENDBRANCH   9  20
ENDBRANCH   1   6
BRANCH   2  22
ATOM     22  C   UNL     1       1.423  -0.143   4.003  0.00  0.00    +0.016 C 
ATOM     23  C   UNL     1       2.264  -0.918   5.019  0.00  0.00    -0.004 C 
BRANCH  22  37
ATOM     24  C   UNL     1       2.623  -1.073   2.120  0.00  0.00    -0.073 C 
ATOM     25  C   UNL     1       2.505  -1.827   0.805  0.00  0.00    -0.007 C 
ATOM     26  C   UNL     1       1.819  -3.180   1.014  0.00  0.00    +0.011 C 
ATOM     27  C   UNL     1       0.459  -2.913   1.669  0.00  0.00    +0.020 C 
ATOM     28  C   UNL     1       0.711  -2.238   3.028  0.00  0.00    -0.068 C 
ATOM     29  C   UNL     1      -0.321  -1.938   0.815  0.00  0.00    +0.023 A 
ATOM     30  C   UNL     1      -1.677  -2.007   0.866  0.00  0.00    +0.022 A 
ATOM     31  C   UNL     1      -2.463  -1.094   0.154  0.00  0.00    +0.007 A 
ATOM     32  C   UNL     1      -1.844  -0.126  -0.581  0.00  0.00    +0.070 A 
ATOM     33  C   UNL     1      -0.444  -0.084  -0.614  0.00  0.00    +0.251 A 
ATOM     34  O   UNL     1       0.120   0.813  -1.220  0.00  0.00    -0.268 OA
ATOM     35  N   UNL     1       0.292  -1.030   0.021  0.00  0.00    -0.312 N 
ATOM     36  C   UNL     1       1.734  -1.024  -0.229  0.00  0.00    +0.126 C 
ATOM     37  N   UNL     1       1.299  -0.910   2.747  0.00  0.00    +0.388 N 
ATOM     38  H   UNL     1       0.683  -0.400   2.103  0.00  0.00    -0.081 HD
ENDBRANCH  22  37
ENDBRANCH   2  22
TORSDOF 7
