REMARK  Name = ZINC35968400
REMARK  11 active torsions:
REMARK  status: ('A' for Active; 'I' for Inactive)
REMARK    1  A    between atoms: C_1  and  C_2
REMARK    2  A    between atoms: C_2  and  C_3
REMARK    3  A    between atoms: C_2  and  C_4
REMARK    4  A    between atoms: C_4  and  N_5
REMARK    5  A    between atoms: C_6  and  C_8
REMARK    6  A    between atoms: C_8  and  C_10
REMARK    7  A    between atoms: C_8  and  N_16
REMARK    8  A    between atoms: C_22  and  C_29
REMARK    9  A    between atoms: N_27  and  C_28
REMARK   10  A    between atoms: C_33  and  O_35
REMARK   11  A    between atoms: O_35  and  C_36
REMARK                            x       y       z     vdW  Elec       q    Type
REMARK                         _______ _______ _______ _____ _____    ______ ____
ROOT
ATOM      1  N   UNL     1       1.085  -0.750   6.999  0.00  0.00    -0.277 N 
ATOM      2  C   UNL     1       1.025  -1.681   8.135  0.00  0.00    +0.160 C 
ATOM      3  C   UNL     1       2.299  -1.432   8.910  0.00  0.00    +0.042 C 
ATOM      4  C   UNL     1       2.964  -0.465   8.246  0.00  0.00    +0.058 C 
ATOM      5  C   UNL     1       2.238  -0.066   7.105  0.00  0.00    +0.247 C 
ATOM      6  O   UNL     1       2.606   0.789   6.320  0.00  0.00    -0.270 OA
ATOM      7  C   UNL     1       4.295  -0.011   8.809  0.00  0.00    +0.142 C 
ATOM      8  N   UNL     1       4.756  -0.668  10.044  0.00  0.00    -0.288 N 
ATOM      9  C   UNL     1       3.978  -1.622  10.592  0.00  0.00    +0.307 C 
ATOM     10  O   UNL     1       4.349  -2.170  11.612  0.00  0.00    -0.252 OA
ATOM     11  N   UNL     1       2.807  -1.985  10.051  0.00  0.00    -0.260 N 
ATOM     12  C   UNL     1       2.030  -3.031  10.719  0.00  0.00    +0.139 C 
ATOM     13  H   UNL     1       5.600  -0.421  10.453  0.00  0.00    +0.151 HD
ENDROOT
BRANCH   7  14
ATOM     14  C   UNL     1       4.206   1.470   9.078  0.00  0.00    -0.019 A 
ATOM     15  C   UNL     1       3.587   1.927  10.227  0.00  0.00    +0.006 A 
ATOM     16  C   UNL     1       3.504   3.284  10.476  0.00  0.00    +0.004 A 
ATOM     17  C   UNL     1       4.038   4.187   9.577  0.00  0.00    +0.046 A 
ATOM     18  C   UNL     1       4.660   3.731   8.424  0.00  0.00    +0.129 A 
ATOM     19  C   UNL     1       4.747   2.368   8.179  0.00  0.00    +0.052 A 
BRANCH  18  20
ATOM     20  O   UNL     1       5.186   4.617   7.538  0.00  0.00    -0.456 OA
BRANCH  20  21
ATOM     21  C   UNL     1       5.817   4.123   6.441  0.00  0.00    +0.128 A 
ATOM     22  C   UNL     1       5.076   3.646   5.369  0.00  0.00    +0.046 A 
ATOM     23  C   UNL     1       5.720   3.145   4.255  0.00  0.00    +0.004 A 
ATOM     24  C   UNL     1       7.102   3.118   4.206  0.00  0.00    +0.000 A 
ATOM     25  C   UNL     1       7.842   3.592   5.273  0.00  0.00    +0.004 A 
ATOM     26  C   UNL     1       7.203   4.101   6.387  0.00  0.00    +0.046 A 
ENDBRANCH  20  21
ENDBRANCH  18  20
ENDBRANCH   7  14
BRANCH   1  27
ATOM     27  C   UNL     1       0.080  -0.600   5.944  0.00  0.00    +0.193 C 
BRANCH  27  28
ATOM     28  C   UNL     1       0.680  -0.992   4.618  0.00  0.00    -0.018 A 
ATOM     29  C   UNL     1       1.481  -2.115   4.527  0.00  0.00    +0.006 A 
ATOM     30  C   UNL     1       2.032  -2.474   3.311  0.00  0.00    +0.000 A 
ATOM     31  C   UNL     1       1.781  -1.711   2.186  0.00  0.00    +0.000 A 
ATOM     32  C   UNL     1       0.979  -0.589   2.277  0.00  0.00    +0.000 A 
ATOM     33  C   UNL     1       0.425  -0.232   3.492  0.00  0.00    +0.006 A 
ENDBRANCH  27  28
BRANCH  27  35
ATOM     34  N   UNL     1      -2.154  -1.517   5.404  0.00  0.00    -0.313 N 
ATOM     35  C   UNL     1      -1.099  -1.490   6.244  0.00  0.00    +0.238 C 
ATOM     36  O   UNL     1      -1.100  -2.181   7.240  0.00  0.00    -0.273 OA
ATOM     37  H   UNL     1      -2.153  -0.965   4.607  0.00  0.00    +0.149 HD
BRANCH  34  38
ATOM     38  C   UNL     1      -3.300  -2.382   5.696  0.00  0.00    +0.107 C 
BRANCH  38  40
ATOM     39  C   UNL     1      -3.781  -2.740   3.270  0.00  0.00    +0.009 C 
ATOM     40  C   UNL     1      -4.350  -2.225   4.594  0.00  0.00    -0.000 C 
ATOM     41  C   UNL     1      -5.598  -3.031   4.961  0.00  0.00    +0.009 C 
ENDBRANCH  38  40
ENDBRANCH  34  38
ENDBRANCH  27  35
ENDBRANCH   1  27
TORSDOF 8
