REMARK  Name = ZINC20119076
REMARK  8 active torsions:
REMARK  status: ('A' for Active; 'I' for Inactive)
REMARK    1  A    between atoms: C_1  and  C_2
REMARK    2  A    between atoms: C_2  and  N_3
REMARK    3  A    between atoms: C_4  and  C_6
REMARK    4  A    between atoms: C_9  and  N_16
REMARK    5  A    between atoms: N_12  and  C_13
REMARK    6  A    between atoms: C_13  and  C_14
REMARK    7  A    between atoms: C_13  and  C_15
REMARK    8  A    between atoms: N_16  and  C_17
REMARK                            x       y       z     vdW  Elec       q    Type
REMARK                         _______ _______ _______ _____ _____    ______ ____
ROOT
ATOM      1  C   UNL     1      -1.411   2.145   0.516  0.00  0.00    +0.142 C 
ATOM      2  C   UNL     1      -2.324   1.748  -0.663  0.00  0.00    +0.014 C 
ATOM      3  C   UNL     1      -2.953   3.101  -1.089  0.00  0.00    -0.055 C 
ATOM      4  C   UNL     1      -1.778   4.082  -0.849  0.00  0.00    +0.070 C 
ATOM      5  N   UNL     1      -1.113   3.582   0.374  0.00  0.00    -0.291 NA
ENDROOT
BRANCH   1   7
ATOM      6  N   UNL     1       0.240   0.604   1.526  0.00  0.00    -0.314 N 
ATOM      7  C   UNL     1      -0.133   1.348   0.466  0.00  0.00    +0.230 C 
ATOM      8  O   UNL     1       0.558   1.373  -0.531  0.00  0.00    -0.274 OA
ATOM      9  H   UNL     1      -0.386   0.582   2.430  0.00  0.00    +0.149 HD
BRANCH   6  11
ATOM     10  C   UNL     1       1.667  -0.922   2.796  0.00  0.00    +0.024 C 
ATOM     11  C   UNL     1       1.480  -0.175   1.474  0.00  0.00    +0.101 C 
ENDBRANCH   6  11
ENDBRANCH   1   7
BRANCH   5  12
ATOM     12  C   UNL     1       0.337   3.815   0.318  0.00  0.00    +0.051 C 
ATOM     13  C   UNL     1       0.604   5.256  -0.122  0.00  0.00    +0.024 C 
ATOM     14  C   UNL     1       0.944   3.583   1.702  0.00  0.00    +0.024 C 
ENDBRANCH   5  12
BRANCH   3  15
ATOM     15  N   UNL     1      -3.338   3.079  -2.506  0.00  0.00    +0.384 N 
ATOM     16  H   UNL     1      -2.446   3.231  -3.131  0.00  0.00    -0.085 HD
ATOM     17  H   UNL     1      -3.794   2.108  -2.748  0.00  0.00    -0.085 HD
BRANCH  15  18
ATOM     18  C   UNL     1      -4.308   4.142  -2.804  0.00  0.00    -0.065 C 
ATOM     19  C   UNL     1      -5.720   3.649  -2.480  0.00  0.00    -0.024 C 
ATOM     20  C   UNL     1      -6.730   4.755  -2.791  0.00  0.00    +0.005 C 
ATOM     21  C   UNL     1      -6.646   5.122  -4.274  0.00  0.00    -0.010 C 
ATOM     22  C   UNL     1      -6.963   3.889  -5.122  0.00  0.00    +0.007 C 
ATOM     23  C   UNL     1      -5.953   2.782  -4.812  0.00  0.00    -0.010 C 
ATOM     24  C   UNL     1      -6.037   2.416  -3.329  0.00  0.00    +0.005 C 
ATOM     25  C   UNL     1      -4.541   3.275  -5.136  0.00  0.00    +0.005 C 
ATOM     26  C   UNL     1      -4.224   4.508  -4.287  0.00  0.00    -0.024 C 
ATOM     27  C   UNL     1      -5.234   5.614  -4.598  0.00  0.00    +0.005 C 
ENDBRANCH  15  18
ENDBRANCH   3  15
TORSDOF 5
