REMARK  Name = ZINC39686327
REMARK  12 active torsions:
REMARK  status: ('A' for Active; 'I' for Inactive)
REMARK    1  A    between atoms: C_1  and  C_2
REMARK    2  A    between atoms: C_2  and  C_3
REMARK    3  A    between atoms: C_2  and  C_4
REMARK    4  A    between atoms: C_4  and  C_5
REMARK    5  A    between atoms: C_10  and  N_13
REMARK    6  A    between atoms: C_14  and  C_16
REMARK    7  A    between atoms: C_27  and  C_29
REMARK    8  A    between atoms: C_29  and  C_31
REMARK    9  A    between atoms: C_29  and  O_34
REMARK   10  A    between atoms: C_31  and  C_32
REMARK   11  A    between atoms: C_31  and  C_33
REMARK   12  A    between atoms: O_34  and  C_35
REMARK                            x       y       z     vdW  Elec       q    Type
REMARK                         _______ _______ _______ _____ _____    ______ ____
ROOT
ATOM      1  C   UNL     1      -6.872  -6.454   2.507  0.00  0.00    +0.100 C 
ATOM      2  C   UNL     1      -7.914  -5.477   3.096  0.00  0.00    +0.121 C 
ATOM      3  N   UNL     1      -9.193  -5.861   2.453  0.00  0.00    -0.297 N 
ATOM      4  C   UNL     1      -9.151  -7.343   2.406  0.00  0.00    +0.115 C 
ATOM      5  C   UNL     1      -7.687  -7.678   2.058  0.00  0.00    -0.004 C 
ATOM      6  C   UNL     1      -7.538  -7.889   0.554  0.00  0.00    -0.010 C 
ATOM      7  C   UNL     1      -8.312  -9.145   0.141  0.00  0.00    -0.082 C 
ATOM      8  N   UNL     1      -7.790 -10.306   0.873  0.00  0.00    +0.379 N 
ATOM      9  C   UNL     1      -8.021 -10.135   2.313  0.00  0.00    -0.082 C 
ATOM     10  C   UNL     1      -7.236  -8.922   2.817  0.00  0.00    -0.010 C 
ATOM     11  C   UNL     1     -10.172  -5.048   2.011  0.00  0.00    +0.257 C 
ATOM     12  O   UNL     1     -11.203  -5.519   1.579  0.00  0.00    -0.272 OA
ATOM     13  H   UNL     1      -8.259 -11.141   0.555  0.00  0.00    -0.086 HD
ATOM     14  H   UNL     1      -6.800 -10.393   0.701  0.00  0.00    -0.086 HD
ENDROOT
BRANCH   1  16
ATOM     15  N   UNL     1      -4.901  -6.164   1.041  0.00  0.00    -0.312 N 
ATOM     16  C   UNL     1      -6.174  -5.827   1.327  0.00  0.00    +0.218 C 
ATOM     17  O   UNL     1      -6.758  -5.020   0.636  0.00  0.00    -0.275 OA
ATOM     18  H   UNL     1      -4.434  -6.809   1.594  0.00  0.00    +0.149 HD
BRANCH  15  24
ATOM     19  C   UNL     1      -1.535  -6.063  -3.171  0.00  0.00    +0.216 C 
ATOM     20  O   UNL     1      -1.906  -6.598  -4.194  0.00  0.00    -0.276 OA
ATOM     21  N   UNL     1      -2.439  -5.570  -2.301  0.00  0.00    -0.301 N 
ATOM     22  C   UNL     1      -2.005  -4.913  -1.061  0.00  0.00    +0.109 C 
ATOM     23  C   UNL     1      -2.709  -5.582   0.124  0.00  0.00    +0.041 C 
ATOM     24  C   UNL     1      -4.222  -5.554  -0.105  0.00  0.00    +0.076 C 
ATOM     25  C   UNL     1      -4.562  -6.339  -1.375  0.00  0.00    +0.041 C 
ATOM     26  C   UNL     1      -3.878  -5.673  -2.579  0.00  0.00    +0.109 C 
BRANCH  19  27
ATOM     27  C   UNL     1      -0.062  -5.949  -2.872  0.00  0.00    +0.099 C 
BRANCH  27  29
ATOM     28  C   UNL     1       2.234  -6.357  -3.768  0.00  0.00    +0.008 C 
ATOM     29  C   UNL     1       0.740  -6.583  -4.010  0.00  0.00    -0.008 C 
ATOM     30  C   UNL     1       0.452  -8.085  -4.062  0.00  0.00    +0.008 C 
ENDBRANCH  27  29
ENDBRANCH  19  27
ENDBRANCH  15  24
ENDBRANCH   1  16
BRANCH  11  31
ATOM     31  C   UNL     1      -9.987  -3.553   2.053  0.00  0.00    +0.261 C 
BRANCH  31  32
ATOM     32  C   UNL     1     -10.443  -3.021   3.413  0.00  0.00    +0.033 C 
ATOM     33  C   UNL     1      -9.693  -3.755   4.526  0.00  0.00    +0.011 C 
ATOM     34  C   UNL     1     -10.145  -1.522   3.500  0.00  0.00    +0.011 C 
ENDBRANCH  31  32
BRANCH  31  35
ATOM     35  O   UNL     1     -10.765  -2.947   1.019  0.00  0.00    -0.479 OA
BRANCH  35  36
ATOM     36  C   UNL     1     -10.254  -1.830   0.437  0.00  0.00    +0.122 A 
ATOM     37  C   UNL     1      -8.989  -1.382   0.785  0.00  0.00    +0.045 A 
ATOM     38  C   UNL     1      -8.472  -0.246   0.192  0.00  0.00    +0.004 A 
ATOM     39  C   UNL     1      -9.215   0.443  -0.749  0.00  0.00    +0.000 A 
ATOM     40  C   UNL     1     -10.476  -0.002  -1.098  0.00  0.00    +0.004 A 
ATOM     41  C   UNL     1     -10.995  -1.140  -0.512  0.00  0.00    +0.045 A 
ENDBRANCH  35  36
ENDBRANCH  31  35
ENDBRANCH  11  31
TORSDOF 8
