REMARK  Name = ZINC33692665
REMARK  10 active torsions:
REMARK  status: ('A' for Active; 'I' for Inactive)
REMARK    1  A    between atoms: C_1  and  C_2
REMARK    2  A    between atoms: C_2  and  C_3
REMARK    3  A    between atoms: C_7  and  C_39
REMARK    4  A    between atoms: C_8  and  N_9
REMARK    5  A    between atoms: C_14  and  C_31
REMARK    6  A    between atoms: C_17  and  C_22
REMARK    7  A    between atoms: C_17  and  C_28
REMARK    8  A    between atoms: C_36  and  O_37
REMARK    9  A    between atoms: O_37  and  C_38
REMARK   10  A    between atoms: C_39  and  C_40
REMARK                            x       y       z     vdW  Elec       q    Type
REMARK                         _______ _______ _______ _____ _____    ______ ____
ROOT
ATOM      1  N   UNL     1      -0.473  -3.597   0.447  0.00  0.00    -0.209 N 
ATOM      2  C   UNL     1      -1.715  -3.830   0.984  0.00  0.00    +0.229 C 
ATOM      3  O   UNL     1      -2.144  -4.873   1.428  0.00  0.00    -0.275 OA
ATOM      4  C   UNL     1      -2.399  -2.561   0.904  0.00  0.00    +0.078 C 
ATOM      5  C   UNL     1      -3.562  -1.863   1.466  0.00  0.00    -0.023 C 
ATOM      6  N   UNL     1      -3.299  -0.411   1.194  0.00  0.00    +0.398 N 
ATOM      7  C   UNL     1      -1.935  -0.306   0.581  0.00  0.00    +0.074 C 
ATOM      8  C   UNL     1      -1.218  -1.540   1.119  0.00  0.00    +0.090 C 
ATOM      9  C   UNL     1      -0.205  -2.266   0.292  0.00  0.00    +0.229 C 
ATOM     10  O   UNL     1       0.677  -1.774  -0.379  0.00  0.00    -0.275 OA
ATOM     11  H   UNL     1      -4.062  -0.024   0.502  0.00  0.00    -0.083 HD
ATOM     12  H   UNL     1      -3.340   0.152   2.138  0.00  0.00    -0.083 HD
ENDROOT
BRANCH   1  18
ATOM     13  C   UNL     1       0.319  -5.239  -1.141  0.00  0.00    -0.026 A 
ATOM     14  C   UNL     1       1.207  -6.238  -1.487  0.00  0.00    +0.005 A 
ATOM     15  C   UNL     1       2.193  -6.627  -0.598  0.00  0.00    +0.001 A 
ATOM     16  C   UNL     1       2.296  -6.013   0.636  0.00  0.00    +0.005 A 
ATOM     17  C   UNL     1       1.414  -5.009   0.986  0.00  0.00    -0.026 A 
ATOM     18  C   UNL     1       0.423  -4.616   0.096  0.00  0.00    +0.050 A 
BRANCH  13  20
ATOM     19  C   UNL     1      -0.270  -3.627  -2.931  0.00  0.00    +0.009 C 
ATOM     20  C   UNL     1      -0.759  -4.820  -2.107  0.00  0.00    +0.033 C 
ENDBRANCH  13  20
BRANCH  17  21
ATOM     21  C   UNL     1       1.526  -4.340   2.332  0.00  0.00    +0.033 C 
ATOM     22  C   UNL     1       0.575  -5.019   3.319  0.00  0.00    +0.009 C 
ENDBRANCH  17  21
ENDBRANCH   1  18
BRANCH   7  23
ATOM     23  C   UNL     1      -2.022  -0.349  -0.923  0.00  0.00    -0.047 A 
ATOM     24  C   UNL     1      -0.942   0.045  -1.690  0.00  0.00    +0.003 A 
ATOM     25  C   UNL     1      -1.021   0.000  -3.069  0.00  0.00    +0.000 A 
ATOM     26  C   UNL     1      -2.183  -0.429  -3.682  0.00  0.00    +0.000 A 
ATOM     27  C   UNL     1      -3.265  -0.818  -2.915  0.00  0.00    +0.000 A 
ATOM     28  C   UNL     1      -3.185  -0.779  -1.536  0.00  0.00    +0.003 A 
ENDBRANCH   7  23
BRANCH   5  29
ATOM     29  C   UNL     1      -3.656  -2.110   2.950  0.00  0.00    -0.019 A 
ATOM     30  C   UNL     1      -2.994  -1.279   3.833  0.00  0.00    +0.005 A 
ATOM     31  C   UNL     1      -3.085  -1.503   5.194  0.00  0.00    +0.000 A 
ATOM     32  C   UNL     1      -3.829  -2.565   5.675  0.00  0.00    +0.004 A 
ATOM     33  C   UNL     1      -4.489  -3.402   4.796  0.00  0.00    +0.046 A 
ATOM     34  C   UNL     1      -4.404  -3.176   3.429  0.00  0.00    +0.122 A 
BRANCH  34  35
ATOM     35  O   UNL     1      -5.052  -3.998   2.562  0.00  0.00    -0.495 OA
ATOM     36  C   UNL     1      -5.802  -5.075   3.127  0.00  0.00    +0.277 C 
ENDBRANCH  34  35
ENDBRANCH   5  29
BRANCH   7  37
ATOM     37  C   UNL     1      -1.242   0.953   1.036  0.00  0.00    +0.350 C 
ATOM     38  O   UNL     1      -0.051   0.948   1.238  0.00  0.00    -0.248 OA
ATOM     39  O   UNL     1      -1.949   2.080   1.217  0.00  0.00    -0.248 OA
ENDBRANCH   7  37
TORSDOF 7
