REMARK  Name = ZINC36694785
REMARK  8 active torsions:
REMARK  status: ('A' for Active; 'I' for Inactive)
REMARK    1  A    between atoms: C_1  and  C_2
REMARK    2  A    between atoms: C_7  and  C_9
REMARK    3  A    between atoms: C_7  and  C_10
REMARK    4  A    between atoms: N_13  and  C_17
REMARK    5  A    between atoms: C_17  and  C_18
REMARK    6  A    between atoms: N_20  and  C_21
REMARK    7  A    between atoms: C_21  and  C_23
REMARK    8  A    between atoms: C_21  and  C_24
REMARK                            x       y       z     vdW  Elec       q    Type
REMARK                         _______ _______ _______ _____ _____    ______ ____
ROOT
ATOM      1  C   UNL     1       1.932   1.087   0.202  0.00  0.00    +0.007 C 
ATOM      2  C   UNL     1       1.643  -0.417   0.157  0.00  0.00    -0.011 C 
ATOM      3  C   UNL     1       0.131  -0.642   0.213  0.00  0.00    +0.038 C 
ATOM      4  C   UNL     1      -0.170  -2.132   0.119  0.00  0.00    +0.113 C 
ATOM      5  C   UNL     1       0.570  -2.949   1.159  0.00  0.00    +0.041 C 
ATOM      6  C   UNL     1       2.035  -2.597   1.349  0.00  0.00    -0.032 C 
ATOM      7  C   UNL     1       2.280  -1.092   1.370  0.00  0.00    +0.009 C 
ATOM      8  C   UNL     1       2.492  -3.166   2.710  0.00  0.00    +0.011 C 
ATOM      9  C   UNL     1       2.896  -3.254   0.266  0.00  0.00    +0.011 C 
ATOM     10  C   UNL     1       0.067  -2.642  -1.281  0.00  0.00    +0.247 C 
ATOM     11  O   UNL     1       1.070  -2.544  -1.955  0.00  0.00    -0.273 OA
ATOM     12  N   UNL     1      -1.093  -3.220  -1.662  0.00  0.00    -0.215 N 
ATOM     13  C   UNL     1      -2.056  -3.031  -0.754  0.00  0.00    +0.310 C 
ATOM     14  O   UNL     1      -3.193  -3.445  -0.878  0.00  0.00    -0.252 OA
ATOM     15  N   UNL     1      -1.624  -2.334   0.311  0.00  0.00    -0.285 N 
ATOM     16  H   UNL     1      -2.147  -2.021   1.063  0.00  0.00    +0.151 HD
ENDROOT
BRANCH  12  17
ATOM     17  C   UNL     1      -1.270  -3.960  -2.913  0.00  0.00    +0.213 C 
BRANCH  17  18
ATOM     18  C   UNL     1      -0.948  -5.415  -2.686  0.00  0.00    +0.231 C 
ATOM     19  O   UNL     1      -0.604  -5.795  -1.587  0.00  0.00    -0.274 OA
ATOM     20  N   UNL     1      -1.041  -6.292  -3.705  0.00  0.00    -0.307 N 
ATOM     21  H   UNL     1      -1.316  -5.988  -4.584  0.00  0.00    +0.149 HD
BRANCH  20  22
ATOM     22  C   UNL     1      -0.728  -7.706  -3.484  0.00  0.00    +0.102 C 
ATOM     23  C   UNL     1      -1.981  -8.437  -2.998  0.00  0.00    +0.033 C 
BRANCH  22  24
ATOM     24  C   UNL     1      -0.256  -8.324  -4.775  0.00  0.00    -0.009 A 
ATOM     25  C   UNL     1      -0.677  -7.804  -5.985  0.00  0.00    +0.007 A 
ATOM     26  C   UNL     1      -0.244  -8.370  -7.169  0.00  0.00    +0.000 A 
ATOM     27  C   UNL     1       0.610  -9.456  -7.145  0.00  0.00    +0.001 A 
ATOM     28  C   UNL     1       1.032  -9.977  -5.936  0.00  0.00    +0.020 A 
ATOM     29  C   UNL     1       0.604  -9.407  -4.750  0.00  0.00    +0.046 A 
ATOM     30 CL   UNL     1       1.139 -10.056  -3.232  0.00  0.00    -0.083 Cl
ENDBRANCH  22  24
ENDBRANCH  20  22
ENDBRANCH  17  18
ENDBRANCH  12  17
TORSDOF 4
