REMARK  Name = ZINC60204159
REMARK  9 active torsions:
REMARK  status: ('A' for Active; 'I' for Inactive)
REMARK    1  A    between atoms: C_1  and  C_2
REMARK    2  A    between atoms: C_5  and  N_9
REMARK    3  A    between atoms: C_10  and  C_12
REMARK    4  A    between atoms: C_12  and  N_13
REMARK    5  A    between atoms: C_14  and  C_16
REMARK    6  A    between atoms: C_16  and  N_17
REMARK    7  A    between atoms: C_22  and  C_29
REMARK    8  A    between atoms: C_25  and  C_27
REMARK    9  A    between atoms: C_25  and  C_28
REMARK                            x       y       z     vdW  Elec       q    Type
REMARK                         _______ _______ _______ _____ _____    ______ ____
ROOT
ATOM      1  N   UNL     1      -0.277  -6.836  -3.609  0.00  0.00    -0.305 N 
ATOM      2  C   UNL     1      -0.366  -8.179  -3.674  0.00  0.00    +0.231 C 
ATOM      3  O   UNL     1      -0.357  -8.837  -2.656  0.00  0.00    -0.274 OA
ATOM      4  H   UNL     1      -0.285  -6.309  -4.424  0.00  0.00    +0.149 HD
ENDROOT
BRANCH   1   5
ATOM      5  C   UNL     1      -0.169  -6.171  -2.308  0.00  0.00    +0.200 C 
BRANCH   5   7
ATOM      6  N   UNL     1       0.022  -3.860  -1.447  0.00  0.00    -0.283 N 
ATOM      7  C   UNL     1      -0.084  -4.680  -2.511  0.00  0.00    +0.234 C 
ATOM      8  O   UNL     1      -0.112  -4.218  -3.632  0.00  0.00    -0.274 OA
ATOM      9  H   UNL     1       0.124  -4.231  -0.557  0.00  0.00    +0.155 HD
BRANCH   6  14
ATOM     10  C   UNL     1      -0.133   1.766  -2.174  0.00  0.00    +0.044 C 
ATOM     11  C   UNL     1      -0.092   0.272  -1.980  0.00  0.00    -0.049 A 
ATOM     12  C   UNL     1      -0.592  -0.565  -2.961  0.00  0.00    +0.005 A 
ATOM     13  C   UNL     1      -0.556  -1.935  -2.787  0.00  0.00    +0.025 A 
ATOM     14  C   UNL     1      -0.016  -2.472  -1.626  0.00  0.00    +0.052 A 
ATOM     15  C   UNL     1       0.487  -1.629  -0.643  0.00  0.00    +0.062 A 
ATOM     16  C   UNL     1       0.452  -0.260  -0.825  0.00  0.00    +0.025 A 
ATOM     17 CL   UNL     1       1.163  -2.295   0.811  0.00  0.00    -0.082 Cl
ENDBRANCH   6  14
ENDBRANCH   5   7
ENDBRANCH   1   5
BRANCH   2  18
ATOM     18  C   UNL     1      -0.477  -8.863  -5.013  0.00  0.00    +0.213 C 
BRANCH  18  19
ATOM     19  N   UNL     1      -0.560 -10.312  -4.815  0.00  0.00    -0.215 N 
ATOM     20  C   UNL     1       0.510 -11.132  -4.764  0.00  0.00    +0.247 C 
ATOM     21  O   UNL     1       1.678 -10.823  -4.869  0.00  0.00    -0.273 OA
ATOM     22  C   UNL     1      -0.054 -12.518  -4.548  0.00  0.00    +0.113 C 
ATOM     23  C   UNL     1       0.314 -13.429  -5.714  0.00  0.00    +0.038 C 
ATOM     24  C   UNL     1      -0.291 -14.817  -5.491  0.00  0.00    -0.011 C 
ATOM     25  C   UNL     1       0.240 -15.399  -4.180  0.00  0.00    +0.009 C 
ATOM     26  C   UNL     1      -0.157 -14.487  -3.017  0.00  0.00    -0.032 C 
ATOM     27  C   UNL     1       0.449 -13.097  -3.231  0.00  0.00    +0.041 C 
ATOM     28  C   UNL     1       0.366 -15.075  -1.705  0.00  0.00    +0.011 C 
ATOM     29  C   UNL     1      -1.681 -14.374  -2.955  0.00  0.00    +0.011 C 
ATOM     30  C   UNL     1       0.097 -15.736  -6.652  0.00  0.00    +0.007 C 
ATOM     31  N   UNL     1      -1.506 -12.308  -4.497  0.00  0.00    -0.285 N 
ATOM     32  C   UNL     1      -1.706 -10.986  -4.658  0.00  0.00    +0.310 C 
ATOM     33  O   UNL     1      -2.803 -10.464  -4.662  0.00  0.00    -0.252 OA
ATOM     34  H   UNL     1      -2.187 -12.987  -4.370  0.00  0.00    +0.151 HD
ENDBRANCH  18  19
ENDBRANCH   2  18
TORSDOF 5
