REMARK  Name = ZINC08990757
REMARK  9 active torsions:
REMARK  status: ('A' for Active; 'I' for Inactive)
REMARK    1  A    between atoms: C_1  and  C_2
REMARK    2  A    between atoms: C_4  and  C_29
REMARK    3  A    between atoms: C_6  and  N_28
REMARK    4  A    between atoms: C_7  and  C_11
REMARK    5  A    between atoms: C_11  and  N_13
REMARK    6  A    between atoms: C_20  and  N_24
REMARK    7  A    between atoms: C_25  and  C_27
REMARK    8  A    between atoms: C_29  and  O_30
REMARK    9  A    between atoms: O_30  and  C_31
REMARK                            x       y       z     vdW  Elec       q    Type
REMARK                         _______ _______ _______ _____ _____    ______ ____
ROOT
ATOM      1  C   UNL     1      -0.297  -6.053   2.029  0.00  0.00    +0.278 C 
ATOM      2  O   UNL     1      -0.415  -6.968   1.230  0.00  0.00    -0.267 OA
ENDROOT
BRANCH   1   3
ATOM      3  N   UNL     1      -0.105  -6.317   3.330  0.00  0.00    -0.152 NA
ATOM      4  C   UNL     1      -0.043  -7.574   3.749  0.00  0.00    +0.164 A 
ATOM      5  N   UNL     1       0.138  -8.045   5.016  0.00  0.00    -0.335 N 
ATOM      6  H   UNL     1       0.242  -7.422   5.752  0.00  0.00    +0.168 HD
ATOM      7  C   UNL     1       0.173  -9.408   5.255  0.00  0.00    +0.055 A 
ATOM      8  C   UNL     1       0.350 -10.055   6.491  0.00  0.00    +0.028 A 
ATOM      9  C   UNL     1       0.363 -11.425   6.577  0.00  0.00    +0.025 A 
ATOM     10  C   UNL     1       0.203 -12.219   5.446  0.00  0.00    +0.035 A 
ATOM     11  C   UNL     1       0.027 -11.606   4.212  0.00  0.00    +0.040 A 
ATOM     12  C   UNL     1       0.013 -10.234   4.133  0.00  0.00    +0.040 A 
ATOM     13  S   UNL     1      -0.185  -9.079   2.797  0.00  0.00    -0.052 S 
BRANCH  10  14
ATOM     14  N   UNL     1       0.220 -13.616   5.550  0.00  0.00    -0.286 N 
ATOM     15  C   UNL     1      -0.263 -14.216   6.656  0.00  0.00    +0.214 C 
ATOM     16  O   UNL     1      -0.799 -13.554   7.519  0.00  0.00    -0.276 OA
ATOM     17  C   UNL     1      -0.137 -15.708   6.820  0.00  0.00    +0.109 C 
ATOM     18  H   UNL     1       0.580 -14.152   4.826  0.00  0.00    +0.155 HD
ENDBRANCH  10  14
ENDBRANCH   1   3
BRANCH   1  25
ATOM     19  C   UNL     1      -0.582   1.509   0.080  0.00  0.00    +0.065 C 
ATOM     20  C   UNL     1      -0.584   0.002   0.071  0.00  0.00    +0.040 A 
ATOM     21  C   UNL     1      -0.761  -0.680  -1.124  0.00  0.00    +0.029 A 
ATOM     22  C   UNL     1      -0.765  -2.054  -1.147  0.00  0.00    -0.009 A 
ATOM     23  C   UNL     1      -0.586  -2.762   0.067  0.00  0.00    +0.034 A 
ATOM     24  C   UNL     1      -0.554  -4.200   0.285  0.00  0.00    +0.054 A 
ATOM     25  C   UNL     1      -0.365  -4.663   1.566  0.00  0.00    +0.099 A 
ATOM     26  S   UNL     1      -0.223  -3.171   2.528  0.00  0.00    -0.062 S 
ATOM     27  C   UNL     1      -0.414  -1.976   1.229  0.00  0.00    +0.111 A 
ATOM     28  N   UNL     1      -0.413  -0.660   1.198  0.00  0.00    -0.245 NA
BRANCH  24  29
ATOM     29  N   UNL     1      -0.711  -5.085  -0.776  0.00  0.00    -0.356 N 
ATOM     30  H   UNL     1      -0.844  -4.745  -1.675  0.00  0.00    +0.142 HD
ATOM     31  H   UNL     1      -0.688  -6.042  -0.618  0.00  0.00    +0.142 HD
ENDBRANCH  24  29
BRANCH  22  32
ATOM     32  C   UNL     1      -0.957  -2.797  -2.444  0.00  0.00    +0.195 C 
BRANCH  32  33
ATOM     33  O   UNL     1      -1.114  -1.860  -3.511  0.00  0.00    -0.378 OA
ATOM     34  C   UNL     1      -1.304  -2.464  -4.792  0.00  0.00    +0.194 C 
ENDBRANCH  32  33
ENDBRANCH  22  32
ENDBRANCH   1  25
TORSDOF 6
