REMARK  Name = ZINC45534279
REMARK  9 active torsions:
REMARK  status: ('A' for Active; 'I' for Inactive)
REMARK    1  A    between atoms: C_1  and  C_2
REMARK    2  A    between atoms: C_2  and  C_3
REMARK    3  A    between atoms: C_2  and  C_4
REMARK    4  A    between atoms: C_4  and  C_6
REMARK    5  A    between atoms: C_4  and  N_20
REMARK    6  A    between atoms: C_6  and  N_7
REMARK    7  A    between atoms: N_10  and  N_11
REMARK    8  A    between atoms: N_11  and  C_12
REMARK    9  A    between atoms: C_12  and  C_19
REMARK                            x       y       z     vdW  Elec       q    Type
REMARK                         _______ _______ _______ _____ _____    ______ ____
ROOT
ATOM      1  N   UNL     1      -2.554  -2.691  -0.017  0.00  0.00    -0.300 N 
ATOM      2  C   UNL     1      -2.663  -4.031   0.083  0.00  0.00    +0.313 C 
ATOM      3  O   UNL     1      -1.682  -4.704   0.335  0.00  0.00    -0.252 OA
ATOM      4  N   UNL     1      -3.859  -4.625  -0.098  0.00  0.00    -0.234 N 
ATOM      5  H   UNL     1      -3.337  -2.155  -0.218  0.00  0.00    +0.150 HD
ATOM      6  H   UNL     1      -3.937  -5.589  -0.027  0.00  0.00    +0.171 HD
ENDROOT
BRANCH   4   7
ATOM      7  N   UNL     1      -4.961  -3.870  -0.382  0.00  0.00    -0.232 NA
ATOM      8  H   UNL     1      -5.108  -3.165   0.326  0.00  0.00    +0.145 HD
BRANCH   7   9
ATOM      9  C   UNL     1      -6.152  -4.715  -0.539  0.00  0.00    +0.054 C 
ATOM     10  C   UNL     1      -5.872  -5.759  -1.618  0.00  0.00    +0.047 C 
ATOM     11  C   UNL     1      -7.196  -6.181  -2.316  0.00  0.00    +0.168 C 
ATOM     12  S   UNL     1      -8.032  -4.537  -2.410  0.00  0.00    -0.029 S 
ATOM     13  O   UNL     1      -9.434  -4.718  -2.272  0.00  0.00    -0.174 OA
ATOM     14  O   UNL     1      -7.521  -3.816  -3.523  0.00  0.00    -0.174 OA
ATOM     15  C   UNL     1      -7.360  -3.811  -0.857  0.00  0.00    +0.189 C 
ATOM     16  C   UNL     1      -6.416  -5.439   0.783  0.00  0.00    +0.031 C 
ENDBRANCH   7   9
ENDBRANCH   4   7
BRANCH   1  17
ATOM     17  C   UNL     1      -1.254  -2.045   0.180  0.00  0.00    +0.091 C 
BRANCH  17  18
ATOM     18  C   UNL     1      -1.369  -0.556  -0.153  0.00  0.00    -0.048 C 
BRANCH  18  19
ATOM     19  N   UNL     1      -1.641  -0.395  -1.587  0.00  0.00    +0.383 N 
ATOM     20  C   UNL     1      -3.013  -0.863  -1.864  0.00  0.00    -0.078 C 
ATOM     21  C   UNL     1      -3.506  -0.175  -3.112  0.00  0.00    -0.019 C 
ATOM     22  C   UNL     1      -3.297  -1.053  -4.360  0.00  0.00    -0.002 C 
ATOM     23  C   UNL     1      -1.935  -1.775  -4.329  0.00  0.00    -0.002 C 
ATOM     24  C   UNL     1      -0.824  -0.886  -3.831  0.00  0.00    -0.019 C 
ATOM     25  C   UNL     1      -0.665  -1.084  -2.309  0.00  0.00    -0.078 C 
ATOM     26  H   UNL     1      -1.583   0.586  -1.819  0.00  0.00    -0.081 HD
ENDBRANCH  18  19
BRANCH  18  28
ATOM     27  C   UNL     1      -0.134   1.614  -0.229  0.00  0.00    +0.005 C 
ATOM     28  C   UNL     1      -0.056   0.147   0.199  0.00  0.00    -0.029 C 
ATOM     29  C   UNL     1       0.175   0.069   1.710  0.00  0.00    +0.005 C 
ENDBRANCH  18  28
ENDBRANCH  17  18
ENDBRANCH   1  17
TORSDOF 6
