REMARK  Name = ZINC45547883
REMARK  6 active torsions:
REMARK  status: ('A' for Active; 'I' for Inactive)
REMARK    1  A    between atoms: C_4  and  N_7
REMARK    2  A    between atoms: C_8  and  C_10
REMARK    3  A    between atoms: N_15  and  C_17
REMARK    4  A    between atoms: C_17  and  C_18
REMARK    5  A    between atoms: N_23  and  C_24
REMARK    6  A    between atoms: C_27  and  C_30
REMARK                            x       y       z     vdW  Elec       q    Type
REMARK                         _______ _______ _______ _____ _____    ______ ____
ROOT
ATOM      1  C   UNL     1       4.984  -2.765  -0.609  0.00  0.00    +0.059 C 
ATOM      2  C   UNL     1       5.833  -2.147   0.505  0.00  0.00    +0.009 C 
ATOM      3  C   UNL     1       7.136  -2.939   0.639  0.00  0.00    -0.018 C 
ATOM      4  C   UNL     1       6.808  -4.409   0.909  0.00  0.00    -0.078 C 
ATOM      5  N   UNL     1       6.017  -4.949  -0.203  0.00  0.00    +0.386 N 
ATOM      6  C   UNL     1       4.734  -4.242  -0.294  0.00  0.00    -0.065 C 
ATOM      7  H   UNL     1       6.527  -4.830  -1.066  0.00  0.00    -0.081 HD
ENDROOT
BRANCH   1   9
ATOM      8  N   UNL     1       3.639  -0.720  -0.966  0.00  0.00    -0.285 N 
ATOM      9  C   UNL     1       3.665  -2.040  -0.698  0.00  0.00    +0.218 C 
ATOM     10  O   UNL     1       2.628  -2.646  -0.528  0.00  0.00    -0.275 OA
ATOM     11  H   UNL     1       4.462  -0.251  -1.173  0.00  0.00    +0.155 HD
BRANCH   8  15
ATOM     12  C   UNL     1       0.022   1.347  -0.906  0.00  0.00    +0.000 A 
ATOM     13  C   UNL     1       0.230   0.294  -0.034  0.00  0.00    +0.002 A 
ATOM     14  C   UNL     1       1.427  -0.393  -0.052  0.00  0.00    +0.023 A 
ATOM     15  C   UNL     1       2.424  -0.026  -0.946  0.00  0.00    +0.033 A 
ATOM     16  C   UNL     1       2.212   1.032  -1.821  0.00  0.00    +0.023 A 
ATOM     17  C   UNL     1       1.013   1.715  -1.798  0.00  0.00    +0.002 A 
ENDBRANCH   8  15
ENDBRANCH   1   9
BRANCH   5  18
ATOM     18  C   UNL     1       5.771  -6.380   0.023  0.00  0.00    +0.019 C 
BRANCH  18  19
ATOM     19  C   UNL     1       7.079  -7.128  -0.017  0.00  0.00    +0.204 C 
ATOM     20  O   UNL     1       8.114  -6.528  -0.213  0.00  0.00    -0.277 OA
ATOM     21  N   UNL     1       7.098  -8.463   0.167  0.00  0.00    -0.241 N 
ATOM     22  C   UNL     1       8.267  -9.131   0.132  0.00  0.00    +0.310 C 
ATOM     23  O   UNL     1       9.305  -8.530  -0.065  0.00  0.00    -0.252 OA
ATOM     24  N   UNL     1       8.286 -10.466   0.316  0.00  0.00    -0.269 N 
ATOM     25  H   UNL     1       6.269  -8.942   0.325  0.00  0.00    +0.159 HD
ATOM     26  H   UNL     1       7.453 -10.956   0.397  0.00  0.00    +0.156 HD
BRANCH  24  27
ATOM     27  C   UNL     1       9.504 -11.143   0.389  0.00  0.00    +0.035 A 
ATOM     28  C   UNL     1      10.608 -10.524   0.965  0.00  0.00    +0.024 A 
ATOM     29  C   UNL     1      11.812 -11.189   1.039  0.00  0.00    +0.020 A 
ATOM     30  C   UNL     1      11.923 -12.487   0.535  0.00  0.00    +0.052 A 
ATOM     31  C   UNL     1      10.811 -13.107  -0.043  0.00  0.00    +0.020 A 
ATOM     32  C   UNL     1       9.610 -12.438  -0.109  0.00  0.00    +0.024 A 
BRANCH  30  33
ATOM     33  C   UNL     1      13.173 -13.182   0.609  0.00  0.00    +0.099 C 
ATOM     34  N   UNL     1      14.165 -13.733   0.668  0.00  0.00    -0.191 NA
ENDBRANCH  30  33
ENDBRANCH  24  27
ENDBRANCH  18  19
ENDBRANCH   5  18
TORSDOF 6
