REMARK  Name = ZINC39672867
REMARK  8 active torsions:
REMARK  status: ('A' for Active; 'I' for Inactive)
REMARK    1  A    between atoms: C_1  and  C_2
REMARK    2  A    between atoms: C_2  and  C_4
REMARK    3  A    between atoms: C_2  and  O_33
REMARK    4  A    between atoms: C_8  and  C_17
REMARK    5  A    between atoms: N_19  and  C_20
REMARK    6  A    between atoms: C_20  and  C_21
REMARK    7  A    between atoms: C_21  and  N_27
REMARK    8  A    between atoms: O_33  and  C_34
REMARK                            x       y       z     vdW  Elec       q    Type
REMARK                         _______ _______ _______ _____ _____    ______ ____
ROOT
ATOM      1  C   UNL     1       1.695  -2.775   1.345  0.00  0.00    +0.256 C 
ATOM      2  O   UNL     1       2.533  -3.591   1.665  0.00  0.00    -0.272 OA
ATOM      3  N   UNL     1       1.104  -2.011   2.286  0.00  0.00    -0.297 N 
ATOM      4  C   UNL     1      -0.000  -1.040   2.105  0.00  0.00    +0.121 C 
ATOM      5  C   UNL     1      -0.895  -1.231   3.350  0.00  0.00    +0.100 C 
ATOM      6  C   UNL     1       0.037  -1.829   4.416  0.00  0.00    -0.004 C 
ATOM      7  C   UNL     1       1.408  -1.959   3.736  0.00  0.00    +0.115 C 
ATOM      8  C   UNL     1      -0.464  -3.205   4.846  0.00  0.00    -0.010 C 
ATOM      9  C   UNL     1       0.448  -3.754   5.947  0.00  0.00    -0.082 C 
ATOM     10  N   UNL     1       0.447  -2.833   7.089  0.00  0.00    +0.379 N 
ATOM     11  C   UNL     1       1.017  -1.540   6.691  0.00  0.00    -0.082 C 
ATOM     12  C   UNL     1       0.131  -0.897   5.621  0.00  0.00    -0.010 C 
ATOM     13  H   UNL     1      -0.499  -2.697   7.410  0.00  0.00    -0.086 HD
ATOM     14  H   UNL     1       1.000  -3.226   7.837  0.00  0.00    -0.086 HD
ENDROOT
BRANCH   5  15
ATOM     15  C   UNL     1      -2.024  -2.182   3.044  0.00  0.00    +0.218 C 
ATOM     16  O   UNL     1      -1.891  -3.022   2.180  0.00  0.00    -0.275 OA
ATOM     17  N   UNL     1      -3.181  -2.098   3.731  0.00  0.00    -0.313 N 
ATOM     18  H   UNL     1      -3.314  -1.381   4.370  0.00  0.00    +0.149 HD
BRANCH  17  19
ATOM     19  C   UNL     1      -4.237  -3.089   3.510  0.00  0.00    +0.126 C 
BRANCH  19  20
ATOM     20  C   UNL     1      -5.491  -2.678   4.284  0.00  0.00    +0.038 C 
ATOM     21  C   UNL     1      -5.124  -2.408   5.745  0.00  0.00    +0.024 C 
ATOM     22  C   UNL     1      -4.535  -3.677   6.365  0.00  0.00    +0.002 C 
ATOM     23  C   UNL     1      -5.567  -4.804   6.298  0.00  0.00    +0.000 C 
ATOM     24  C   UNL     1      -5.934  -5.074   4.838  0.00  0.00    +0.002 C 
ATOM     25  C   UNL     1      -6.524  -3.805   4.218  0.00  0.00    +0.024 C 
BRANCH  20  26
ATOM     26  N   UNL     1      -6.057  -1.460   3.689  0.00  0.00    -0.291 NA
ATOM     27  C   UNL     1      -6.354  -1.660   2.263  0.00  0.00    +0.113 C 
ATOM     28  C   UNL     1      -6.995  -0.389   1.698  0.00  0.00    +0.175 C 
ATOM     29  O   UNL     1      -6.119   0.719   1.918  0.00  0.00    -0.377 OA
ATOM     30  C   UNL     1      -5.809   0.943   3.296  0.00  0.00    +0.175 C 
ATOM     31  C   UNL     1      -5.156  -0.314   3.877  0.00  0.00    +0.113 C 
ENDBRANCH  20  26
ENDBRANCH  19  20
ENDBRANCH  17  19
ENDBRANCH   5  15
BRANCH   1  33
ATOM     32  C   UNL     1       1.955  -1.340  -0.661  0.00  0.00    +0.062 C 
ATOM     33  C   UNL     1       1.315  -2.614  -0.104  0.00  0.00    +0.256 C 
BRANCH  33  34
ATOM     34  O   UNL     1       1.779  -3.743  -0.846  0.00  0.00    -0.480 OA
BRANCH  34  35
ATOM     35  C   UNL     1       1.117  -4.041  -1.995  0.00  0.00    +0.122 A 
ATOM     36  C   UNL     1       0.132  -3.187  -2.471  0.00  0.00    +0.045 A 
ATOM     37  C   UNL     1      -0.539  -3.491  -3.639  0.00  0.00    +0.004 A 
ATOM     38  C   UNL     1      -0.231  -4.646  -4.334  0.00  0.00    +0.000 A 
ATOM     39  C   UNL     1       0.749  -5.499  -3.862  0.00  0.00    +0.004 A 
ATOM     40  C   UNL     1       1.428  -5.196  -2.698  0.00  0.00    +0.045 A 
ENDBRANCH  34  35
ENDBRANCH  33  34
ENDBRANCH   1  33
TORSDOF 7
