REMARK  Name = ZINC01009144
REMARK  8 active torsions:
REMARK  status: ('A' for Active; 'I' for Inactive)
REMARK    1  A    between atoms: C_1  and  C_2
REMARK    2  A    between atoms: C_9  and  N_30
REMARK    3  A    between atoms: C_10  and  C_28
REMARK    4  A    between atoms: C_11  and  C_13
REMARK    5  A    between atoms: C_15  and  C_19
REMARK    6  A    between atoms: C_16  and  C_18
REMARK    7  A    between atoms: C_19  and  O_20
REMARK    8  A    between atoms: O_20  and  C_21
REMARK                            x       y       z     vdW  Elec       q    Type
REMARK                         _______ _______ _______ _____ _____    ______ ____
ROOT
ATOM      1  C   UNL     1       0.002  -0.004   0.002  0.00  0.00    +0.068 C 
ATOM      2  C   UNL     1      -0.018   1.503   0.010  0.00  0.00    +0.068 A 
ATOM      3  C   UNL     1      -1.153   2.303   0.019  0.00  0.00    +0.050 A 
ATOM      4  C   UNL     1      -0.751   3.609   0.028  0.00  0.00    +0.222 A 
ATOM      5  N   UNL     1       0.592   3.620   0.015  0.00  0.00    -0.246 N 
ATOM      6  H   UNL     1       1.174   4.433   0.013  0.00  0.00    +0.192 HD
ATOM      7  N   UNL     1       1.033   2.288   0.004  0.00  0.00    -0.176 NA
ATOM      8  O   UNL     1      -1.626   4.645   0.044  0.00  0.00    -0.423 OA
ATOM      9  C   UNL     1      -2.914   4.370   0.332  0.00  0.00    +0.200 C 
ATOM     10  C   UNL     1      -3.432   3.121   0.347  0.00  0.00    +0.099 C 
ATOM     11  C   UNL     1      -2.605   1.899   0.034  0.00  0.00    +0.108 C 
ENDROOT
BRANCH  11  12
ATOM     12  C   UNL     1      -2.990   1.356  -1.318  0.00  0.00    +0.003 A 
ATOM     13  C   UNL     1      -3.481   0.134  -1.639  0.00  0.00    +0.019 A 
ATOM     14  C   UNL     1      -3.770  -0.146  -2.961  0.00  0.00    -0.000 A 
ATOM     15  C   UNL     1      -3.545   0.806  -3.899  0.00  0.00    -0.007 A 
ATOM     16  S   UNL     1      -2.912   2.153  -2.913  0.00  0.00    -0.097 S 
ATOM     17  C   UNL     1      -3.772   0.744  -5.388  0.00  0.00    +0.052 C 
BRANCH  14  18
ATOM     18  C   UNL     1      -4.323  -1.492  -3.354  0.00  0.00    +0.265 C 
BRANCH  18  19
ATOM     19  O   UNL     1      -4.466  -2.307  -2.190  0.00  0.00    -0.486 OA
BRANCH  19  20
ATOM     20  C   UNL     1      -4.956  -3.562  -2.371  0.00  0.00    +0.135 A 
ATOM     21  C   UNL     1      -5.297  -3.997  -3.643  0.00  0.00    +0.047 A 
ATOM     22  C   UNL     1      -5.790  -5.275  -3.826  0.00  0.00    +0.004 A 
ATOM     23  C   UNL     1      -5.953  -6.116  -2.741  0.00  0.00    +0.001 A 
ATOM     24  C   UNL     1      -5.619  -5.684  -1.471  0.00  0.00    +0.019 A 
ATOM     25  C   UNL     1      -5.121  -4.408  -1.283  0.00  0.00    +0.059 A 
ATOM     26 BR   UNL     1      -4.665  -3.816   0.454  0.00  0.00    -0.047 Br
ENDBRANCH  19  20
ENDBRANCH  18  19
ENDBRANCH  14  18
ENDBRANCH  11  12
BRANCH   9  27
ATOM     27  N   UNL     1      -3.749   5.419   0.626  0.00  0.00    -0.328 N 
ATOM     28  H   UNL     1      -3.407   6.326   0.623  0.00  0.00    +0.145 HD
ATOM     29  H   UNL     1      -4.681   5.252   0.837  0.00  0.00    +0.145 HD
ENDBRANCH   9  27
BRANCH  10  30
ATOM     30  C   UNL     1      -4.816   2.953   0.671  0.00  0.00    +0.101 C 
ATOM     31  N   UNL     1      -5.914   2.819   0.929  0.00  0.00    -0.191 NA
ENDBRANCH  10  30
TORSDOF 6
