REMARK  Name = ZINC01329248
REMARK  11 active torsions:
REMARK  status: ('A' for Active; 'I' for Inactive)
REMARK    1  A    between atoms: C_1  and  C_2
REMARK    2  A    between atoms: C_2  and  C_3
REMARK    3  A    between atoms: C_2  and  C_4
REMARK    4  A    between atoms: C_2  and  C_5
REMARK    5  A    between atoms: C_8  and  S_11
REMARK    6  A    between atoms: S_11  and  N_14
REMARK    7  A    between atoms: N_14  and  C_15
REMARK    8  A    between atoms: N_14  and  C_23
REMARK    9  A    between atoms: C_15  and  C_16
REMARK   10  A    between atoms: C_16  and  C_17
REMARK   11  A    between atoms: C_23  and  C_24
REMARK                            x       y       z     vdW  Elec       q    Type
REMARK                         _______ _______ _______ _____ _____    ______ ____
ROOT
ATOM      1  N   UNL     1      -5.458   0.908   1.435  0.00  0.00    -0.172 NA
ENDROOT
BRANCH   1   2
ATOM      2  S   UNL     1      -6.504   2.028   2.064  0.00  0.00    +0.061 S 
ATOM      3  O   UNL     1      -6.343   1.986   3.476  0.00  0.00    -0.153 OA
ATOM      4  O   UNL     1      -6.322   3.220   1.313  0.00  0.00    -0.153 OA
BRANCH   2   8
ATOM      5  C   UNL     1     -10.702   0.576   1.195  0.00  0.00    -0.042 A 
ATOM      6  C   UNL     1     -10.071   0.204   2.367  0.00  0.00    +0.006 A 
ATOM      7  C   UNL     1      -8.789   0.647   2.633  0.00  0.00    +0.029 A 
ATOM      8  C   UNL     1      -8.138   1.462   1.726  0.00  0.00    +0.106 A 
ATOM      9  C   UNL     1      -8.771   1.839   0.556  0.00  0.00    +0.029 A 
ATOM     10  C   UNL     1     -10.051   1.391   0.288  0.00  0.00    +0.006 A 
BRANCH   5  12
ATOM     11  C   UNL     1     -13.046   0.578   2.006  0.00  0.00    +0.015 C 
ATOM     12  C   UNL     1     -12.100   0.092   0.906  0.00  0.00    -0.013 C 
ATOM     13  C   UNL     1     -12.561   0.644  -0.445  0.00  0.00    +0.015 C 
ATOM     14  C   UNL     1     -12.111  -1.437   0.862  0.00  0.00    +0.015 C 
ENDBRANCH   5  12
ENDBRANCH   2   8
ENDBRANCH   1   2
BRANCH   1  15
ATOM     15  C   UNL     1      -5.006  -0.216   2.259  0.00  0.00    +0.114 C 
BRANCH  15  16
ATOM     16  C   UNL     1      -3.665   0.134   2.908  0.00  0.00    +0.052 C 
BRANCH  16  17
ATOM     17  C   UNL     1      -3.200  -1.022   3.755  0.00  0.00    -0.046 A 
ATOM     18  C   UNL     1      -3.559  -1.090   5.089  0.00  0.00    +0.003 A 
ATOM     19  C   UNL     1      -3.136  -2.153   5.865  0.00  0.00    +0.000 A 
ATOM     20  C   UNL     1      -2.347  -3.143   5.310  0.00  0.00    +0.000 A 
ATOM     21  C   UNL     1      -1.984  -3.073   3.978  0.00  0.00    +0.000 A 
ATOM     22  C   UNL     1      -2.411  -2.012   3.200  0.00  0.00    +0.003 A 
ENDBRANCH  16  17
ENDBRANCH  15  16
ENDBRANCH   1  15
BRANCH   1  23
ATOM     23  C   UNL     1      -4.985   1.042   0.056  0.00  0.00    +0.150 C 
BRANCH  23  24
ATOM     24  C   UNL     1      -3.658   1.756   0.046  0.00  0.00    +0.033 A 
ATOM     25  C   UNL     1      -2.505   1.040   0.031  0.00  0.00    +0.020 A 
ATOM     26  C   UNL     1      -1.233   1.762   0.018  0.00  0.00    +0.003 A 
ATOM     27  C   UNL     1      -0.013   1.076   0.008  0.00  0.00    +0.059 A 
ATOM     28  C   UNL     1       1.169   1.783   0.001  0.00  0.00    +0.167 A 
ATOM     29  C   UNL     1       1.153   3.184   0.007  0.00  0.00    +0.168 A 
ATOM     30  C   UNL     1      -0.048   3.870   0.022  0.00  0.00    +0.075 A 
ATOM     31  C   UNL     1      -1.248   3.171   0.030  0.00  0.00    +0.053 A 
ATOM     32  N   UNL     1      -2.456   3.839   0.046  0.00  0.00    -0.322 N 
ATOM     33  H   UNL     1      -2.466   4.839   0.051  0.00  0.00    +0.169 HD
ATOM     34  C   UNL     1      -3.619   3.165   0.054  0.00  0.00    +0.254 A 
ATOM     35  O   UNL     1      -4.667   3.788   0.069  0.00  0.00    -0.268 OA
ATOM     36  O   UNL     1       2.442   3.631  -0.003  0.00  0.00    -0.453 OA
ATOM     37  C   UNL     1       3.244   2.506   0.399  0.00  0.00    +0.466 C 
ATOM     38  O   UNL     1       2.469   1.365  -0.013  0.00  0.00    -0.453 OA
ENDBRANCH  23  24
ENDBRANCH   1  23
TORSDOF 8
