REMARK  Name = ZINC16009815
REMARK  3 active torsions:
REMARK  status: ('A' for Active; 'I' for Inactive)
REMARK    1  A    between atoms: C_7  and  C_11
REMARK    2  A    between atoms: C_11  and  C_12
REMARK    3  A    between atoms: N_20  and  C_23
REMARK                            x       y       z     vdW  Elec       q    Type
REMARK                         _______ _______ _______ _____ _____    ______ ____
ROOT
ATOM      1  C   UNL     1       0.236  -3.589  -1.455  0.00  0.00    +0.072 C 
ATOM      2  C   UNL     1      -0.655  -4.849  -1.485  0.00  0.00    +0.108 C 
ATOM      3  C   UNL     1      -1.734  -4.549  -2.563  0.00  0.00    +0.123 C 
ATOM      4  C   UNL     1      -3.019  -4.504  -1.765  0.00  0.00    +0.233 C 
ATOM      5  O   UNL     1      -4.122  -4.300  -2.225  0.00  0.00    -0.274 OA
ATOM      6  N   UNL     1      -2.748  -4.723  -0.474  0.00  0.00    -0.207 N 
ATOM      7  C   UNL     1      -1.441  -4.935  -0.197  0.00  0.00    +0.232 C 
ATOM      8  O   UNL     1      -0.969  -5.155   0.898  0.00  0.00    -0.274 OA
ATOM      9  C   UNL     1      -1.383  -3.149  -3.080  0.00  0.00    +0.136 C 
ATOM     10  N   UNL     1      -0.622  -2.498  -1.988  0.00  0.00    -0.295 NA
ATOM     11  C   UNL     1      -0.600  -3.216  -4.361  0.00  0.00    +0.003 A 
ATOM     12  C   UNL     1       0.605  -3.786  -4.705  0.00  0.00    +0.008 A 
ATOM     13  C   UNL     1       1.078  -3.676  -6.001  0.00  0.00    +0.000 A 
ATOM     14  C   UNL     1       0.336  -2.993  -6.948  0.00  0.00    +0.002 A 
ATOM     15  C   UNL     1      -0.871  -2.420  -6.607  0.00  0.00    +0.023 A 
ATOM     16  C   UNL     1      -1.354  -2.525  -5.304  0.00  0.00    +0.039 A 
ATOM     17  N   UNL     1      -2.527  -2.038  -4.723  0.00  0.00    -0.283 N 
ATOM     18  C   UNL     1      -2.619  -2.361  -3.419  0.00  0.00    +0.243 C 
ATOM     19  O   UNL     1      -3.524  -2.073  -2.664  0.00  0.00    -0.273 OA
ATOM     20  H   UNL     1      -1.236  -2.138  -1.272  0.00  0.00    +0.124 HD
ATOM     21  H   UNL     1      -3.197  -1.527  -5.203  0.00  0.00    +0.155 HD
ENDROOT
BRANCH   6  22
ATOM     22  C   UNL     1      -3.741  -4.740   0.517  0.00  0.00    +0.079 A 
ATOM     23  C   UNL     1      -4.379  -5.929   0.843  0.00  0.00    +0.027 A 
ATOM     24  C   UNL     1      -5.356  -5.943   1.819  0.00  0.00    +0.002 A 
ATOM     25  C   UNL     1      -5.701  -4.774   2.472  0.00  0.00    +0.003 A 
ATOM     26  C   UNL     1      -5.068  -3.587   2.151  0.00  0.00    +0.040 A 
ATOM     27  C   UNL     1      -4.085  -3.567   1.179  0.00  0.00    +0.145 A 
ATOM     28  F   UNL     1      -3.463  -2.408   0.869  0.00  0.00    -0.204 F 
ENDBRANCH   6  22
BRANCH   1  29
ATOM     29  C   UNL     1       0.666  -3.275  -0.021  0.00  0.00    +0.056 C 
BRANCH  29  36
ATOM     30  C   UNL     1      -0.017   1.362   0.009  0.00  0.00    +0.001 A 
ATOM     31  C   UNL     1       1.170   2.083   0.002  0.00  0.00    +0.002 A 
ATOM     32  C   UNL     1       2.386   1.436  -0.013  0.00  0.00    +0.026 A 
ATOM     33  C   UNL     1       2.428   0.046  -0.021  0.00  0.00    +0.047 A 
ATOM     34  C   UNL     1       1.223  -0.681  -0.013  0.00  0.00    +0.003 A 
ATOM     35  C   UNL     1       0.002  -0.004   0.002  0.00  0.00    +0.010 A 
ATOM     36  C   UNL     1       1.604  -2.095  -0.025  0.00  0.00    -0.021 A 
ATOM     37  C   UNL     1       2.945  -2.141  -0.038  0.00  0.00    +0.087 A 
ATOM     38  N   UNL     1       3.455  -0.871  -0.036  0.00  0.00    -0.360 N 
ATOM     39  H   UNL     1       4.399  -0.650  -0.044  0.00  0.00    +0.165 HD
ENDBRANCH  29  36
ENDBRANCH   1  29
TORSDOF 3
