REMARK  Name = ZINC20611656
REMARK  5 active torsions:
REMARK  status: ('A' for Active; 'I' for Inactive)
REMARK    1  A    between atoms: C_1  and  C_2
REMARK    2  A    between atoms: C_5  and  N_9
REMARK    3  A    between atoms: C_12  and  C_19
REMARK    4  A    between atoms: C_25  and  O_31
REMARK    5  A    between atoms: O_31  and  C_32
REMARK                            x       y       z     vdW  Elec       q    Type
REMARK                         _______ _______ _______ _____ _____    ______ ____
ROOT
ATOM      1  N   UNL     1       0.057  -4.173  -0.022  0.00  0.00    -0.229 N 
ATOM      2  C   UNL     1       0.168  -4.847   1.139  0.00  0.00    +0.267 A 
ATOM      3  O   UNL     1       0.253  -4.243   2.195  0.00  0.00    -0.267 OA
ATOM      4  C   UNL     1       0.186  -6.253   1.126  0.00  0.00    +0.073 A 
ATOM      5  C   UNL     1       0.090  -6.905  -0.068  0.00  0.00    +0.260 A 
ATOM      6  N   UNL     1      -0.022  -6.179  -1.227  0.00  0.00    -0.274 N 
ATOM      7  H   UNL     1      -0.091  -6.639  -2.078  0.00  0.00    +0.173 HD
ATOM      8  C   UNL     1      -0.042  -4.834  -1.189  0.00  0.00    +0.337 A 
ATOM      9  O   UNL     1      -0.147  -4.208  -2.226  0.00  0.00    -0.246 OA
ATOM     10  O   UNL     1       0.105  -8.254  -0.109  0.00  0.00    -0.267 OA
ENDROOT
BRANCH   4  11
ATOM     11  C   UNL     1       0.310  -7.028   2.412  0.00  0.00    +0.018 C 
ATOM     12  C   UNL     1       1.653  -6.749   3.044  0.00  0.00    +0.011 A 
ATOM     13  C   UNL     1       1.810  -6.534   4.371  0.00  0.00    -0.022 A 
ATOM     14  C   UNL     1       3.217  -6.301   4.603  0.00  0.00    +0.006 A 
ATOM     15  C   UNL     1       3.958  -6.026   5.758  0.00  0.00    +0.056 A 
ATOM     16  C   UNL     1       5.325  -5.855   5.598  0.00  0.00    +0.121 A 
ATOM     17  C   UNL     1       5.935  -5.951   4.354  0.00  0.00    +0.047 A 
ATOM     18  C   UNL     1       5.219  -6.222   3.201  0.00  0.00    +0.030 A 
ATOM     19  C   UNL     1       3.844  -6.398   3.334  0.00  0.00    +0.047 A 
ATOM     20  N   UNL     1       2.865  -6.671   2.417  0.00  0.00    -0.359 N 
ATOM     21  H   UNL     1       3.010  -6.792   1.465  0.00  0.00    +0.166 HD
ATOM     22  C   UNL     1       0.666  -6.557   5.353  0.00  0.00    +0.018 C 
ATOM     23  C   UNL     1      -0.533  -7.223   4.662  0.00  0.00    -0.076 C 
ATOM     24  N   UNL     1      -0.748  -6.610   3.345  0.00  0.00    +0.388 N 
ATOM     25  H   UNL     1      -0.733  -5.605   3.439  0.00  0.00    -0.084 HD
ATOM     26  H   UNL     1      -1.645  -6.896   2.982  0.00  0.00    -0.084 HD
BRANCH  16  27
ATOM     27  O   UNL     1       6.089  -5.586   6.690  0.00  0.00    -0.495 OA
ATOM     28  C   UNL     1       7.492  -5.418   6.475  0.00  0.00    +0.277 C 
ENDBRANCH  16  27
ENDBRANCH   4  11
BRANCH   1  33
ATOM     29  C   UNL     1      -0.018   1.503   0.016  0.00  0.00    +0.045 C 
ATOM     30  C   UNL     1       0.002  -0.004   0.005  0.00  0.00    -0.032 A 
ATOM     31  C   UNL     1      -1.182  -0.711   0.108  0.00  0.00    +0.007 A 
ATOM     32  C   UNL     1      -1.167  -2.092   0.099  0.00  0.00    +0.027 A 
ATOM     33  C   UNL     1       0.039  -2.771  -0.013  0.00  0.00    +0.056 A 
ATOM     34  C   UNL     1       1.226  -2.060  -0.117  0.00  0.00    +0.046 A 
ATOM     35  C   UNL     1       1.205  -0.678  -0.113  0.00  0.00    +0.046 A 
ATOM     36 CL   UNL     1       2.688   0.213  -0.249  0.00  0.00    -0.083 Cl
ENDBRANCH   1  33
TORSDOF 3
