REMARK  Name = ZINC02435159
REMARK  5 active torsions:
REMARK  status: ('A' for Active; 'I' for Inactive)
REMARK    1  A    between atoms: C_1  and  C_2
REMARK    2  A    between atoms: C_2  and  C_38
REMARK    3  A    between atoms: C_6  and  C_29
REMARK    4  A    between atoms: C_11  and  C_18
REMARK    5  A    between atoms: C_27  and  O_28
REMARK                            x       y       z     vdW  Elec       q    Type
REMARK                         _______ _______ _______ _____ _____    ______ ____
ROOT
ATOM      1  C   UNL     1      -0.019   1.526   0.010  0.00  0.00    +0.012 C 
ATOM      2  C   UNL     1       0.002  -0.004   0.002  0.00  0.00    -0.021 C 
ATOM      3  C   UNL     1      -1.431  -0.538   0.039  0.00  0.00    +0.081 C 
ATOM      4  C   UNL     1      -1.409  -2.048   0.069  0.00  0.00    +0.115 C 
ATOM      5  C   UNL     1      -0.397  -2.708   0.664  0.00  0.00    +0.045 C 
ATOM      6  C   UNL     1      -0.381  -4.217   0.695  0.00  0.00    +0.094 C 
ATOM      7  C   UNL     1      -1.300  -4.766  -0.351  0.00  0.00    +0.071 A 
ATOM      8  C   UNL     1      -1.203  -6.090  -0.804  0.00  0.00    +0.167 A 
ATOM      9  N   UNL     1      -0.409  -7.086  -0.492  0.00  0.00    -0.206 NA
ATOM     10  C   UNL     1      -0.730  -8.161  -1.223  0.00  0.00    +0.186 A 
ATOM     11  N   UNL     1      -1.744  -7.865  -2.022  0.00  0.00    -0.143 NA
ATOM     12  N   UNL     1      -2.077  -6.540  -1.779  0.00  0.00    -0.201 N 
ATOM     13  C   UNL     1      -3.024  -5.719  -2.299  0.00  0.00    +0.229 A 
ATOM     14  N   UNL     1      -3.095  -4.487  -1.855  0.00  0.00    -0.201 NA
ATOM     15  C   UNL     1      -2.279  -3.989  -0.914  0.00  0.00    +0.229 A 
ATOM     16  O   UNL     1      -2.427  -2.707  -0.514  0.00  0.00    -0.441 OA
ATOM     17  C   UNL     1       0.673  -2.019   1.264  0.00  0.00    +0.164 C 
ATOM     18  O   UNL     1       1.556  -2.649   1.811  0.00  0.00    -0.292 OA
ATOM     19  C   UNL     1       0.743  -0.516   1.242  0.00  0.00    +0.086 C 
ATOM     20  C   UNL     1       0.709  -0.502  -1.260  0.00  0.00    +0.012 C 
ENDROOT
BRANCH  10  21
ATOM     21  C   UNL     1      -0.054  -9.478  -1.151  0.00  0.00    +0.063 A 
ATOM     22  C   UNL     1       1.011  -9.667  -0.256  0.00  0.00    +0.016 A 
ATOM     23  C   UNL     1       1.648 -10.863  -0.170  0.00  0.00    +0.009 A 
ATOM     24  C   UNL     1       1.244 -11.938  -0.984  0.00  0.00    -0.014 A 
ATOM     25  C   UNL     1       1.889 -13.184  -0.911  0.00  0.00    +0.008 A 
ATOM     26  C   UNL     1       1.476 -14.205  -1.711  0.00  0.00    +0.001 A 
ATOM     27  C   UNL     1       0.420 -14.034  -2.605  0.00  0.00    +0.001 A 
ATOM     28  C   UNL     1      -0.228 -12.841  -2.703  0.00  0.00    +0.012 A 
ATOM     29  C   UNL     1       0.171 -11.764  -1.893  0.00  0.00    +0.024 A 
ATOM     30  C   UNL     1      -0.482 -10.518  -1.965  0.00  0.00    +0.135 A 
BRANCH  30  31
ATOM     31  O   UNL     1      -1.515 -10.334  -2.825  0.00  0.00    -0.505 OA
ATOM     32  H   UNL     1      -1.247 -10.024  -3.701  0.00  0.00    +0.292 HD
ENDBRANCH  30  31
ENDBRANCH  10  21
BRANCH   6  33
ATOM     33  C   UNL     1      -0.834  -4.693   2.052  0.00  0.00    -0.035 A 
ATOM     34  C   UNL     1      -2.095  -4.365   2.513  0.00  0.00    +0.004 A 
ATOM     35  C   UNL     1      -2.511  -4.802   3.757  0.00  0.00    +0.000 A 
ATOM     36  C   UNL     1      -1.665  -5.566   4.540  0.00  0.00    +0.000 A 
ATOM     37  C   UNL     1      -0.405  -5.895   4.077  0.00  0.00    +0.000 A 
ATOM     38  C   UNL     1       0.009  -5.462   2.832  0.00  0.00    +0.004 A 
ENDBRANCH   6  33
TORSDOF 3
