REMARK  Name = ZINC02800251
REMARK  5 active torsions:
REMARK  status: ('A' for Active; 'I' for Inactive)
REMARK    1  A    between atoms: C_1  and  C_2
REMARK    2  A    between atoms: C_2  and  N_3
REMARK    3  A    between atoms: C_6  and  C_8
REMARK    4  A    between atoms: C_17  and  C_26
REMARK    5  A    between atoms: C_19  and  C_23
REMARK                            x       y       z     vdW  Elec       q    Type
REMARK                         _______ _______ _______ _____ _____    ______ ____
ROOT
ATOM      1  C   UNL     1       5.666   2.660  -0.592  0.00  0.00    +0.162 A 
ATOM      2  N   UNL     1       5.400   3.994  -0.731  0.00  0.00    -0.305 N 
ATOM      3  H   UNL     1       6.145   4.646  -0.869  0.00  0.00    +0.170 HD
ATOM      4  C   UNL     1       4.116   4.419  -0.681  0.00  0.00    +0.266 A 
ATOM      5  O   UNL     1       3.843   5.602  -0.801  0.00  0.00    -0.267 OA
ATOM      6  C   UNL     1       3.110   3.465  -0.486  0.00  0.00    +0.104 A 
ATOM      7  C   UNL     1       3.412   2.110  -0.346  0.00  0.00    +0.095 A 
ATOM      8  N   UNL     1       4.728   1.769  -0.410  0.00  0.00    -0.226 NA
ATOM      9  C   UNL     1       2.264   1.211  -0.147  0.00  0.00    +0.042 A 
ATOM     10  C   UNL     1       2.286  -0.204   0.021  0.00  0.00    -0.004 A 
ATOM     11  C   UNL     1       1.082  -0.874   0.197  0.00  0.00    +0.038 A 
ATOM     12  C   UNL     1      -0.109  -0.171   0.206  0.00  0.00    +0.108 A 
ATOM     13  N   UNL     1      -0.116   1.140   0.050  0.00  0.00    -0.239 NA
ATOM     14  C   UNL     1       0.998   1.822  -0.120  0.00  0.00    +0.112 A 
ATOM     15  S   UNL     1       1.344   3.548  -0.356  0.00  0.00    -0.062 S 
ENDROOT
BRANCH  10  16
ATOM     16  C   UNL     1       3.568  -0.947   0.009  0.00  0.00    -0.017 A 
ATOM     17  C   UNL     1       3.767  -1.986  -0.899  0.00  0.00    +0.008 A 
ATOM     18  C   UNL     1       4.965  -2.670  -0.910  0.00  0.00    +0.001 A 
ATOM     19  C   UNL     1       5.964  -2.334  -0.014  0.00  0.00    +0.000 A 
ATOM     20  C   UNL     1       5.771  -1.308   0.893  0.00  0.00    +0.001 A 
ATOM     21  C   UNL     1       4.579  -0.612   0.909  0.00  0.00    +0.008 A 
ENDBRANCH  10  16
BRANCH   1  25
ATOM     22  N   UNL     1       9.270   2.164  -0.748  0.00  0.00    -0.271 N 
ATOM     23  C   UNL     1       8.862   0.877  -0.711  0.00  0.00    +0.109 A 
ATOM     24  C   UNL     1       7.513   0.868  -0.649  0.00  0.00    +0.052 A 
ATOM     25  C   UNL     1       7.071   2.207  -0.649  0.00  0.00    +0.128 A 
ATOM     26  N   UNL     1       8.135   2.984  -0.715  0.00  0.00    -0.168 NA
BRANCH  22  28
ATOM     27  C   UNL     1      10.830   3.551  -2.023  0.00  0.00    +0.029 C 
ATOM     28  C   UNL     1      10.660   2.623  -0.819  0.00  0.00    +0.140 C 
ENDBRANCH  22  28
ENDBRANCH   1  25
BRANCH  12  29
ATOM     29  C   UNL     1      -1.410  -0.907   0.398  0.00  0.00    +0.390 C 
ATOM     30  F   UNL     1      -2.434  -0.226  -0.269  0.00  0.00    -0.202 F 
ATOM     31  F   UNL     1      -1.294  -2.201  -0.122  0.00  0.00    -0.202 F 
ENDBRANCH  12  29
TORSDOF 4
