REMARK  Name = ZINC12551476
REMARK  9 active torsions:
REMARK  status: ('A' for Active; 'I' for Inactive)
REMARK    1  A    between atoms: C_4  and  C_7
REMARK    2  A    between atoms: C_7  and  C_9
REMARK    3  A    between atoms: C_7  and  N_50
REMARK    4  A    between atoms: N_11  and  C_12
REMARK    5  A    between atoms: C_15  and  N_19
REMARK    6  A    between atoms: C_22  and  C_23
REMARK    7  A    between atoms: C_22  and  N_50
REMARK    8  A    between atoms: C_26  and  S_29
REMARK    9  A    between atoms: S_29  and  N_32
REMARK                            x       y       z     vdW  Elec       q    Type
REMARK                         _______ _______ _______ _____ _____    ______ ____
ROOT
ATOM      1  C   UNL     1       1.141   3.608   0.007  0.00  0.00    +0.048 C 
ENDROOT
BRANCH   1   5
ATOM      2  C   UNL     1       1.193  -0.663  -0.046  0.00  0.00    +0.000 A 
ATOM      3  C   UNL     1      -0.012   0.013  -0.021  0.00  0.00    +0.000 A 
ATOM      4  C   UNL     1      -0.029   1.395  -0.004  0.00  0.00    +0.002 A 
ATOM      5  C   UNL     1       1.159   2.101  -0.011  0.00  0.00    -0.053 A 
ATOM      6  C   UNL     1       2.365   1.425  -0.036  0.00  0.00    +0.002 A 
ATOM      7  C   UNL     1       2.382   0.043  -0.053  0.00  0.00    +0.000 A 
ENDBRANCH   1   5
BRANCH   1   8
ATOM      8  C   UNL     1       1.400   4.097   1.409  0.00  0.00    +0.207 C 
ATOM      9  O   UNL     1       2.359   4.803   1.637  0.00  0.00    -0.277 OA
ATOM     10  N   UNL     1       0.566   3.749   2.408  0.00  0.00    -0.285 N 
ATOM     11  H   UNL     1      -0.236   3.239   2.215  0.00  0.00    +0.155 HD
BRANCH  10  12
ATOM     12  C   UNL     1       0.857   4.124   3.725  0.00  0.00    +0.052 A 
ATOM     13  C   UNL     1       1.478   5.339   3.981  0.00  0.00    +0.027 A 
ATOM     14  C   UNL     1       1.764   5.706   5.282  0.00  0.00    +0.034 A 
ATOM     15  C   UNL     1       1.433   4.865   6.329  0.00  0.00    +0.128 A 
ATOM     16  C   UNL     1       0.814   3.655   6.078  0.00  0.00    +0.054 A 
ATOM     17  C   UNL     1       0.520   3.283   4.779  0.00  0.00    +0.064 A 
ATOM     18 CL   UNL     1      -0.263   1.766   4.465  0.00  0.00    -0.082 Cl
BRANCH  15  19
ATOM     19  N   UNL     1       1.741   5.263   7.721  0.00  0.00    +0.056 N 
ATOM     20  O   UNL     1       2.285   6.330   7.943  0.00  0.00    -0.126 OA
ATOM     21  O   UNL     1       1.450   4.524   8.644  0.00  0.00    -0.126 OA
ENDBRANCH  15  19
ENDBRANCH  10  12
ENDBRANCH   1   8
BRANCH   1  22
ATOM     22  N   UNL     1       2.194   4.124  -0.888  0.00  0.00    +0.392 N 
ATOM     23  H   UNL     1       3.007   3.498  -0.851  0.00  0.00    -0.084 HD
ATOM     24  H   UNL     1       2.471   5.063  -0.579  0.00  0.00    -0.084 HD
BRANCH  22  25
ATOM     25  C   UNL     1       1.698   4.195  -2.276  0.00  0.00    -0.045 C 
BRANCH  25  26
ATOM     26  C   UNL     1       2.793   4.724  -3.165  0.00  0.00    -0.064 A 
ATOM     27  C   UNL     1       2.908   6.084  -3.384  0.00  0.00    +0.003 A 
ATOM     28  C   UNL     1       3.915   6.570  -4.197  0.00  0.00    +0.029 A 
ATOM     29  C   UNL     1       4.801   5.696  -4.798  0.00  0.00    +0.105 A 
ATOM     30  C   UNL     1       4.682   4.335  -4.584  0.00  0.00    +0.029 A 
ATOM     31  C   UNL     1       3.678   3.849  -3.767  0.00  0.00    +0.003 A 
BRANCH  29  32
ATOM     32  S   UNL     1       6.082   6.315  -5.838  0.00  0.00    +0.056 S 
ATOM     33  O   UNL     1       6.313   7.660  -5.440  0.00  0.00    -0.153 OA
ATOM     34  O   UNL     1       7.111   5.335  -5.842  0.00  0.00    -0.153 OA
BRANCH  32  35
ATOM     35  N   UNL     1       5.477   6.374  -7.378  0.00  0.00    -0.204 NA
ATOM     36  H   UNL     1       5.801   7.043  -8.001  0.00  0.00    +0.144 HD
ATOM     37  H   UNL     1       4.798   5.739  -7.657  0.00  0.00    +0.144 HD
ENDBRANCH  32  35
ENDBRANCH  29  32
ENDBRANCH  25  26
ENDBRANCH  22  25
ENDBRANCH   1  22
TORSDOF 9
