REMARK  Name = ZINC35828133
REMARK  8 active torsions:
REMARK  status: ('A' for Active; 'I' for Inactive)
REMARK    1  A    between atoms: C_1  and  C_2
REMARK    2  A    between atoms: C_2  and  C_3
REMARK    3  A    between atoms: C_2  and  C_4
REMARK    4  A    between atoms: C_4  and  C_5
REMARK    5  A    between atoms: C_8  and  C_22
REMARK    6  A    between atoms: N_24  and  C_25
REMARK    7  A    between atoms: C_28  and  O_31
REMARK    8  A    between atoms: O_31  and  C_32
REMARK                            x       y       z     vdW  Elec       q    Type
REMARK                         _______ _______ _______ _____ _____    ______ ____
ROOT
ATOM      1  C   UNL     1      -1.055  -2.184  -0.516  0.00  0.00    -0.069 C 
ATOM      2  C   UNL     1      -2.559  -2.551  -0.458  0.00  0.00    -0.004 C 
ATOM      3  C   UNL     1      -2.582  -4.004  -0.990  0.00  0.00    +0.076 C 
ATOM      4  C   UNL     1      -1.290  -4.146  -1.802  0.00  0.00    +0.049 C 
ATOM      5  N   UNL     1      -0.582  -2.855  -1.756  0.00  0.00    +0.394 N 
ATOM      6  C   UNL     1      -0.429  -5.255  -1.260  0.00  0.00    -0.027 A 
ATOM      7  C   UNL     1       0.168  -5.476  -0.039  0.00  0.00    +0.019 A 
ATOM      8  C   UNL     1       0.919  -6.620   0.167  0.00  0.00    +0.018 A 
ATOM      9  C   UNL     1       1.068  -7.539  -0.857  0.00  0.00    +0.017 A 
ATOM     10  C   UNL     1       0.471  -7.321  -2.081  0.00  0.00    +0.024 A 
ATOM     11  C   UNL     1      -0.286  -6.171  -2.296  0.00  0.00    +0.036 A 
ATOM     12  N   UNL     1      -0.975  -5.731  -3.429  0.00  0.00    -0.286 N 
ATOM     13  C   UNL     1      -1.590  -4.551  -3.223  0.00  0.00    +0.211 C 
ATOM     14  O   UNL     1      -2.256  -3.933  -4.026  0.00  0.00    -0.277 OA
ATOM     15 BR   UNL     1       1.742  -6.926   1.842  0.00  0.00    -0.050 Br
ATOM     16  H   UNL     1      -0.819  -2.300  -2.565  0.00  0.00    -0.083 HD
ATOM     17  H   UNL     1      -1.007  -6.219  -4.266  0.00  0.00    +0.155 HD
ATOM     18  H   UNL     1       0.415  -3.003  -1.714  0.00  0.00    -0.083 HD
ENDROOT
BRANCH   3  19
ATOM     19  C   UNL     1      -3.785  -4.221  -1.871  0.00  0.00    +0.220 C 
ATOM     20  O   UNL     1      -4.310  -3.278  -2.424  0.00  0.00    -0.275 OA
ATOM     21  N   UNL     1      -4.278  -5.463  -2.045  0.00  0.00    -0.285 N 
ATOM     22  H   UNL     1      -3.900  -6.209  -1.552  0.00  0.00    +0.155 HD
BRANCH  21  23
ATOM     23  C   UNL     1      -5.336  -5.679  -2.938  0.00  0.00    +0.034 A 
ATOM     24  C   UNL     1      -5.389  -6.850  -3.683  0.00  0.00    +0.027 A 
ATOM     25  C   UNL     1      -6.433  -7.061  -4.562  0.00  0.00    +0.047 A 
ATOM     26  C   UNL     1      -7.427  -6.105  -4.702  0.00  0.00    +0.120 A 
ATOM     27  C   UNL     1      -7.375  -4.935  -3.959  0.00  0.00    +0.047 A 
ATOM     28  C   UNL     1      -6.335  -4.724  -3.074  0.00  0.00    +0.027 A 
BRANCH  26  29
ATOM     29  O   UNL     1      -8.454  -6.314  -5.568  0.00  0.00    -0.495 OA
ATOM     30  C   UNL     1      -9.443  -5.287  -5.662  0.00  0.00    +0.277 C 
ENDBRANCH  26  29
ENDBRANCH  21  23
ENDBRANCH   3  19
BRANCH   1  31
ATOM     31  C   UNL     1      -0.873  -0.668  -0.620  0.00  0.00    -0.013 C 
BRANCH  31  33
ATOM     32  C   UNL     1       0.803   1.167  -0.871  0.00  0.00    +0.007 C 
ATOM     33  C   UNL     1       0.620  -0.334  -0.642  0.00  0.00    -0.019 C 
ATOM     34  C   UNL     1       1.250  -0.727   0.696  0.00  0.00    +0.007 C 
ENDBRANCH  31  33
ENDBRANCH   1  31
TORSDOF 5
