REMARK  Name = ZINC05342844
REMARK  8 active torsions:
REMARK  status: ('A' for Active; 'I' for Inactive)
REMARK    1  A    between atoms: C_1  and  C_2
REMARK    2  A    between atoms: C_4  and  C_30
REMARK    3  A    between atoms: C_5  and  O_29
REMARK    4  A    between atoms: C_6  and  C_8
REMARK    5  A    between atoms: N_16  and  C_26
REMARK    6  A    between atoms: C_17  and  C_19
REMARK    7  A    between atoms: C_26  and  C_27
REMARK    8  A    between atoms: C_27  and  O_28
REMARK                            x       y       z     vdW  Elec       q    Type
REMARK                         _______ _______ _______ _____ _____    ______ ____
ROOT
ATOM      1  C   UNL     1      -0.370  -3.455   2.665  0.00  0.00    +0.075 A 
ATOM      2  C   UNL     1       0.802  -3.879   3.204  0.00  0.00    +0.035 A 
ATOM      3  C   UNL     1       0.468  -4.484   4.436  0.00  0.00    +0.153 A 
ATOM      4  N   UNL     1      -0.841  -4.393   4.565  0.00  0.00    -0.168 NA
ATOM      5  N   UNL     1      -1.353  -3.793   3.550  0.00  0.00    -0.276 N 
ATOM      6  H   UNL     1      -2.298  -3.610   3.430  0.00  0.00    +0.189 HD
ATOM      7  C   UNL     1       1.715  -4.961   5.060  0.00  0.00    +0.268 C 
ATOM      8  O   UNL     1       1.781  -5.530   6.132  0.00  0.00    -0.268 OA
ATOM      9  N   UNL     1       2.770  -4.678   4.276  0.00  0.00    -0.283 N 
ATOM     10  C   UNL     1       2.297  -3.990   3.070  0.00  0.00    +0.144 C 
ENDROOT
BRANCH   1  16
ATOM     11  C   UNL     1      -1.507   0.678   0.111  0.00  0.00    +0.044 C 
ATOM     12  C   UNL     1      -1.094  -0.771   0.138  0.00  0.00    -0.049 A 
ATOM     13  C   UNL     1      -0.880  -1.449  -1.050  0.00  0.00    +0.010 A 
ATOM     14  C   UNL     1      -0.500  -2.778  -1.036  0.00  0.00    -0.008 A 
ATOM     15  C   UNL     1      -0.332  -3.440   0.169  0.00  0.00    +0.129 A 
ATOM     16  C   UNL     1      -0.547  -2.757   1.372  0.00  0.00    +0.042 A 
ATOM     17  C   UNL     1      -0.924  -1.415   1.346  0.00  0.00    +0.017 A 
ATOM     18  C   UNL     1      -0.270  -3.508  -2.334  0.00  0.00    +0.047 C 
BRANCH  15  19
ATOM     19  O   UNL     1       0.041  -4.746   0.184  0.00  0.00    -0.506 OA
ATOM     20  H   UNL     1       0.996  -4.883   0.113  0.00  0.00    +0.292 HD
ENDBRANCH  15  19
ENDBRANCH   1  16
BRANCH  10  21
ATOM     21  C   UNL     1       2.648  -4.793   1.844  0.00  0.00    +0.013 A 
ATOM     22  C   UNL     1       3.159  -4.161   0.726  0.00  0.00    +0.008 A 
ATOM     23  C   UNL     1       3.482  -4.898  -0.398  0.00  0.00    +0.001 A 
ATOM     24  C   UNL     1       3.293  -6.267  -0.406  0.00  0.00    +0.003 A 
ATOM     25  C   UNL     1       2.783  -6.902   0.710  0.00  0.00    +0.039 A 
ATOM     26  C   UNL     1       2.464  -6.165   1.839  0.00  0.00    +0.129 A 
ATOM     27  F   UNL     1       1.969  -6.785   2.933  0.00  0.00    -0.205 F 
ENDBRANCH  10  21
BRANCH   9  28
ATOM     28  C   UNL     1       4.166  -5.003   4.578  0.00  0.00    +0.137 C 
BRANCH  28  29
ATOM     29  C   UNL     1       4.779  -3.885   5.424  0.00  0.00    +0.175 C 
BRANCH  29  30
ATOM     30  O   UNL     1       4.100  -3.811   6.679  0.00  0.00    -0.393 OA
ATOM     31  H   UNL     1       4.385  -3.074   7.237  0.00  0.00    +0.209 HD
ENDBRANCH  29  30
ENDBRANCH  28  29
ENDBRANCH   9  28
TORSDOF 6
