REMARK  Name = ZINC15522466
REMARK  12 active torsions:
REMARK  status: ('A' for Active; 'I' for Inactive)
REMARK    1  A    between atoms: C_1  and  C_2
REMARK    2  A    between atoms: C_2  and  C_3
REMARK    3  A    between atoms: C_6  and  C_9
REMARK    4  A    between atoms: C_9  and  C_11
REMARK    5  A    between atoms: C_9  and  N_14
REMARK    6  A    between atoms: C_11  and  C_12
REMARK    7  A    between atoms: C_11  and  C_13
REMARK    8  A    between atoms: N_14  and  C_15
REMARK    9  A    between atoms: C_15  and  C_16
REMARK   10  A    between atoms: N_18  and  C_19
REMARK   11  A    between atoms: C_22  and  N_25
REMARK   12  A    between atoms: C_26  and  C_28
REMARK                            x       y       z     vdW  Elec       q    Type
REMARK                         _______ _______ _______ _____ _____    ______ ____
ROOT
ATOM      1  C   UNL     1      -4.985  -3.914  -0.295  0.00  0.00    +0.016 C 
ENDROOT
BRANCH   1   2
ATOM      2  C   UNL     1      -5.242  -4.803  -1.484  0.00  0.00    +0.200 C 
ATOM      3  O   UNL     1      -6.001  -4.443  -2.359  0.00  0.00    -0.278 OA
ATOM      4  N   UNL     1      -4.628  -6.000  -1.576  0.00  0.00    -0.287 N 
ATOM      5  H   UNL     1      -4.080  -6.321  -0.843  0.00  0.00    +0.155 HD
BRANCH   4   6
ATOM      6  C   UNL     1      -4.781  -6.779  -2.730  0.00  0.00    +0.033 A 
ATOM      7  C   UNL     1      -4.825  -8.164  -2.632  0.00  0.00    +0.025 A 
ATOM      8  C   UNL     1      -4.976  -8.931  -3.769  0.00  0.00    +0.025 A 
ATOM      9  C   UNL     1      -5.084  -8.319  -5.011  0.00  0.00    +0.033 A 
ATOM     10  C   UNL     1      -5.041  -6.935  -5.109  0.00  0.00    +0.025 A 
ATOM     11  C   UNL     1      -4.896  -6.167  -3.971  0.00  0.00    +0.025 A 
BRANCH   9  12
ATOM     12  N   UNL     1      -5.237  -9.099  -6.165  0.00  0.00    -0.286 N 
ATOM     13  C   UNL     1      -4.680  -8.700  -7.326  0.00  0.00    +0.214 C 
ATOM     14  O   UNL     1      -3.968  -7.718  -7.351  0.00  0.00    -0.276 OA
ATOM     15  C   UNL     1      -4.940  -9.476  -8.592  0.00  0.00    +0.109 C 
ATOM     16  H   UNL     1      -5.744  -9.925  -6.129  0.00  0.00    +0.155 HD
ENDBRANCH   9  12
ENDBRANCH   4   6
ENDBRANCH   1   2
BRANCH   1  17
ATOM     17  N   UNL     1      -5.766  -2.677  -0.431  0.00  0.00    +0.389 N 
ATOM     18  H   UNL     1      -6.741  -2.907  -0.558  0.00  0.00    -0.084 HD
ATOM     19  H   UNL     1      -5.436  -2.157  -1.230  0.00  0.00    -0.084 HD
BRANCH  17  20
ATOM     20  C   UNL     1      -5.610  -1.864   0.782  0.00  0.00    -0.038 C 
BRANCH  20  24
ATOM     21  C   UNL     1      -1.544  -0.600   1.132  0.00  0.00    -0.048 A 
ATOM     22  C   UNL     1      -2.245  -0.995   2.257  0.00  0.00    +0.004 A 
ATOM     23  C   UNL     1      -3.560  -1.404   2.143  0.00  0.00    +0.002 A 
ATOM     24  C   UNL     1      -4.176  -1.417   0.906  0.00  0.00    -0.061 A 
ATOM     25  C   UNL     1      -3.476  -1.021  -0.219  0.00  0.00    +0.002 A 
ATOM     26  C   UNL     1      -2.161  -0.609  -0.105  0.00  0.00    +0.004 A 
BRANCH  21  28
ATOM     27  C   UNL     1      -0.065   1.354   1.508  0.00  0.00    +0.009 C 
ATOM     28  C   UNL     1      -0.110  -0.154   1.256  0.00  0.00    +0.032 C 
ENDBRANCH  21  28
ENDBRANCH  20  24
BRANCH  20  29
ATOM     29  C   UNL     1      -6.520  -0.637   0.694  0.00  0.00    -0.027 C 
ATOM     30  C   UNL     1      -7.964  -1.089   0.463  0.00  0.00    +0.006 C 
ATOM     31  C   UNL     1      -6.437   0.154   2.001  0.00  0.00    +0.006 C 
ENDBRANCH  20  29
ENDBRANCH  17  20
ENDBRANCH   1  17
TORSDOF 8
