REMARK  Name = ZINC16706623
REMARK  9 active torsions:
REMARK  status: ('A' for Active; 'I' for Inactive)
REMARK    1  A    between atoms: C_1  and  C_2
REMARK    2  A    between atoms: N_4  and  C_5
REMARK    3  A    between atoms: C_8  and  C_11
REMARK    4  A    between atoms: C_17  and  C_19
REMARK    5  A    between atoms: C_19  and  C_20
REMARK    6  A    between atoms: C_20  and  C_21
REMARK    7  A    between atoms: C_24  and  C_26
REMARK    8  A    between atoms: C_29  and  O_32
REMARK    9  A    between atoms: O_32  and  C_33
REMARK                            x       y       z     vdW  Elec       q    Type
REMARK                         _______ _______ _______ _____ _____    ______ ____
ROOT
ATOM      1  C   UNL     1      -6.349   5.726   3.519  0.00  0.00    +0.080 A 
ATOM      2  C   UNL     1      -6.655   6.153   2.257  0.00  0.00    +0.076 A 
ATOM      3  S   UNL     1      -5.470   5.220   1.296  0.00  0.00    -0.060 S 
ATOM      4  C   UNL     1      -4.703   4.359   2.662  0.00  0.00    +0.165 A 
ATOM      5  N   UNL     1      -5.380   4.839   3.688  0.00  0.00    -0.225 NA
ATOM      6  N   UNL     1      -3.666   3.434   2.647  0.00  0.00    -0.265 N 
ATOM      7  C   UNL     1      -3.102   3.073   1.478  0.00  0.00    +0.219 C 
ATOM      8  O   UNL     1      -3.500   3.554   0.438  0.00  0.00    -0.275 OA
ATOM      9  H   UNL     1      -3.348   3.049   3.478  0.00  0.00    +0.157 HD
ENDROOT
BRANCH   1  13
ATOM     10  C   UNL     1      -8.489   7.233   6.872  0.00  0.00    +0.033 A 
ATOM     11  C   UNL     1      -7.474   6.302   7.058  0.00  0.00    +0.024 A 
ATOM     12  C   UNL     1      -6.779   5.812   5.973  0.00  0.00    +0.012 A 
ATOM     13  C   UNL     1      -7.095   6.251   4.688  0.00  0.00    +0.001 A 
ATOM     14  C   UNL     1      -8.110   7.189   4.504  0.00  0.00    +0.012 A 
ATOM     15  C   UNL     1      -8.806   7.672   5.592  0.00  0.00    +0.024 A 
BRANCH  10  19
ATOM     16  C   UNL     1      -9.349   8.312  10.374  0.00  0.00    +0.109 C 
ATOM     17  C   UNL     1      -8.566   7.891   9.157  0.00  0.00    +0.214 C 
ATOM     18  O   UNL     1      -7.371   7.698   9.241  0.00  0.00    -0.276 OA
ATOM     19  N   UNL     1      -9.193   7.729   7.975  0.00  0.00    -0.286 N 
ATOM     20  H   UNL     1     -10.132   7.957   7.889  0.00  0.00    +0.155 HD
ENDBRANCH  10  19
ENDBRANCH   1  13
BRANCH   7  21
ATOM     21  C   UNL     1      -1.977   2.070   1.462  0.00  0.00    +0.104 C 
BRANCH  21  22
ATOM     22  C   UNL     1      -1.521   1.837   0.020  0.00  0.00    +0.083 C 
BRANCH  22  23
ATOM     23  C   UNL     1      -0.396   0.835   0.004  0.00  0.00    +0.106 A 
ATOM     24  C   UNL     1      -0.536  -0.501  -0.103  0.00  0.00    +0.045 A 
ATOM     25  C   UNL     1       0.760  -1.055  -0.082  0.00  0.00    +0.050 A 
ATOM     26  C   UNL     1       1.628  -0.015   0.037  0.00  0.00    +0.135 A 
ATOM     27  O   UNL     1       0.913   1.125   0.088  0.00  0.00    -0.460 OA
BRANCH  26  28
ATOM     28  C   UNL     1       3.101  -0.118   0.100  0.00  0.00    +0.017 A 
ATOM     29  C   UNL     1       3.718  -1.369   0.041  0.00  0.00    +0.015 A 
ATOM     30  C   UNL     1       5.093  -1.461   0.095  0.00  0.00    +0.046 A 
ATOM     31  C   UNL     1       5.863  -0.312   0.217  0.00  0.00    +0.120 A 
ATOM     32  C   UNL     1       5.252   0.934   0.281  0.00  0.00    +0.046 A 
ATOM     33  C   UNL     1       3.879   1.034   0.223  0.00  0.00    +0.015 A 
BRANCH  31  34
ATOM     34  O   UNL     1       7.217  -0.407   0.275  0.00  0.00    -0.495 OA
ATOM     35  C   UNL     1       7.779  -1.718   0.203  0.00  0.00    +0.277 C 
ENDBRANCH  31  34
ENDBRANCH  26  28
ENDBRANCH  22  23
ENDBRANCH  21  22
ENDBRANCH   7  21
TORSDOF 7
