REMARK  Name = ZINC02293263
REMARK  6 active torsions:
REMARK  status: ('A' for Active; 'I' for Inactive)
REMARK    1  A    between atoms: C_1  and  C_2
REMARK    2  A    between atoms: N_5  and  C_7
REMARK    3  A    between atoms: C_7  and  C_8
REMARK    4  A    between atoms: C_15  and  N_28
REMARK    5  A    between atoms: C_16  and  C_26
REMARK    6  A    between atoms: C_17  and  C_19
REMARK                            x       y       z     vdW  Elec       q    Type
REMARK                         _______ _______ _______ _____ _____    ______ ____
ROOT
ATOM      1  C   UNL     1      -1.969   0.143  -3.050  0.00  0.00    +0.068 C 
ATOM      2  C   UNL     1      -3.103   0.987  -2.530  0.00  0.00    +0.068 A 
ATOM      3  C   UNL     1      -3.319   1.335  -1.204  0.00  0.00    +0.049 A 
ATOM      4  C   UNL     1      -4.448   2.103  -1.145  0.00  0.00    +0.225 A 
ATOM      5  N   UNL     1      -4.917   2.231  -2.397  0.00  0.00    -0.228 N 
ATOM      6  N   UNL     1      -4.059   1.522  -3.252  0.00  0.00    -0.173 NA
ATOM      7  O   UNL     1      -4.934   2.604   0.018  0.00  0.00    -0.423 OA
ATOM      8  C   UNL     1      -4.437   2.105   1.168  0.00  0.00    +0.200 C 
ATOM      9  C   UNL     1      -3.322   1.345   1.239  0.00  0.00    +0.098 C 
ATOM     10  C   UNL     1      -2.514   0.979   0.019  0.00  0.00    +0.101 C 
ENDROOT
BRANCH  10  11
ATOM     11  C   UNL     1      -1.219   1.751   0.017  0.00  0.00    -0.034 A 
ATOM     12  C   UNL     1      -0.013   1.076   0.008  0.00  0.00    +0.005 A 
ATOM     13  C   UNL     1       1.175   1.783   0.000  0.00  0.00    +0.015 A 
ATOM     14  C   UNL     1       1.156   3.166   0.008  0.00  0.00    +0.018 A 
ATOM     15  C   UNL     1      -0.051   3.841   0.022  0.00  0.00    +0.015 A 
ATOM     16  C   UNL     1      -1.238   3.133   0.030  0.00  0.00    +0.005 A 
ATOM     17 BR   UNL     1       2.780   4.134  -0.003  0.00  0.00    -0.050 Br
ENDBRANCH  10  11
BRANCH   8  18
ATOM     18  N   UNL     1      -5.103   2.387   2.335  0.00  0.00    -0.328 N 
ATOM     19  H   UNL     1      -5.906   2.931   2.317  0.00  0.00    +0.145 HD
ATOM     20  H   UNL     1      -4.769   2.043   3.179  0.00  0.00    +0.145 HD
ENDBRANCH   8  18
BRANCH   9  21
ATOM     21  C   UNL     1      -2.893   0.868   2.519  0.00  0.00    +0.101 C 
ATOM     22  N   UNL     1      -2.553   0.489   3.535  0.00  0.00    -0.191 NA
ENDBRANCH   9  21
BRANCH   5  23
ATOM     23  C   UNL     1      -6.112   2.977  -2.798  0.00  0.00    +0.182 C 
BRANCH  23  24
ATOM     24  C   UNL     1      -7.311   2.065  -2.759  0.00  0.00    -0.026 A 
ATOM     25  C   UNL     1      -7.670   1.347  -3.885  0.00  0.00    +0.005 A 
ATOM     26  C   UNL     1      -8.767   0.507  -3.847  0.00  0.00    +0.000 A 
ATOM     27  C   UNL     1      -9.511   0.392  -2.688  0.00  0.00    +0.000 A 
ATOM     28  C   UNL     1      -9.155   1.114  -1.564  0.00  0.00    +0.000 A 
ATOM     29  C   UNL     1      -8.055   1.951  -1.600  0.00  0.00    +0.005 A 
ENDBRANCH  23  24
ENDBRANCH   5  23
TORSDOF 5
