REMARK  Name = ZINC05017810
REMARK  8 active torsions:
REMARK  status: ('A' for Active; 'I' for Inactive)
REMARK    1  A    between atoms: C_1  and  C_2
REMARK    2  A    between atoms: C_7  and  C_8
REMARK    3  A    between atoms: C_10  and  C_23
REMARK    4  A    between atoms: C_11  and  C_16
REMARK    5  A    between atoms: C_16  and  N_53
REMARK    6  A    between atoms: C_19  and  C_22
REMARK    7  A    between atoms: C_23  and  O_25
REMARK    8  A    between atoms: O_25  and  C_26
REMARK                            x       y       z     vdW  Elec       q    Type
REMARK                         _______ _______ _______ _____ _____    ______ ____
ROOT
ATOM      1  C   UNL     1      -0.364   5.632   0.117  0.00  0.00    +0.144 C 
ATOM      2  C   UNL     1       0.194   6.102   1.445  0.00  0.00    +0.076 C 
ATOM      3  C   UNL     1      -0.664   6.657   2.327  0.00  0.00    +0.008 C 
ATOM      4  N   UNL     1      -1.991   6.788   2.031  0.00  0.00    -0.274 N 
ATOM      5  C   UNL     1      -2.537   6.391   0.875  0.00  0.00    +0.304 C 
ATOM      6  O   UNL     1      -3.730   6.550   0.703  0.00  0.00    -0.252 OA
ATOM      7  N   UNL     1      -1.808   5.820  -0.104  0.00  0.00    -0.288 N 
ATOM      8  H   UNL     1      -2.570   7.192   2.696  0.00  0.00    +0.156 HD
ATOM      9  H   UNL     1      -2.224   5.539  -0.934  0.00  0.00    +0.151 HD
ENDROOT
BRANCH   1  16
ATOM     10  C   UNL     1      -0.165   4.437  -2.506  0.00  0.00    +0.044 C 
ATOM     11  C   UNL     1       0.035   3.590  -1.275  0.00  0.00    -0.045 A 
ATOM     12  C   UNL     1       0.313   2.242  -1.401  0.00  0.00    +0.004 A 
ATOM     13  C   UNL     1       0.497   1.466  -0.273  0.00  0.00    +0.000 A 
ATOM     14  C   UNL     1       0.397   2.037   0.983  0.00  0.00    +0.000 A 
ATOM     15  C   UNL     1       0.123   3.385   1.109  0.00  0.00    +0.006 A 
ATOM     16  C   UNL     1      -0.060   4.162  -0.021  0.00  0.00    -0.020 A 
ENDBRANCH   1  16
BRANCH   2  17
ATOM     17  C   UNL     1       1.568   5.965   1.751  0.00  0.00    +0.338 C 
ATOM     18  O   UNL     1       2.387   6.681   1.207  0.00  0.00    -0.245 OA
BRANCH  17  19
ATOM     19  O   UNL     1       1.971   5.038   2.646  0.00  0.00    -0.465 OA
ATOM     20  C   UNL     1       3.357   5.032   2.993  0.00  0.00    +0.280 C 
ENDBRANCH  17  19
ENDBRANCH   2  17
BRANCH   3  21
ATOM     21  C   UNL     1      -0.151   7.137   3.659  0.00  0.00    -0.026 C 
BRANCH  21  28
ATOM     22  C   UNL     1       0.541   9.281   2.773  0.00  0.00    -0.078 C 
ATOM     23  C   UNL     1       0.239  10.781   2.795  0.00  0.00    -0.016 C 
ATOM     24  C   UNL     1       0.500  11.328   4.201  0.00  0.00    -0.018 C 
ATOM     25  C   UNL     1      -0.366  10.563   5.207  0.00  0.00    -0.016 C 
ATOM     26  C   UNL     1      -0.047   9.070   5.114  0.00  0.00    -0.078 C 
ATOM     27  C   UNL     1       0.143  12.815   4.246  0.00  0.00    +0.007 C 
ATOM     28  N   UNL     1      -0.342   8.600   3.744  0.00  0.00    +0.383 N 
ATOM     29  H   UNL     1      -1.319   8.822   3.518  0.00  0.00    -0.081 HD
ENDBRANCH  21  28
ENDBRANCH   3  21
TORSDOF 5
