REMARK  Name = ZINC67273151
REMARK  6 active torsions:
REMARK  status: ('A' for Active; 'I' for Inactive)
REMARK    1  A    between atoms: C_3  and  C_26
REMARK    2  A    between atoms: N_6  and  C_8
REMARK    3  A    between atoms: C_8  and  C_9
REMARK    4  A    between atoms: C_9  and  C_10
REMARK    5  A    between atoms: C_10  and  N_11
REMARK    6  A    between atoms: C_12  and  C_14
REMARK                            x       y       z     vdW  Elec       q    Type
REMARK                         _______ _______ _______ _____ _____    ______ ____
ROOT
ATOM      1  N   UNL     1      -2.259  -4.370  -1.574  0.00  0.00    -0.315 N 
ATOM      2  C   UNL     1      -2.550  -5.684  -1.635  0.00  0.00    +0.216 C 
ATOM      3  O   UNL     1      -1.660  -6.506  -1.575  0.00  0.00    -0.276 OA
ATOM      4  H   UNL     1      -2.971  -3.712  -1.622  0.00  0.00    +0.149 HD
ENDROOT
BRANCH   2   5
ATOM      5  C   UNL     1      -3.982  -6.133  -1.777  0.00  0.00    +0.075 C 
ATOM      6  C   UNL     1      -4.796  -5.629  -0.584  0.00  0.00    +0.015 C 
ATOM      7  C   UNL     1      -6.252  -6.075  -0.736  0.00  0.00    +0.036 C 
ATOM      8  C   UNL     1      -6.315  -7.597  -0.808  0.00  0.00    +0.112 C 
ATOM      9  C   UNL     1      -5.488  -8.117  -1.979  0.00  0.00    +0.036 C 
ATOM     10  C   UNL     1      -4.035  -7.662  -1.822  0.00  0.00    +0.015 C 
ATOM     11  C   UNL     1      -5.838  -8.208   0.489  0.00  0.00    +0.244 C 
ATOM     12  O   UNL     1      -4.739  -8.101   0.989  0.00  0.00    -0.273 OA
ATOM     13  N   UNL     1      -6.892  -8.897   0.972  0.00  0.00    -0.238 N 
ATOM     14  C   UNL     1      -7.955  -8.803   0.164  0.00  0.00    +0.307 C 
ATOM     15  O   UNL     1      -9.023  -9.338   0.387  0.00  0.00    -0.252 OA
ATOM     16  N   UNL     1      -7.708  -8.048  -0.923  0.00  0.00    -0.285 N 
ATOM     17  H   UNL     1      -6.881  -9.399   1.802  0.00  0.00    +0.159 HD
ATOM     18  H   UNL     1      -8.328  -7.843  -1.641  0.00  0.00    +0.151 HD
ENDBRANCH   2   5
BRANCH   1  19
ATOM     19  C   UNL     1      -0.868  -3.933  -1.436  0.00  0.00    +0.102 C 
BRANCH  19  20
ATOM     20  C   UNL     1      -0.815  -2.405  -1.391  0.00  0.00    +0.000 C 
BRANCH  20  21
ATOM     21  C   UNL     1       0.638  -1.949  -1.247  0.00  0.00    -0.077 C 
BRANCH  21  26
ATOM     22  C   UNL     1      -0.019   1.526   0.010  0.00  0.00    -0.018 C 
ATOM     23  C   UNL     1       1.420   2.051  -0.001  0.00  0.00    +0.009 C 
ATOM     24  C   UNL     1       2.149   1.487  -1.223  0.00  0.00    +0.058 C 
ATOM     25  C   UNL     1       2.090  -0.042  -1.186  0.00  0.00    -0.066 C 
ATOM     26  N   UNL     1       0.689  -0.481  -1.204  0.00  0.00    +0.380 N 
ATOM     27  C   UNL     1       0.002  -0.004   0.002  0.00  0.00    -0.079 C 
ATOM     28  H   UNL     1       0.231  -0.107  -2.021  0.00  0.00    -0.082 HD
BRANCH  24  29
ATOM     29  C   UNL     1       3.588   1.936  -1.203  0.00  0.00    +0.212 C 
ATOM     30  O   UNL     1       4.479   1.114  -1.166  0.00  0.00    -0.276 OA
ATOM     31  N   UNL     1       3.884   3.251  -1.226  0.00  0.00    -0.329 N 
ATOM     32  H   UNL     1       3.171   3.908  -1.255  0.00  0.00    +0.145 HD
ATOM     33  H   UNL     1       4.809   3.540  -1.212  0.00  0.00    +0.145 HD
ENDBRANCH  24  29
ENDBRANCH  21  26
ENDBRANCH  20  21
ENDBRANCH  19  20
ENDBRANCH   1  19
TORSDOF 6
