REMARK  Name = ZINC40002656
REMARK  4 active torsions:
REMARK  status: ('A' for Active; 'I' for Inactive)
REMARK    1  A    between atoms: C_4  and  C_7
REMARK    2  A    between atoms: N_19  and  C_20
REMARK    3  A    between atoms: C_23  and  S_26
REMARK    4  A    between atoms: S_26  and  N_29
REMARK                            x       y       z     vdW  Elec       q    Type
REMARK                         _______ _______ _______ _____ _____    ______ ____
ROOT
ATOM      1  C   UNL     1       3.859  -0.618   0.016  0.00  0.00    +0.139 C 
ATOM      2  C   UNL     1       3.918  -1.401   1.327  0.00  0.00    -0.012 A 
ATOM      3  C   UNL     1       4.701  -1.014   2.413  0.00  0.00    +0.013 A 
ATOM      4  C   UNL     1       4.700  -1.754   3.545  0.00  0.00    +0.046 A 
ATOM      5  S   UNL     1       3.567  -3.069   3.124  0.00  0.00    -0.101 S 
ATOM      6  C   UNL     1       3.183  -2.536   1.477  0.00  0.00    -0.003 A 
ATOM      7  C   UNL     1       2.272  -3.179   0.482  0.00  0.00    +0.062 C 
ATOM      8  C   UNL     1       1.954  -2.161  -0.624  0.00  0.00    +0.115 C 
ATOM      9  N   UNL     1       3.200  -1.467  -0.986  0.00  0.00    -0.274 N 
ATOM     10  C   UNL     1       3.729  -1.607  -2.218  0.00  0.00    +0.307 C 
ATOM     11  O   UNL     1       3.131  -2.238  -3.068  0.00  0.00    -0.252 OA
ATOM     12  N   UNL     1       4.921  -1.048  -2.506  0.00  0.00    -0.269 N 
ATOM     13  H   UNL     1       5.431  -0.606  -1.810  0.00  0.00    +0.156 HD
ENDROOT
BRANCH   1  17
ATOM     14  C   UNL     1       1.614   2.972   0.576  0.00  0.00    +0.000 A 
ATOM     15  C   UNL     1       1.085   1.758   0.971  0.00  0.00    +0.000 A 
ATOM     16  C   UNL     1       1.811   0.596   0.790  0.00  0.00    +0.006 A 
ATOM     17  C   UNL     1       3.067   0.648   0.213  0.00  0.00    -0.023 A 
ATOM     18  C   UNL     1       3.595   1.863  -0.183  0.00  0.00    +0.006 A 
ATOM     19  C   UNL     1       2.869   3.025  -0.000  0.00  0.00    +0.000 A 
ENDBRANCH   1  17
BRANCH  12  20
ATOM     20  C   UNL     1       5.423  -1.105  -3.812  0.00  0.00    +0.035 A 
ATOM     21  C   UNL     1       5.204  -2.233  -4.592  0.00  0.00    +0.025 A 
ATOM     22  C   UNL     1       5.700  -2.286  -5.880  0.00  0.00    +0.030 A 
ATOM     23  C   UNL     1       6.414  -1.218  -6.392  0.00  0.00    +0.105 A 
ATOM     24  C   UNL     1       6.634  -0.094  -5.617  0.00  0.00    +0.030 A 
ATOM     25  C   UNL     1       6.135  -0.033  -4.331  0.00  0.00    +0.025 A 
BRANCH  23  26
ATOM     26  S   UNL     1       7.045  -1.290  -8.036  0.00  0.00    +0.056 S 
ATOM     27  O   UNL     1       8.143  -0.389  -8.089  0.00  0.00    -0.153 OA
ATOM     28  O   UNL     1       7.173  -2.667  -8.362  0.00  0.00    -0.153 OA
BRANCH  26  29
ATOM     29  N   UNL     1       5.878  -0.673  -9.036  0.00  0.00    -0.204 NA
ATOM     30  H   UNL     1       6.131  -0.224  -9.857  0.00  0.00    +0.144 HD
ATOM     31  H   UNL     1       4.941  -0.762  -8.800  0.00  0.00    +0.144 HD
ENDBRANCH  26  29
ENDBRANCH  23  26
ENDBRANCH  12  20
TORSDOF 4
