REMARK  Name = ZINC08000980
REMARK  4 active torsions:
REMARK  status: ('A' for Active; 'I' for Inactive)
REMARK    1  A    between atoms: C_3  and  C_6
REMARK    2  A    between atoms: C_15  and  C_16
REMARK    3  A    between atoms: C_15  and  N_52
REMARK    4  A    between atoms: N_21  and  C_22
REMARK                            x       y       z     vdW  Elec       q    Type
REMARK                         _______ _______ _______ _____ _____    ______ ____
ROOT
ATOM      1  C   UNL     1       1.121   3.540   0.010  0.00  0.00    +0.020 C 
ENDROOT
BRANCH   1  10
ATOM      2  C   UNL     1       2.524   5.499  -0.231  0.00  0.00    +0.002 C 
ATOM      3  C   UNL     1       3.974   5.972  -0.207  0.00  0.00    -0.046 A 
ATOM      4  C   UNL     1       4.405   7.182  -0.745  0.00  0.00    +0.010 A 
ATOM      5  C   UNL     1       5.713   7.523  -0.682  0.00  0.00    +0.045 A 
ATOM      6  S   UNL     1       6.421   6.115   0.161  0.00  0.00    -0.101 S 
ATOM      7  C   UNL     1       4.929   5.186   0.365  0.00  0.00    -0.010 A 
ATOM      8  C   UNL     1       4.720   3.853   1.007  0.00  0.00    +0.024 C 
ATOM      9  C   UNL     1       3.209   3.673   1.231  0.00  0.00    -0.072 C 
ATOM     10  N   UNL     1       2.513   4.031  -0.028  0.00  0.00    +0.393 N 
ATOM     11  H   UNL     1       3.001   3.585  -0.814  0.00  0.00    -0.080 HD
BRANCH   2  14
ATOM     12  C   UNL     1       0.645   6.912  -3.228  0.00  0.00    +0.008 A 
ATOM     13  C   UNL     1       1.088   6.826  -1.921  0.00  0.00    +0.010 A 
ATOM     14  C   UNL     1       1.912   5.808  -1.573  0.00  0.00    -0.019 A 
ATOM     15  S   UNL     1       2.092   4.932  -3.119  0.00  0.00    -0.103 S 
ATOM     16  C   UNL     1       1.049   5.977  -4.122  0.00  0.00    +0.045 A 
ENDBRANCH   2  14
ENDBRANCH   1  10
BRANCH   1  17
ATOM     17  C   UNL     1       1.142   2.033   0.002  0.00  0.00    +0.204 C 
ATOM     18  O   UNL     1       2.200   1.441  -0.011  0.00  0.00    -0.277 OA
ATOM     19  N   UNL     1      -0.016   1.344   0.009  0.00  0.00    -0.242 N 
ATOM     20  C   UNL     1       0.002  -0.004   0.002  0.00  0.00    +0.306 C 
ATOM     21  O   UNL     1       1.063  -0.597  -0.011  0.00  0.00    -0.252 OA
ATOM     22  N   UNL     1      -1.156  -0.694   0.009  0.00  0.00    -0.296 N 
ATOM     23  H   UNL     1      -0.863   1.817   0.016  0.00  0.00    +0.159 HD
ATOM     24  H   UNL     1      -2.002  -0.220   0.020  0.00  0.00    +0.151 HD
BRANCH  22  25
ATOM     25  C   UNL     1      -1.136  -2.159   0.001  0.00  0.00    +0.074 C 
ATOM     26  C   UNL     1      -1.017  -2.659  -1.440  0.00  0.00    +0.022 C 
ATOM     27  C   UNL     1      -0.996  -4.189  -1.448  0.00  0.00    +0.002 C 
ATOM     28  C   UNL     1      -2.291  -4.720  -0.829  0.00  0.00    +0.000 C 
ATOM     29  C   UNL     1      -2.410  -4.220   0.612  0.00  0.00    +0.002 C 
ATOM     30  C   UNL     1      -2.430  -2.690   0.621  0.00  0.00    +0.022 C 
ENDBRANCH  22  25
ENDBRANCH   1  17
TORSDOF 4
