REMARK  Name = ZINC39671720
REMARK  9 active torsions:
REMARK  status: ('A' for Active; 'I' for Inactive)
REMARK    1  A    between atoms: C_1  and  C_2
REMARK    2  A    between atoms: C_4  and  C_33
REMARK    3  A    between atoms: N_5  and  C_7
REMARK    4  A    between atoms: C_7  and  C_8
REMARK    5  A    between atoms: C_8  and  C_9
REMARK    6  A    between atoms: C_9  and  N_10
REMARK    7  A    between atoms: C_11  and  C_13
REMARK    8  A    between atoms: C_24  and  C_26
REMARK    9  A    between atoms: C_26  and  C_32
REMARK                            x       y       z     vdW  Elec       q    Type
REMARK                         _______ _______ _______ _____ _____    ______ ____
ROOT
ATOM      1  C   UNL     1       4.620  -6.753   4.043  0.00  0.00    +0.100 C 
ATOM      2  C   UNL     1       5.304  -7.254   2.752  0.00  0.00    +0.121 C 
ATOM      3  N   UNL     1       6.171  -8.371   3.197  0.00  0.00    -0.300 N 
ATOM      4  C   UNL     1       5.364  -9.079   4.220  0.00  0.00    +0.115 C 
ATOM      5  C   UNL     1       4.660  -7.953   5.004  0.00  0.00    -0.004 C 
ATOM      6  C   UNL     1       3.244  -8.378   5.379  0.00  0.00    -0.010 C 
ATOM      7  C   UNL     1       3.312  -9.535   6.380  0.00  0.00    -0.082 C 
ATOM      8  N   UNL     1       4.049  -9.108   7.575  0.00  0.00    +0.379 N 
ATOM      9  C   UNL     1       5.437  -8.790   7.220  0.00  0.00    -0.082 C 
ATOM     10  C   UNL     1       5.460  -7.602   6.255  0.00  0.00    -0.010 C 
ATOM     11  C   UNL     1       7.412  -8.674   2.768  0.00  0.00    +0.222 C 
ATOM     12  O   UNL     1       7.965  -9.675   3.172  0.00  0.00    -0.275 OA
ATOM     13  H   UNL     1       3.607  -8.290   7.967  0.00  0.00    -0.086 HD
ATOM     14  H   UNL     1       4.039  -9.852   8.258  0.00  0.00    -0.086 HD
ENDROOT
BRANCH  11  15
ATOM     15  C   UNL     1       8.113  -7.768   1.789  0.00  0.00    +0.044 C 
ATOM     16  C   UNL     1       7.237  -7.582   0.549  0.00  0.00    +0.016 C 
ATOM     17  C   UNL     1       6.982  -8.942  -0.105  0.00  0.00    +0.001 C 
ATOM     18  C   UNL     1       8.317  -9.569  -0.514  0.00  0.00    +0.000 C 
ATOM     19  C   UNL     1       9.194  -9.755   0.726  0.00  0.00    +0.001 C 
ATOM     20  C   UNL     1       9.448  -8.395   1.380  0.00  0.00    +0.016 C 
ATOM     21  C   UNL     1       8.367  -6.409   2.442  0.00  0.00    +0.021 C 
ENDBRANCH  11  15
BRANCH   1  23
ATOM     22  N   UNL     1       2.547  -5.523   4.602  0.00  0.00    -0.315 N 
ATOM     23  C   UNL     1       3.194  -6.355   3.761  0.00  0.00    +0.218 C 
ATOM     24  O   UNL     1       2.628  -6.783   2.777  0.00  0.00    -0.275 OA
ATOM     25  H   UNL     1       3.000  -5.181   5.388  0.00  0.00    +0.149 HD
BRANCH  22  26
ATOM     26  C   UNL     1       1.161  -5.136   4.327  0.00  0.00    +0.106 C 
BRANCH  26  27
ATOM     27  C   UNL     1       0.668  -4.194   5.427  0.00  0.00    +0.042 C 
BRANCH  27  28
ATOM     28  C   UNL     1      -0.780  -3.790   5.140  0.00  0.00    +0.145 C 
BRANCH  28  33
ATOM     29  C   UNL     1      -2.837  -2.138   9.411  0.00  0.00    +0.067 C 
ATOM     30  C   UNL     1      -2.157  -2.186   8.067  0.00  0.00    +0.060 A 
ATOM     31  C   UNL     1      -1.707  -1.083   7.335  0.00  0.00    +0.047 A 
ATOM     32  C   UNL     1      -1.155  -1.541   6.187  0.00  0.00    +0.036 A 
ATOM     33  N   UNL     1      -1.252  -2.887   6.193  0.00  0.00    -0.268 N 
ATOM     34  N   UNL     1      -1.880  -3.269   7.386  0.00  0.00    -0.176 NA
ATOM     35  C   UNL     1      -0.543  -0.699   5.098  0.00  0.00    +0.065 C 
ENDBRANCH  28  33
ENDBRANCH  27  28
ENDBRANCH  26  27
ENDBRANCH  22  26
ENDBRANCH   1  23
TORSDOF 6
