REMARK  Name = ZINC12159900
REMARK  7 active torsions:
REMARK  status: ('A' for Active; 'I' for Inactive)
REMARK    1  A    between atoms: C_4  and  C_7
REMARK    2  A    between atoms: C_7  and  C_8
REMARK    3  A    between atoms: N_10  and  C_11
REMARK    4  A    between atoms: C_20  and  O_22
REMARK    5  A    between atoms: C_27  and  C_28
REMARK    6  A    between atoms: C_27  and  N_69
REMARK    7  A    between atoms: N_31  and  C_33
REMARK                            x       y       z     vdW  Elec       q    Type
REMARK                         _______ _______ _______ _____ _____    ______ ____
ROOT
ATOM      1  C   UNL     1      -5.744   2.869   4.088  0.00  0.00    +0.133 C 
ATOM      2  C   UNL     1      -4.988   3.129   5.374  0.00  0.00    -0.021 A 
ATOM      3  C   UNL     1      -5.454   3.430   6.643  0.00  0.00    +0.006 A 
ATOM      4  C   UNL     1      -4.566   3.630   7.681  0.00  0.00    +0.000 A 
ATOM      5  C   UNL     1      -3.206   3.529   7.454  0.00  0.00    +0.000 A 
ATOM      6  C   UNL     1      -2.739   3.229   6.189  0.00  0.00    +0.004 A 
ATOM      7  C   UNL     1      -3.627   3.028   5.146  0.00  0.00    -0.034 A 
ATOM      8  C   UNL     1      -3.381   2.694   3.695  0.00  0.00    +0.021 C 
ATOM      9  C   UNL     1      -4.727   2.177   3.154  0.00  0.00    +0.149 C 
ATOM     10  C   UNL     1      -2.956   3.943   2.926  0.00  0.00    -0.005 C 
ATOM     11  C   UNL     1      -2.685   3.571   1.466  0.00  0.00    -0.077 C 
ATOM     12  C   UNL     1      -2.066   1.311   2.089  0.00  0.00    -0.077 C 
ATOM     13  C   UNL     1      -2.317   1.607   3.571  0.00  0.00    -0.005 C 
ATOM     14  N   UNL     1      -1.615   2.551   1.423  0.00  0.00    +0.382 N 
ATOM     15  H   UNL     1      -0.790   2.913   1.916  0.00  0.00    -0.081 HD
ENDROOT
BRANCH   1  18
ATOM     16  C   UNL     1      -7.369   4.673   3.884  0.00  0.00    +0.218 C 
ATOM     17  O   UNL     1      -8.051   4.113   4.717  0.00  0.00    -0.275 OA
ATOM     18  N   UNL     1      -6.196   4.132   3.500  0.00  0.00    -0.306 N 
ATOM     19  H   UNL     1      -5.651   4.580   2.834  0.00  0.00    +0.149 HD
BRANCH  16  20
ATOM     20  C   UNL     1      -7.834   5.972   3.280  0.00  0.00    +0.130 C 
BRANCH  20  24
ATOM     21  C   UNL     1     -11.604   7.060   4.968  0.00  0.00    +0.000 A 
ATOM     22  C   UNL     1     -10.432   7.489   5.561  0.00  0.00    +0.000 A 
ATOM     23  C   UNL     1      -9.212   7.137   5.015  0.00  0.00    +0.004 A 
ATOM     24  C   UNL     1      -9.164   6.356   3.875  0.00  0.00    -0.039 A 
ATOM     25  C   UNL     1     -10.337   5.932   3.278  0.00  0.00    +0.004 A 
ATOM     26  C   UNL     1     -11.557   6.281   3.827  0.00  0.00    +0.000 A 
ENDBRANCH  20  24
ENDBRANCH  16  20
ENDBRANCH   1  18
BRANCH   9  27
ATOM     27  O   UNL     1      -4.811   0.756   3.275  0.00  0.00    -0.389 OA
ATOM     28  H   UNL     1      -5.640   0.382   2.948  0.00  0.00    +0.210 HD
ENDBRANCH   9  27
BRANCH  14  29
ATOM     29  C   UNL     1      -1.248   2.265   0.021  0.00  0.00    -0.040 C 
BRANCH  29  30
ATOM     30  C   UNL     1      -0.017   1.395   0.010  0.00  0.00    -0.026 A 
ATOM     31  C   UNL     1       0.002  -0.004   0.002  0.00  0.00    +0.136 A 
ATOM     32  N   UNL     1       1.250  -0.397  -0.012  0.00  0.00    -0.175 NA
ATOM     33  N   UNL     1       2.068   0.741  -0.014  0.00  0.00    -0.240 N 
ATOM     34  C   UNL     1       1.265   1.829  -0.000  0.00  0.00    +0.116 A 
BRANCH  33  35
ATOM     35  C   UNL     1       3.469   0.750  -0.028  0.00  0.00    +0.065 A 
ATOM     36  C   UNL     1       4.157   1.956  -0.034  0.00  0.00    +0.028 A 
ATOM     37  C   UNL     1       5.538   1.962  -0.042  0.00  0.00    +0.002 A 
ATOM     38  C   UNL     1       6.236   0.768  -0.055  0.00  0.00    +0.000 A 
ATOM     39  C   UNL     1       5.554  -0.435  -0.055  0.00  0.00    +0.002 A 
ATOM     40  C   UNL     1       4.173  -0.447  -0.041  0.00  0.00    +0.028 A 
ENDBRANCH  33  35
ENDBRANCH  29  30
ENDBRANCH  14  29
TORSDOF 7
