REMARK  Name = ZINC18195673
REMARK  3 active torsions:
REMARK  status: ('A' for Active; 'I' for Inactive)
REMARK    1  A    between atoms: C_4  and  N_7
REMARK    2  A    between atoms: C_8  and  O_29
REMARK    3  A    between atoms: C_15  and  C_17
REMARK                            x       y       z     vdW  Elec       q    Type
REMARK                         _______ _______ _______ _____ _____    ______ ____
ROOT
ATOM      1  N   UNL     1       3.623  -0.651  -0.037  0.00  0.00    -0.199 N 
ATOM      2  C   UNL     1       3.888  -1.838   0.582  0.00  0.00    +0.222 A 
ATOM      3  C   UNL     1       5.173  -2.151   0.325  0.00  0.00    +0.067 A 
ATOM      4  C   UNL     1       5.716  -1.125  -0.483  0.00  0.00    +0.153 A 
ATOM      5  N   UNL     1       4.790  -0.238  -0.699  0.00  0.00    -0.148 NA
ATOM      6  N   UNL     1       7.044  -1.187  -0.916  0.00  0.00    -0.301 N 
ATOM      7  C   UNL     1       7.714  -2.380  -0.803  0.00  0.00    +0.017 C 
ATOM      8  C   UNL     1       7.263  -3.407  -0.052  0.00  0.00    +0.024 C 
ATOM      9  C   UNL     1       5.986  -3.336   0.759  0.00  0.00    +0.092 C 
ATOM     10  C   UNL     1       7.973  -4.620   0.008  0.00  0.00    +0.162 C 
ATOM     11  O   UNL     1       7.543  -5.524   0.699  0.00  0.00    -0.292 OA
ATOM     12  C   UNL     1       9.248  -4.829  -0.758  0.00  0.00    +0.080 C 
ATOM     13  C   UNL     1       9.225  -3.945  -2.009  0.00  0.00    +0.014 C 
ATOM     14  C   UNL     1       9.014  -2.496  -1.568  0.00  0.00    +0.051 C 
ATOM     15  H   UNL     1       7.482  -0.406  -1.288  0.00  0.00    +0.153 HD
ENDROOT
BRANCH   9  16
ATOM     16  C   UNL     1       6.328  -3.201   2.220  0.00  0.00    -0.035 A 
ATOM     17  C   UNL     1       7.054  -2.111   2.662  0.00  0.00    +0.006 A 
ATOM     18  C   UNL     1       7.368  -1.986   4.002  0.00  0.00    +0.020 A 
ATOM     19  C   UNL     1       6.956  -2.953   4.902  0.00  0.00    +0.041 A 
ATOM     20  C   UNL     1       6.229  -4.044   4.459  0.00  0.00    +0.020 A 
ATOM     21  C   UNL     1       5.911  -4.165   3.119  0.00  0.00    +0.006 A 
ATOM     22 CL   UNL     1       7.350  -2.798   6.585  0.00  0.00    -0.084 Cl
ENDBRANCH   9  16
BRANCH   1  26
ATOM     23  C   UNL     1      -0.017   1.379   0.010  0.00  0.00    +0.000 A 
ATOM     24  C   UNL     1       1.170   2.089   0.002  0.00  0.00    +0.002 A 
ATOM     25  C   UNL     1       2.377   1.419  -0.013  0.00  0.00    +0.028 A 
ATOM     26  C   UNL     1       2.400   0.031  -0.021  0.00  0.00    +0.069 A 
ATOM     27  C   UNL     1       1.206  -0.680  -0.013  0.00  0.00    +0.028 A 
ATOM     28  C   UNL     1       0.002  -0.004   0.002  0.00  0.00    +0.002 A 
ENDBRANCH   1  26
BRANCH   2  29
ATOM     29  O   UNL     1       3.016  -2.569   1.323  0.00  0.00    -0.492 OA
ATOM     30  H   UNL     1       2.512  -3.216   0.811  0.00  0.00    +0.294 HD
ENDBRANCH   2  29
TORSDOF 3
