REMARK  Name = ZINC39550688
REMARK  4 active torsions:
REMARK  status: ('A' for Active; 'I' for Inactive)
REMARK    1  A    between atoms: C_4  and  C_7
REMARK    2  A    between atoms: C_8  and  C_22
REMARK    3  A    between atoms: C_10  and  C_13
REMARK    4  A    between atoms: C_16  and  C_19
REMARK                            x       y       z     vdW  Elec       q    Type
REMARK                         _______ _______ _______ _____ _____    ______ ____
ROOT
ATOM      1  C   UNL     1       3.713  -0.650  -0.083  0.00  0.00    +0.074 A 
ATOM      2  C   UNL     1       4.001  -1.823  -0.766  0.00  0.00    +0.097 A 
ATOM      3  N   UNL     1       5.256  -2.179  -0.454  0.00  0.00    -0.227 NA
ATOM      4  C   UNL     1       5.768  -1.302   0.380  0.00  0.00    +0.139 A 
ATOM      5  N   UNL     1       4.841  -0.330   0.632  0.00  0.00    -0.337 N 
ATOM      6  H   UNL     1       4.958   0.440   1.211  0.00  0.00    +0.167 HD
ENDROOT
BRANCH   2   7
ATOM      7  C   UNL     1       3.087  -2.551  -1.675  0.00  0.00    +0.004 A 
ATOM      8  C   UNL     1       2.299  -1.852  -2.590  0.00  0.00    +0.014 A 
ATOM      9  C   UNL     1       1.445  -2.529  -3.430  0.00  0.00    +0.049 A 
ATOM     10  C   UNL     1       1.358  -3.921  -3.382  0.00  0.00    +0.154 A 
ATOM     11  C   UNL     1       2.154  -4.610  -2.475  0.00  0.00    +0.136 A 
ATOM     12  C   UNL     1       3.009  -3.944  -1.629  0.00  0.00    +0.041 A 
ATOM     13  S   UNL     1       2.065  -6.375  -2.443  0.00  0.00    +0.032 S 
ATOM     14  O   UNL     1       3.397  -6.860  -2.549  0.00  0.00    -0.164 OA
ATOM     15  O   UNL     1       1.201  -6.728  -1.373  0.00  0.00    -0.164 OA
ATOM     16  C   UNL     1       1.238  -6.809  -3.943  0.00  0.00    +0.136 A 
ATOM     17  C   UNL     1       1.263  -8.108  -4.401  0.00  0.00    +0.031 A 
ATOM     18  C   UNL     1       0.618  -8.436  -5.581  0.00  0.00    +0.002 A 
ATOM     19  C   UNL     1      -0.047  -7.455  -6.293  0.00  0.00    +0.004 A 
ATOM     20  C   UNL     1      -0.074  -6.155  -5.833  0.00  0.00    +0.048 A 
ATOM     21  C   UNL     1       0.567  -5.815  -4.643  0.00  0.00    +0.154 A 
ATOM     22  O   UNL     1       0.498  -4.545  -4.207  0.00  0.00    -0.452 OA
ENDBRANCH   2   7
BRANCH   1  26
ATOM     23  C   UNL     1       0.071   1.529  -0.195  0.00  0.00    +0.000 A 
ATOM     24  C   UNL     1       0.048   0.158  -0.006  0.00  0.00    +0.001 A 
ATOM     25  C   UNL     1       1.227  -0.556   0.032  0.00  0.00    +0.010 A 
ATOM     26  C   UNL     1       2.447   0.107  -0.122  0.00  0.00    +0.000 A 
ATOM     27  C   UNL     1       2.463   1.491  -0.314  0.00  0.00    +0.010 A 
ATOM     28  C   UNL     1       1.276   2.192  -0.349  0.00  0.00    +0.001 A 
ENDBRANCH   1  26
BRANCH   4  29
ATOM     29  C   UNL     1       7.129  -1.355   0.949  0.00  0.00    +0.017 A 
ATOM     30  C   UNL     1       7.556  -0.361   1.834  0.00  0.00    +0.012 A 
ATOM     31  C   UNL     1       8.816  -0.410   2.361  0.00  0.00    +0.016 A 
ATOM     32  C   UNL     1       9.678  -1.455   2.014  0.00  0.00    +0.063 A 
ATOM     33  C   UNL     1       9.251  -2.450   1.128  0.00  0.00    +0.016 A 
ATOM     34  C   UNL     1       7.989  -2.403   0.607  0.00  0.00    +0.012 A 
BRANCH  32  35
ATOM     35  C   UNL     1      11.037  -1.508   2.582  0.00  0.00    +0.387 C 
ATOM     36  O   UNL     1      11.411  -0.638   3.356  0.00  0.00    -0.241 OA
ATOM     37  O   UNL     1      11.791  -2.422   2.279  0.00  0.00    -0.241 OA
ENDBRANCH  32  35
ENDBRANCH   4  29
TORSDOF 4
