REMARK  Name = ZINC19122975
REMARK  5 active torsions:
REMARK  status: ('A' for Active; 'I' for Inactive)
REMARK    1  A    between atoms: C_1  and  C_2
REMARK    2  A    between atoms: C_4  and  C_7
REMARK    3  A    between atoms: C_12  and  C_13
REMARK    4  A    between atoms: C_19  and  C_21
REMARK    5  A    between atoms: C_26  and  C_27
REMARK                            x       y       z     vdW  Elec       q    Type
REMARK                         _______ _______ _______ _____ _____    ______ ____
ROOT
ATOM      1  C   UNL     1       2.733   1.255   5.290  0.00  0.00    +0.060 A 
ATOM      2  C   UNL     1       3.026   1.645   6.603  0.00  0.00    +0.127 A 
ATOM      3  N   UNL     1       2.284   2.575   7.175  0.00  0.00    -0.222 NA
ATOM      4  C   UNL     1       1.278   3.140   6.522  0.00  0.00    +0.218 A 
ATOM      5  N   UNL     1       0.972   2.802   5.277  0.00  0.00    -0.218 NA
ATOM      6  C   UNL     1       1.666   1.880   4.635  0.00  0.00    +0.060 A 
ATOM      7  N   UNL     1       0.526   4.111   7.158  0.00  0.00    -0.300 N 
ATOM      8  C   UNL     1      -0.887   3.678   7.304  0.00  0.00    +0.108 C 
ATOM      9  C   UNL     1      -1.419   4.581   8.445  0.00  0.00    +0.020 C 
ATOM     10  C   UNL     1      -0.208   4.678   9.402  0.00  0.00    +0.020 C 
ATOM     11  C   UNL     1       1.019   4.347   8.532  0.00  0.00    +0.108 C 
ENDROOT
BRANCH   6  12
ATOM     12  C   UNL     1       1.311   1.502   3.220  0.00  0.00    +0.042 C 
ATOM     13  C   UNL     1      -0.124   0.971   3.179  0.00  0.00    +0.029 C 
ATOM     14  C   UNL     1      -0.470   0.556   1.746  0.00  0.00    +0.109 C 
ATOM     15  N   UNL     1      -0.223   1.694   0.851  0.00  0.00    -0.297 N 
ATOM     16  C   UNL     1       1.097   2.339   0.876  0.00  0.00    +0.109 C 
ATOM     17  C   UNL     1       1.426   2.734   2.320  0.00  0.00    +0.029 C 
ATOM     18  C   UNL     1      -1.187   2.136   0.019  0.00  0.00    +0.250 C 
ATOM     19  O   UNL     1      -1.007   3.141  -0.641  0.00  0.00    -0.270 OA
BRANCH  18  20
ATOM     20  C   UNL     1      -2.460   1.400  -0.090  0.00  0.00    +0.077 A 
ATOM     21  C   UNL     1      -2.614   0.029  -0.116  0.00  0.00    +0.118 A 
ATOM     22  N   UNL     1      -3.928  -0.226  -0.221  0.00  0.00    -0.284 N 
ATOM     23  H   UNL     1      -4.346  -1.134  -0.257  0.00  0.00    +0.188 HD
ATOM     24  N   UNL     1      -4.614   0.993  -0.271  0.00  0.00    -0.178 NA
ATOM     25  C   UNL     1      -3.750   1.967  -0.193  0.00  0.00    +0.072 A 
ATOM     26  C   UNL     1      -4.071   3.439  -0.212  0.00  0.00    +0.068 C 
ENDBRANCH  18  20
ENDBRANCH   6  12
BRANCH   1  30
ATOM     27  C   UNL     1       6.480  -1.579   3.385  0.00  0.00    +0.069 C 
ATOM     28  C   UNL     1       5.137  -1.022   3.783  0.00  0.00    +0.081 A 
ATOM     29  C   UNL     1       4.898   0.156   4.519  0.00  0.00    +0.076 A 
ATOM     30  C   UNL     1       3.534   0.213   4.613  0.00  0.00    +0.171 A 
ATOM     31  O   UNL     1       3.068  -0.866   3.959  0.00  0.00    -0.354 OA
ATOM     32  N   UNL     1       3.970  -1.533   3.509  0.00  0.00    -0.083 NA
ENDBRANCH   1  30
TORSDOF 3
