REMARK  Name = ZINC39654028
REMARK  8 active torsions:
REMARK  status: ('A' for Active; 'I' for Inactive)
REMARK    1  A    between atoms: C_1  and  C_2
REMARK    2  A    between atoms: C_2  and  O_3
REMARK    3  A    between atoms: O_3  and  C_4
REMARK    4  A    between atoms: C_7  and  C_10
REMARK    5  A    between atoms: C_10  and  C_11
REMARK    6  A    between atoms: C_11  and  N_12
REMARK    7  A    between atoms: C_13  and  C_15
REMARK    8  A    between atoms: C_26  and  C_28
REMARK                            x       y       z     vdW  Elec       q    Type
REMARK                         _______ _______ _______ _____ _____    ______ ____
ROOT
ATOM      1  C   UNL     1      -0.999 -10.602  -3.306  0.00  0.00    +0.100 C 
ATOM      2  C   UNL     1       0.203 -10.732  -4.269  0.00  0.00    +0.121 C 
ATOM      3  N   UNL     1      -0.207 -11.773  -5.241  0.00  0.00    -0.296 N 
ATOM      4  C   UNL     1      -1.642 -11.498  -5.492  0.00  0.00    +0.115 C 
ATOM      5  C   UNL     1      -2.207 -11.105  -4.112  0.00  0.00    -0.004 C 
ATOM      6  C   UNL     1      -2.828 -12.321  -3.431  0.00  0.00    -0.010 C 
ATOM      7  C   UNL     1      -4.061 -12.769  -4.221  0.00  0.00    -0.082 C 
ATOM      8  N   UNL     1      -5.031 -11.668  -4.281  0.00  0.00    +0.379 N 
ATOM      9  C   UNL     1      -4.459 -10.536  -5.019  0.00  0.00    -0.082 C 
ATOM     10  C   UNL     1      -3.242  -9.994  -4.263  0.00  0.00    -0.010 C 
ATOM     11  C   UNL     1       0.553 -12.748  -5.776  0.00  0.00    +0.248 C 
ATOM     12  O   UNL     1       0.093 -13.475  -6.638  0.00  0.00    -0.270 OA
ATOM     13  H   UNL     1      -5.868 -11.984  -4.749  0.00  0.00    -0.086 HD
ATOM     14  H   UNL     1      -5.264 -11.375  -3.344  0.00  0.00    -0.086 HD
ENDROOT
BRANCH  11  15
ATOM     15  C   UNL     1       1.936 -12.935  -5.320  0.00  0.00    +0.052 A 
ATOM     16  C   UNL     1       2.701 -11.875  -4.952  0.00  0.00    +0.059 A 
ATOM     17  S   UNL     1       4.182 -12.527  -4.508  0.00  0.00    -0.096 S 
ATOM     18  C   UNL     1       3.864 -14.247  -4.788  0.00  0.00    +0.020 A 
ATOM     19  C   UNL     1       2.531 -14.271  -5.241  0.00  0.00    +0.001 A 
ATOM     20  C   UNL     1       1.978 -15.528  -5.549  0.00  0.00    +0.010 A 
ATOM     21  C   UNL     1       2.723 -16.671  -5.401  0.00  0.00    +0.001 A 
ATOM     22  C   UNL     1       4.033 -16.620  -4.947  0.00  0.00    +0.001 A 
ATOM     23  C   UNL     1       4.606 -15.400  -4.647  0.00  0.00    +0.015 A 
ENDBRANCH  11  15
BRANCH   1  25
ATOM     24  N   UNL     1      -1.741  -8.866  -1.708  0.00  0.00    -0.315 N 
ATOM     25  C   UNL     1      -1.197  -9.163  -2.905  0.00  0.00    +0.218 C 
ATOM     26  O   UNL     1      -0.868  -8.273  -3.660  0.00  0.00    -0.275 OA
ATOM     27  H   UNL     1      -2.004  -9.578  -1.105  0.00  0.00    +0.149 HD
BRANCH  24  28
ATOM     28  C   UNL     1      -1.934  -7.467  -1.319  0.00  0.00    +0.109 C 
BRANCH  28  29
ATOM     29  C   UNL     1      -2.563  -7.407   0.074  0.00  0.00    +0.054 C 
BRANCH  29  33
ATOM     30  C   UNL     1      -3.127  -3.326   1.210  0.00  0.00    +0.121 A 
ATOM     31  C   UNL     1      -4.130  -4.004   0.532  0.00  0.00    +0.046 A 
ATOM     32  C   UNL     1      -3.945  -5.323   0.166  0.00  0.00    +0.007 A 
ATOM     33  C   UNL     1      -2.762  -5.968   0.475  0.00  0.00    -0.046 A 
ATOM     34  C   UNL     1      -1.761  -5.295   1.151  0.00  0.00    +0.007 A 
ATOM     35  C   UNL     1      -1.938  -3.974   1.514  0.00  0.00    +0.046 A 
BRANCH  30  36
ATOM     36  O   UNL     1      -3.306  -2.029   1.572  0.00  0.00    -0.492 OA
BRANCH  36  38
ATOM     37  C   UNL     1      -4.571   0.026   1.711  0.00  0.00    +0.048 C 
ATOM     38  C   UNL     1      -4.554  -1.425   1.226  0.00  0.00    +0.225 C 
ENDBRANCH  36  38
ENDBRANCH  30  36
ENDBRANCH  29  33
ENDBRANCH  28  29
ENDBRANCH  24  28
ENDBRANCH   1  25
TORSDOF 7
