REMARK  Name = ZINC12449340
REMARK  7 active torsions:
REMARK  status: ('A' for Active; 'I' for Inactive)
REMARK    1  A    between atoms: C_9  and  C_12
REMARK    2  A    between atoms: C_12  and  N_67
REMARK    3  A    between atoms: C_13  and  C_14
REMARK    4  A    between atoms: C_13  and  N_67
REMARK    5  A    between atoms: C_20  and  C_21
REMARK    6  A    between atoms: C_20  and  N_67
REMARK    7  A    between atoms: C_27  and  N_69
REMARK                            x       y       z     vdW  Elec       q    Type
REMARK                         _______ _______ _______ _____ _____    ______ ____
ROOT
ATOM      1  N   UNL     1      -0.667   3.096   3.545  0.00  0.00    +0.385 N 
ATOM      2  H   UNL     1      -0.288   2.143   3.602  0.00  0.00    -0.081 HD
ENDROOT
BRANCH   1   3
ATOM      3  C   UNL     1      -1.760   3.237   4.530  0.00  0.00    -0.036 C 
BRANCH   3  12
ATOM      4  C   UNL     1      -3.492  -2.700   5.427  0.00  0.00    +0.001 A 
ATOM      5  C   UNL     1      -4.727  -2.558   4.811  0.00  0.00    +0.004 A 
ATOM      6  C   UNL     1      -5.115  -1.345   4.283  0.00  0.00    +0.047 A 
ATOM      7  C   UNL     1      -4.264  -0.250   4.364  0.00  0.00    +0.138 A 
ATOM      8  C   UNL     1      -3.014  -0.395   4.988  0.00  0.00    +0.064 A 
ATOM      9  C   UNL     1      -2.633  -1.627   5.518  0.00  0.00    +0.015 A 
ATOM     10  C   UNL     1      -2.128   0.783   5.062  0.00  0.00    +0.194 A 
ATOM     11  O   UNL     1      -1.031   0.721   5.590  0.00  0.00    -0.287 OA
ATOM     12  C   UNL     1      -2.608   1.992   4.493  0.00  0.00    +0.018 A 
ATOM     13  C   UNL     1      -3.827   2.021   3.924  0.00  0.00    +0.201 A 
ATOM     14  O   UNL     1      -4.621   0.947   3.856  0.00  0.00    -0.462 OA
ENDBRANCH   3  12
ENDBRANCH   1   3
BRANCH   1  15
ATOM     15  C   UNL     1       0.412   4.060   3.846  0.00  0.00    -0.041 C 
BRANCH  15  16
ATOM     16  C   UNL     1       1.166   3.579   5.059  0.00  0.00    -0.046 A 
ATOM     17  C   UNL     1       0.858   4.072   6.318  0.00  0.00    +0.005 A 
ATOM     18  C   UNL     1       1.576   3.597   7.405  0.00  0.00    +0.020 A 
ATOM     19  C   UNL     1       2.574   2.664   7.198  0.00  0.00    +0.111 A 
ATOM     20  N   UNL     1       2.843   2.222   5.986  0.00  0.00    -0.263 NA
ATOM     21  C   UNL     1       2.178   2.647   4.929  0.00  0.00    +0.112 A 
ENDBRANCH  15  16
ENDBRANCH   1  15
BRANCH   1  22
ATOM     22  C   UNL     1      -1.185   3.327   2.180  0.00  0.00    -0.076 C 
BRANCH  22  23
ATOM     23  C   UNL     1      -0.096   2.958   1.171  0.00  0.00    -0.044 C 
ATOM     24  C   UNL     1       0.204   1.459   1.267  0.00  0.00    -0.002 C 
ATOM     25  C   UNL     1       1.251   1.088   0.212  0.00  0.00    -0.018 C 
ATOM     26  C   UNL     1       0.730   1.472  -1.175  0.00  0.00    -0.078 C 
ATOM     27  C   UNL     1      -0.578   3.287  -0.244  0.00  0.00    -0.077 C 
ATOM     28  N   UNL     1       0.484   2.929  -1.208  0.00  0.00    +0.382 N 
ATOM     29  H   UNL     1       1.348   3.419  -0.949  0.00  0.00    -0.081 HD
BRANCH  28  30
ATOM     30  C   UNL     1       0.088   3.343  -2.571  0.00  0.00    -0.069 C 
ATOM     31  C   UNL     1      -1.154   2.575  -3.026  0.00  0.00    -0.015 C 
ATOM     32  C   UNL     1      -1.540   3.022  -4.438  0.00  0.00    -0.002 C 
ATOM     33  C   UNL     1      -0.383   2.735  -5.397  0.00  0.00    -0.000 C 
ATOM     34  C   UNL     1       0.860   3.502  -4.941  0.00  0.00    -0.002 C 
ATOM     35  C   UNL     1       1.245   3.056  -3.530  0.00  0.00    -0.015 C 
ENDBRANCH  28  30
ENDBRANCH  22  23
ENDBRANCH   1  22
TORSDOF 7
