REMARK  Name = ZINC42867084
REMARK  5 active torsions:
REMARK  status: ('A' for Active; 'I' for Inactive)
REMARK    1  A    between atoms: C_1  and  C_2
REMARK    2  A    between atoms: C_8  and  C_10
REMARK    3  A    between atoms: C_10  and  N_11
REMARK    4  A    between atoms: C_12  and  C_16
REMARK    5  A    between atoms: C_21  and  N_22
REMARK                            x       y       z     vdW  Elec       q    Type
REMARK                         _______ _______ _______ _____ _____    ______ ____
ROOT
ATOM      1  N   UNL     1       0.724  -0.520   3.686  0.00  0.00    -0.225 N 
ATOM      2  C   UNL     1       0.360  -0.365   4.984  0.00  0.00    +0.184 A 
ATOM      3  N   UNL     1       1.296  -0.932   5.717  0.00  0.00    -0.108 NA
ATOM      4  N   UNL     1       2.215  -1.427   4.969  0.00  0.00    -0.023 NA
ATOM      5  N   UNL     1       1.940  -1.226   3.726  0.00  0.00    -0.044 NA
ENDROOT
BRANCH   2   6
ATOM      6  C   UNL     1      -0.856   0.312   5.481  0.00  0.00    +0.043 A 
ATOM      7  C   UNL     1      -1.808   0.793   4.581  0.00  0.00    +0.033 A 
ATOM      8  C   UNL     1      -2.942   1.424   5.051  0.00  0.00    +0.042 A 
ATOM      9  C   UNL     1      -3.140   1.583   6.413  0.00  0.00    +0.022 A 
ATOM     10  C   UNL     1      -2.205   1.111   7.314  0.00  0.00    +0.025 A 
ATOM     11  C   UNL     1      -1.063   0.469   6.858  0.00  0.00    +0.035 A 
ATOM     12 CL   UNL     1      -4.125   2.023   3.930  0.00  0.00    -0.084 Cl
BRANCH  11  13
ATOM     13  N   UNL     1      -0.122  -0.013   7.766  0.00  0.00    -0.357 N 
ATOM     14  H   UNL     1       0.678  -0.459   7.445  0.00  0.00    +0.142 HD
ATOM     15  H   UNL     1      -0.266   0.097   8.719  0.00  0.00    +0.142 HD
ENDBRANCH  11  13
ENDBRANCH   2   6
BRANCH   1  16
ATOM     16  C   UNL     1       0.002  -0.058   2.498  0.00  0.00    +0.151 C 
BRANCH  16  23
ATOM     17  C   UNL     1       0.086   1.692   0.150  0.00  0.00    +0.008 C 
ATOM     18  C   UNL     1       0.114   0.168   0.013  0.00  0.00    -0.009 C 
ATOM     19  C   UNL     1       0.898  -0.217  -1.243  0.00  0.00    +0.003 C 
ATOM     20  C   UNL     1       0.926  -1.740  -1.381  0.00  0.00    +0.000 C 
ATOM     21  C   UNL     1       1.600  -2.351  -0.150  0.00  0.00    +0.000 C 
ATOM     22  C   UNL     1       0.815  -1.966   1.105  0.00  0.00    +0.005 C 
ATOM     23  C   UNL     1       0.787  -0.443   1.243  0.00  0.00    +0.013 C 
ENDBRANCH  16  23
ENDBRANCH   1  16
TORSDOF 4
