REMARK  Name = ZINC04151403
REMARK  7 active torsions:
REMARK  status: ('A' for Active; 'I' for Inactive)
REMARK    1  A    between atoms: C_1  and  C_2
REMARK    2  A    between atoms: C_4  and  N_29
REMARK    3  A    between atoms: C_7  and  C_8
REMARK    4  A    between atoms: C_16  and  C_19
REMARK    5  A    between atoms: C_22  and  C_25
REMARK    6  A    between atoms: C_25  and  O_27
REMARK    7  A    between atoms: O_27  and  C_28
REMARK                            x       y       z     vdW  Elec       q    Type
REMARK                         _______ _______ _______ _____ _____    ______ ____
ROOT
ATOM      1  C   UNL     1       7.412  -1.135  -1.313  0.00  0.00    +0.044 C 
ATOM      2  C   UNL     1       6.060  -1.518  -0.768  0.00  0.00    -0.045 A 
ATOM      3  C   UNL     1       5.914  -1.810   0.576  0.00  0.00    +0.038 A 
ATOM      4  C   UNL     1       4.676  -2.160   1.070  0.00  0.00    +0.147 A 
ATOM      5  C   UNL     1       3.570  -2.221   0.222  0.00  0.00    +0.062 A 
ATOM      6  C   UNL     1       3.717  -1.928  -1.123  0.00  0.00    -0.014 A 
ATOM      7  C   UNL     1       4.969  -1.577  -1.610  0.00  0.00    -0.042 A 
ATOM      8  C   UNL     1       5.137  -1.258  -3.073  0.00  0.00    +0.044 C 
ATOM      9  C   UNL     1       2.572  -1.971  -2.091  0.00  0.00    +0.049 C 
ATOM     10  C   UNL     1       2.168  -0.574  -2.503  0.00  0.00    -0.023 C 
ATOM     11  C   UNL     1       0.865  -0.482  -2.595  0.00  0.00    -0.030 C 
ATOM     12  C   UNL     1       0.213  -1.809  -2.263  0.00  0.00    +0.033 C 
ATOM     13  C   UNL     1       1.300  -2.553  -1.437  0.00  0.00    +0.029 C 
ATOM     14  C   UNL     1       1.213  -2.053   0.007  0.00  0.00    +0.105 C 
ATOM     15  N   UNL     1       2.341  -2.582   0.774  0.00  0.00    -0.335 N 
ATOM     16  H   UNL     1       2.284  -2.304   1.742  0.00  0.00    +0.147 HD
ENDROOT
BRANCH  14  17
ATOM     17  C   UNL     1       1.258  -0.547   0.022  0.00  0.00    -0.027 A 
ATOM     18  C   UNL     1       2.445   0.104   0.310  0.00  0.00    +0.006 A 
ATOM     19  C   UNL     1       2.493   1.482   0.325  0.00  0.00    +0.015 A 
ATOM     20  C   UNL     1       1.341   2.221   0.048  0.00  0.00    +0.059 A 
ATOM     21  C   UNL     1       0.147   1.558  -0.242  0.00  0.00    +0.015 A 
ATOM     22  C   UNL     1       0.113   0.179  -0.253  0.00  0.00    +0.006 A 
BRANCH  20  23
ATOM     23  C   UNL     1       1.385   3.698   0.062  0.00  0.00    +0.339 C 
ATOM     24  O   UNL     1       2.426   4.272   0.314  0.00  0.00    -0.245 OA
BRANCH  23  25
ATOM     25  O   UNL     1       0.272   4.408  -0.205  0.00  0.00    -0.464 OA
ATOM     26  C   UNL     1       0.390   5.855  -0.174  0.00  0.00    +0.280 C 
ENDBRANCH  23  25
ENDBRANCH  20  23
ENDBRANCH  14  17
BRANCH   4  27
ATOM     27  N   UNL     1       4.518  -2.472   2.508  0.00  0.00    +0.058 N 
ATOM     28  O   UNL     1       5.145  -1.842   3.340  0.00  0.00    -0.126 OA
ATOM     29  O   UNL     1       3.761  -3.359   2.859  0.00  0.00    -0.126 OA
ENDBRANCH   4  27
TORSDOF 4
