REMARK  Name = ZINC03336195
REMARK  11 active torsions:
REMARK  status: ('A' for Active; 'I' for Inactive)
REMARK    1  A    between atoms: C_1  and  C_2
REMARK    2  A    between atoms: C_2  and  O_3
REMARK    3  A    between atoms: O_3  and  C_4
REMARK    4  A    between atoms: C_4  and  C_6
REMARK    5  A    between atoms: C_8  and  C_32
REMARK    6  A    between atoms: C_10  and  N_11
REMARK    7  A    between atoms: C_12  and  C_14
REMARK    8  A    between atoms: C_14  and  C_16
REMARK    9  A    between atoms: C_14  and  N_17
REMARK   10  A    between atoms: C_20  and  C_24
REMARK   11  A    between atoms: C_20  and  C_25
REMARK                            x       y       z     vdW  Elec       q    Type
REMARK                         _______ _______ _______ _____ _____    ______ ____
ROOT
ATOM      1  N   UNL     1      -0.242   1.246   2.466  0.00  0.00    -0.278 N 
ATOM      2  C   UNL     1      -0.718   1.572   1.248  0.00  0.00    +0.238 C 
ATOM      3  O   UNL     1      -1.714   2.256   1.150  0.00  0.00    -0.273 OA
ATOM      4  H   UNL     1       0.555   0.699   2.544  0.00  0.00    +0.155 HD
ENDROOT
BRANCH   1   9
ATOM      5  C   UNL     1      -0.557   1.465   4.939  0.00  0.00    +0.088 A 
ATOM      6  C   UNL     1      -1.377   2.030   5.916  0.00  0.00    +0.033 A 
ATOM      7  C   UNL     1      -2.445   2.763   5.498  0.00  0.00    +0.022 A 
ATOM      8  S   UNL     1      -2.311   2.678   3.723  0.00  0.00    -0.073 S 
ATOM      9  C   UNL     1      -0.890   1.692   3.605  0.00  0.00    +0.086 A 
BRANCH   7  10
ATOM     10  C   UNL     1      -3.460   3.462   6.314  0.00  0.00    -0.011 A 
ATOM     11  C   UNL     1      -3.395   3.413   7.708  0.00  0.00    +0.009 A 
ATOM     12  C   UNL     1      -4.342   4.072   8.463  0.00  0.00    +0.001 A 
ATOM     13  C   UNL     1      -5.362   4.771   7.843  0.00  0.00    +0.000 A 
ATOM     14  C   UNL     1      -5.436   4.820   6.462  0.00  0.00    +0.001 A 
ATOM     15  C   UNL     1      -4.491   4.170   5.695  0.00  0.00    +0.009 A 
ENDBRANCH   7  10
BRANCH   5  16
ATOM     16  C   UNL     1       0.614   0.662   5.303  0.00  0.00    +0.342 C 
ATOM     17  O   UNL     1       1.315   0.180   4.434  0.00  0.00    -0.245 OA
BRANCH  16  18
ATOM     18  O   UNL     1       0.914   0.458   6.602  0.00  0.00    -0.461 OA
BRANCH  18  20
ATOM     19  C   UNL     1       2.266  -0.468   8.403  0.00  0.00    +0.048 C 
ATOM     20  C   UNL     1       2.088  -0.348   6.889  0.00  0.00    +0.229 C 
ENDBRANCH  18  20
ENDBRANCH  16  18
ENDBRANCH   5  16
ENDBRANCH   1   9
BRANCH   2  21
ATOM     21  C   UNL     1      -0.013   1.086   0.008  0.00  0.00    +0.168 C 
ATOM     22  C   UNL     1       1.423   1.615  -0.003  0.00  0.00    +0.038 C 
BRANCH  21  23
ATOM     23  N   UNL     1      -0.721   1.571  -1.179  0.00  0.00    -0.212 N 
ATOM     24  C   UNL     1      -1.257   0.770  -2.121  0.00  0.00    +0.251 C 
ATOM     25  O   UNL     1      -1.245  -0.442  -2.145  0.00  0.00    -0.272 OA
ATOM     26  C   UNL     1      -1.881   1.700  -3.143  0.00  0.00    +0.135 C 
ATOM     27  N   UNL     1      -1.590   3.043  -2.612  0.00  0.00    -0.281 N 
ATOM     28  C   UNL     1      -0.911   2.864  -1.464  0.00  0.00    +0.310 C 
ATOM     29  O   UNL     1      -0.514   3.776  -0.765  0.00  0.00    -0.252 OA
ATOM     30  C   UNL     1      -3.391   1.472  -3.233  0.00  0.00    +0.047 C 
ATOM     31  H   UNL     1      -1.840   3.891  -3.011  0.00  0.00    +0.152 HD
BRANCH  26  32
ATOM     32  C   UNL     1      -1.236   1.512  -4.492  0.00  0.00    -0.015 A 
ATOM     33  C   UNL     1      -0.801   0.259  -4.881  0.00  0.00    +0.007 A 
ATOM     34  C   UNL     1      -0.215   0.085  -6.121  0.00  0.00    +0.020 A 
ATOM     35  C   UNL     1      -0.054   1.168  -6.968  0.00  0.00    +0.041 A 
ATOM     36  C   UNL     1      -0.485   2.422  -6.575  0.00  0.00    +0.020 A 
ATOM     37  C   UNL     1      -1.076   2.594  -5.338  0.00  0.00    +0.007 A 
ATOM     38 CL   UNL     1       0.688   0.951  -8.522  0.00  0.00    -0.084 Cl
ENDBRANCH  26  32
ENDBRANCH  21  23
ENDBRANCH   2  21
TORSDOF 8
