REMARK  Name = ZINC46704217
REMARK  6 active torsions:
REMARK  status: ('A' for Active; 'I' for Inactive)
REMARK    1  A    between atoms: C_1  and  C_2
REMARK    2  A    between atoms: C_2  and  C_3
REMARK    3  A    between atoms: C_2  and  O_20
REMARK    4  A    between atoms: N_5  and  N_6
REMARK    5  A    between atoms: N_9  and  C_10
REMARK    6  A    between atoms: O_20  and  C_21
REMARK                            x       y       z     vdW  Elec       q    Type
REMARK                         _______ _______ _______ _____ _____    ______ ____
ROOT
ATOM      1  N   UNL     1       2.615  -1.135   2.610  0.00  0.00    -0.218 N 
ATOM      2  C   UNL     1       3.952  -1.078   2.769  0.00  0.00    +0.316 C 
ATOM      3  O   UNL     1       4.459  -1.481   3.798  0.00  0.00    -0.251 OA
ATOM      4  N   UNL     1       4.726  -0.575   1.788  0.00  0.00    -0.293 N 
ATOM      5  H   UNL     1       2.057  -1.496   3.316  0.00  0.00    +0.174 HD
ATOM      6  H   UNL     1       4.322  -0.254   0.967  0.00  0.00    +0.151 HD
ENDROOT
BRANCH   4   7
ATOM      7  C   UNL     1       6.180  -0.513   1.961  0.00  0.00    +0.037 C 
ATOM      8  C   UNL     1       6.513   0.355   3.176  0.00  0.00    +0.029 C 
ATOM      9  C   UNL     1       8.030   0.419   3.357  0.00  0.00    -0.008 C 
ATOM     10  C   UNL     1       8.668   1.027   2.107  0.00  0.00    +0.007 C 
ATOM     11  C   UNL     1       8.335   0.159   0.891  0.00  0.00    -0.008 C 
ATOM     12  C   UNL     1       6.817   0.095   0.710  0.00  0.00    +0.029 C 
ATOM     13  C   UNL     1       8.883  -1.253   1.108  0.00  0.00    +0.007 C 
ATOM     14  C   UNL     1       8.246  -1.861   2.359  0.00  0.00    -0.008 C 
ATOM     15  C   UNL     1       8.578  -0.993   3.574  0.00  0.00    +0.007 C 
ATOM     16  C   UNL     1       6.728  -1.925   2.178  0.00  0.00    +0.029 C 
ENDBRANCH   4   7
BRANCH   1  19
ATOM     17  C   UNL     1       0.693  -0.727   1.265  0.00  0.00    +0.270 C 
ATOM     18  O   UNL     1      -0.004  -1.180   2.148  0.00  0.00    -0.270 OA
ATOM     19  N   UNL     1       2.030  -0.670   1.424  0.00  0.00    -0.230 N 
ATOM     20  H   UNL     1       2.588  -0.308   0.718  0.00  0.00    +0.173 HD
BRANCH  17  22
ATOM     21  C   UNL     1       0.290   1.280  -0.134  0.00  0.00    +0.062 C 
ATOM     22  C   UNL     1       0.064  -0.228  -0.010  0.00  0.00    +0.257 C 
BRANCH  22  23
ATOM     23  O   UNL     1      -1.339  -0.499   0.012  0.00  0.00    -0.480 OA
BRANCH  23  24
ATOM     24  C   UNL     1      -1.966  -0.607  -1.189  0.00  0.00    +0.122 A 
ATOM     25  C   UNL     1      -1.270  -0.349  -2.361  0.00  0.00    +0.048 A 
ATOM     26  C   UNL     1      -1.908  -0.459  -3.581  0.00  0.00    +0.042 A 
ATOM     27  C   UNL     1      -3.242  -0.826  -3.635  0.00  0.00    +0.124 A 
ATOM     28  C   UNL     1      -3.938  -1.083  -2.466  0.00  0.00    +0.042 A 
ATOM     29  C   UNL     1      -3.300  -0.981  -1.244  0.00  0.00    +0.048 A 
ATOM     30  F   UNL     1      -3.865  -0.933  -4.829  0.00  0.00    -0.205 F 
ENDBRANCH  23  24
ENDBRANCH  22  23
ENDBRANCH  17  22
ENDBRANCH   1  19
TORSDOF 5
