REMARK  Name = ZINC30830702
REMARK  9 active torsions:
REMARK  status: ('A' for Active; 'I' for Inactive)
REMARK    1  A    between atoms: C_1  and  C_2
REMARK    2  A    between atoms: C_2  and  C_3
REMARK    3  A    between atoms: C_3  and  C_4
REMARK    4  A    between atoms: C_4  and  O_5
REMARK    5  A    between atoms: O_5  and  C_6
REMARK    6  A    between atoms: C_10  and  C_12
REMARK    7  A    between atoms: N_14  and  C_15
REMARK    8  A    between atoms: C_15  and  N_17
REMARK    9  A    between atoms: N_17  and  C_18
REMARK                            x       y       z     vdW  Elec       q    Type
REMARK                         _______ _______ _______ _____ _____    ______ ____
ROOT
ATOM      1  N   UNL     1       3.858  -9.533   6.307  0.00  0.00    -0.296 N 
ATOM      2  H   UNL     1       3.519 -10.113   5.607  0.00  0.00    +0.154 HD
ENDROOT
BRANCH   1   3
ATOM      3  C   UNL     1       4.601 -10.068   7.356  0.00  0.00    +0.036 C 
ATOM      4  C   UNL     1       4.046 -11.048   8.159  0.00  0.00    +0.074 C 
ATOM      5  C   UNL     1       4.790 -11.587   9.213  0.00  0.00    +0.193 C 
ATOM      6  O   UNL     1       4.308 -12.455   9.931  0.00  0.00    -0.287 OA
ATOM      7  C   UNL     1       6.111 -11.117   9.443  0.00  0.00    +0.079 C 
ATOM      8  C   UNL     1       6.880 -11.648  10.501  0.00  0.00    +0.203 C 
ATOM      9  N   UNL     1       6.470 -12.607  11.357  0.00  0.00    -0.267 N 
ATOM     10  C   UNL     1       7.509 -12.850  12.244  0.00  0.00    +0.168 A 
ATOM     11  C   UNL     1       8.550 -11.993  11.877  0.00  0.00    +0.170 A 
ATOM     12  C   UNL     1       9.734 -12.017  12.601  0.00  0.00    +0.051 A 
ATOM     13  C   UNL     1       9.834 -12.898  13.667  0.00  0.00    +0.023 A 
ATOM     14  C   UNL     1       8.763 -13.717  13.973  0.00  0.00    +0.113 A 
ATOM     15  N   UNL     1       7.649 -13.674  13.269  0.00  0.00    -0.237 NA
ATOM     16  O   UNL     1       8.131 -11.280  10.807  0.00  0.00    -0.438 OA
ATOM     17  C   UNL     1       6.645 -10.121   8.609  0.00  0.00    +0.018 C 
ATOM     18  C   UNL     1       5.904  -9.616   7.586  0.00  0.00    +0.024 C 
ATOM     19  H   UNL     1       5.606 -13.047  11.352  0.00  0.00    +0.157 HD
ENDBRANCH   1   3
BRANCH   1  20
ATOM     20  C   UNL     1       3.611  -8.209   6.263  0.00  0.00    +0.141 C 
ATOM     21  S   UNL     1       4.101  -7.203   7.560  0.00  0.00    -0.018 S 
BRANCH  20  24
ATOM     22  C   UNL     1       2.732  -6.351   5.156  0.00  0.00    +0.250 C 
ATOM     23  O   UNL     1       3.079  -5.638   6.076  0.00  0.00    -0.270 OA
ATOM     24  N   UNL     1       2.979  -7.676   5.199  0.00  0.00    -0.264 N 
ATOM     25  H   UNL     1       2.701  -8.245   4.465  0.00  0.00    +0.157 HD
BRANCH  22  30
ATOM     26  C   UNL     1       1.129  -3.856   2.845  0.00  0.00    +0.121 A 
ATOM     27  C   UNL     1       0.735  -4.677   1.797  0.00  0.00    +0.046 A 
ATOM     28  C   UNL     1       0.990  -6.035   1.843  0.00  0.00    +0.004 A 
ATOM     29  C   UNL     1       1.638  -6.584   2.930  0.00  0.00    +0.013 A 
ATOM     30  C   UNL     1       2.038  -5.767   3.989  0.00  0.00    +0.041 A 
ATOM     31  C   UNL     1       1.786  -4.395   3.939  0.00  0.00    +0.058 A 
BRANCH  26  32
ATOM     32  O   UNL     1       0.876  -2.522   2.795  0.00  0.00    -0.492 OA
BRANCH  32  33
ATOM     33  C   UNL     1       0.196  -2.034   1.637  0.00  0.00    +0.229 C 
BRANCH  33  34
ATOM     34  C   UNL     1       0.002  -0.521   1.760  0.00  0.00    +0.041 C 
BRANCH  34  36
ATOM     35  C   UNL     1      -0.921   1.514   0.643  0.00  0.00    +0.004 C 
ATOM     36  C   UNL     1      -0.727   0.002   0.520  0.00  0.00    -0.000 C 
ENDBRANCH  34  36
ENDBRANCH  33  34
ENDBRANCH  32  33
ENDBRANCH  26  32
ENDBRANCH  22  30
ENDBRANCH  20  24
ENDBRANCH   1  20
TORSDOF 8
