REMARK  Name = ZINC12551684
REMARK  2 active torsions:
REMARK  status: ('A' for Active; 'I' for Inactive)
REMARK    1  A    between atoms: C_5  and  C_7
REMARK    2  A    between atoms: C_8  and  C_9
REMARK                            x       y       z     vdW  Elec       q    Type
REMARK                         _______ _______ _______ _____ _____    ______ ____
ROOT
ATOM      1  C   UNL     1       4.849   4.988   2.683  0.00  0.00    +0.135 A 
ATOM      2  N   UNL     1       4.514   5.000   1.353  0.00  0.00    -0.307 N 
ATOM      3  H   UNL     1       4.956   5.624   0.756  0.00  0.00    +0.170 HD
ATOM      4  C   UNL     1       3.583   4.161   0.862  0.00  0.00    +0.260 A 
ATOM      5  O   UNL     1       3.295   4.182  -0.323  0.00  0.00    -0.267 OA
ATOM      6  C   UNL     1       2.935   3.243   1.751  0.00  0.00    +0.075 A 
ATOM      7  C   UNL     1       1.905   2.251   1.429  0.00  0.00    -0.023 A 
ATOM      8  C   UNL     1       1.437   1.508   2.455  0.00  0.00    -0.004 A 
ATOM      9  S   UNL     1       2.343   2.058   3.878  0.00  0.00    -0.073 S 
ATOM     10  C   UNL     1       3.338   3.301   3.096  0.00  0.00    +0.116 A 
ATOM     11  N   UNL     1       4.263   4.150   3.520  0.00  0.00    -0.222 NA
ATOM     12  C   UNL     1       0.381   0.448   2.412  0.00  0.00    +0.043 C 
ATOM     13  C   UNL     1       0.683  -0.524   1.264  0.00  0.00    +0.005 C 
ATOM     14  C   UNL     1       0.002  -0.004   0.002  0.00  0.00    +0.001 C 
ATOM     15  C   UNL     1      -0.019   1.523   0.010  0.00  0.00    +0.005 C 
ATOM     16  C   UNL     1       1.401   2.076  -0.000  0.00  0.00    +0.037 C 
ENDROOT
BRANCH   1  18
ATOM     17  C   UNL     1       6.203   5.908   4.486  0.00  0.00    +0.012 C 
ATOM     18  C   UNL     1       5.867   5.913   3.180  0.00  0.00    +0.047 C 
BRANCH  17  23
ATOM     19  C   UNL     1       8.813   8.599   4.587  0.00  0.00    +0.001 A 
ATOM     20  C   UNL     1       9.156   8.591   5.928  0.00  0.00    +0.001 A 
ATOM     21  C   UNL     1       8.540   7.712   6.801  0.00  0.00    +0.015 A 
ATOM     22  C   UNL     1       7.574   6.840   6.342  0.00  0.00    +0.021 A 
ATOM     23  C   UNL     1       7.227   6.839   4.987  0.00  0.00    -0.012 A 
ATOM     24  C   UNL     1       7.855   7.731   4.111  0.00  0.00    +0.009 A 
ATOM     25  I   UNL     1       6.637   5.516   7.667  0.00  0.00    -0.043 I 
ENDBRANCH  17  23
ENDBRANCH   1  18
TORSDOF 2
