REMARK  Name = ZINC64539154
REMARK  8 active torsions:
REMARK  status: ('A' for Active; 'I' for Inactive)
REMARK    1  A    between atoms: C_1  and  C_2
REMARK    2  A    between atoms: C_4  and  S_16
REMARK    3  A    between atoms: C_5  and  C_15
REMARK    4  A    between atoms: N_7  and  C_8
REMARK    5  A    between atoms: C_8  and  C_9
REMARK    6  A    between atoms: S_16  and  N_19
REMARK    7  A    between atoms: C_25  and  C_27
REMARK    8  A    between atoms: C_27  and  C_28
REMARK                            x       y       z     vdW  Elec       q    Type
REMARK                         _______ _______ _______ _____ _____    ______ ____
ROOT
ATOM      1  N   UNL     1       0.858   1.242  -3.132  0.00  0.00    -0.174 NA
ATOM      2  C   UNL     1      -0.065   2.282  -2.656  0.00  0.00    +0.128 C 
ATOM      3  C   UNL     1       0.719   3.271  -1.785  0.00  0.00    +0.125 C 
ATOM      4  N   UNL     1       1.931   3.677  -2.510  0.00  0.00    -0.299 N 
ATOM      5  C   UNL     1       2.854   2.637  -2.986  0.00  0.00    +0.125 C 
ATOM      6  C   UNL     1       2.073   1.648  -3.853  0.00  0.00    +0.128 C 
ATOM      7  C   UNL     1       2.192   4.980  -2.735  0.00  0.00    +0.220 C 
ATOM      8  O   UNL     1       1.423   5.830  -2.337  0.00  0.00    -0.275 OA
ENDROOT
BRANCH   1   9
ATOM      9  S   UNL     1       0.537  -0.359  -2.856  0.00  0.00    +0.060 S 
ATOM     10  O   UNL     1      -0.201  -0.423  -1.644  0.00  0.00    -0.153 OA
ATOM     11  O   UNL     1       1.762  -1.056  -3.039  0.00  0.00    -0.153 OA
BRANCH   9  14
ATOM     12  C   UNL     1       0.450  -0.048  -6.264  0.00  0.00    +0.032 C 
ATOM     13  C   UNL     1      -0.159  -1.259  -5.555  0.00  0.00    +0.124 C 
ATOM     14  C   UNL     1      -0.546  -0.902  -4.136  0.00  0.00    +0.119 C 
ATOM     15  C   UNL     1      -1.849  -1.076  -4.040  0.00  0.00    +0.040 C 
ATOM     16  N   UNL     1      -2.395  -1.510  -5.232  0.00  0.00    -0.280 N 
ATOM     17  N   UNL     1      -1.432  -1.646  -6.195  0.00  0.00    -0.217 NA
ATOM     18  C   UNL     1      -2.645  -0.831  -2.784  0.00  0.00    +0.063 C 
ATOM     19  H   UNL     1      -3.337  -1.697  -5.368  0.00  0.00    +0.166 HD
BRANCH  17  20
ATOM     20  C   UNL     1      -1.721  -0.789  -7.353  0.00  0.00    +0.141 C 
BRANCH  20  21
ATOM     21  C   UNL     1      -2.959  -1.290  -8.052  0.00  0.00    -0.032 A 
ATOM     22  C   UNL     1      -2.852  -2.230  -9.059  0.00  0.00    +0.005 A 
ATOM     23  C   UNL     1      -3.987  -2.689  -9.700  0.00  0.00    +0.000 A 
ATOM     24  C   UNL     1      -5.230  -2.208  -9.333  0.00  0.00    +0.000 A 
ATOM     25  C   UNL     1      -5.337  -1.268  -8.325  0.00  0.00    +0.000 A 
ATOM     26  C   UNL     1      -4.202  -0.812  -7.681  0.00  0.00    +0.005 A 
ENDBRANCH  20  21
ENDBRANCH  17  20
ENDBRANCH   9  14
ENDBRANCH   1   9
BRANCH   7  27
ATOM     27  C   UNL     1       3.439   5.381  -3.479  0.00  0.00    +0.129 C 
BRANCH  27  28
ATOM     28  C   UNL     1       3.493   6.883  -3.596  0.00  0.00    -0.033 C 
ATOM     29  C   UNL     1       4.147   7.739  -2.778  0.00  0.00    -0.001 A 
ATOM     30  C   UNL     1       4.972   7.536  -1.581  0.00  0.00    +0.010 A 
ATOM     31  C   UNL     1       5.505   8.613  -0.961  0.00  0.00    +0.001 A 
ATOM     32  C   UNL     1       5.291   9.916  -1.433  0.00  0.00    +0.002 A 
ATOM     33  C   UNL     1       4.546  10.182  -2.526  0.00  0.00    +0.026 A 
ATOM     34  C   UNL     1       3.937   9.124  -3.256  0.00  0.00    +0.043 A 
ATOM     35  N   UNL     1       3.182   9.124  -4.328  0.00  0.00    -0.380 N 
ATOM     36  C   UNL     1       2.833   7.737  -4.654  0.00  0.00    +0.145 C 
ATOM     37  H   UNL     1       2.904   9.910  -4.824  0.00  0.00    +0.160 HD
ENDBRANCH  27  28
ENDBRANCH   7  27
TORSDOF 6
