REMARK  Name = ZINC39637418
REMARK  7 active torsions:
REMARK  status: ('A' for Active; 'I' for Inactive)
REMARK    1  A    between atoms: C_1  and  C_2
REMARK    2  A    between atoms: C_7  and  N_12
REMARK    3  A    between atoms: C_9  and  C_11
REMARK    4  A    between atoms: C_13  and  C_15
REMARK    5  A    between atoms: C_26  and  C_28
REMARK    6  A    between atoms: C_32  and  O_33
REMARK    7  A    between atoms: O_33  and  C_34
REMARK                            x       y       z     vdW  Elec       q    Type
REMARK                         _______ _______ _______ _____ _____    ______ ____
ROOT
ATOM      1  C   UNL     1      -2.270  -4.276   1.771  0.00  0.00    +0.100 C 
ATOM      2  C   UNL     1      -3.142  -3.483   2.770  0.00  0.00    +0.121 C 
ATOM      3  N   UNL     1      -4.047  -4.496   3.363  0.00  0.00    -0.296 N 
ATOM      4  C   UNL     1      -3.193  -5.695   3.540  0.00  0.00    +0.115 C 
ATOM      5  C   UNL     1      -2.306  -5.727   2.279  0.00  0.00    -0.004 C 
ATOM      6  C   UNL     1      -2.920  -6.642   1.224  0.00  0.00    -0.010 C 
ATOM      7  C   UNL     1      -2.893  -8.087   1.730  0.00  0.00    -0.082 C 
ATOM      8  N   UNL     1      -1.507  -8.485   2.005  0.00  0.00    +0.379 N 
ATOM      9  C   UNL     1      -0.954  -7.660   3.086  0.00  0.00    -0.082 C 
ATOM     10  C   UNL     1      -0.899  -6.197   2.637  0.00  0.00    -0.010 C 
ATOM     11  C   UNL     1      -5.352  -4.359   3.671  0.00  0.00    +0.251 C 
ATOM     12  O   UNL     1      -5.944  -3.340   3.368  0.00  0.00    -0.270 OA
ATOM     13  H   UNL     1      -1.486  -9.455   2.280  0.00  0.00    -0.086 HD
ATOM     14  H   UNL     1      -0.952  -8.361   1.171  0.00  0.00    -0.086 HD
ENDROOT
BRANCH  11  15
ATOM     15  C   UNL     1      -6.060  -5.439   4.374  0.00  0.00    +0.087 A 
ATOM     16  C   UNL     1      -5.427  -6.224   5.313  0.00  0.00    +0.063 A 
ATOM     17  S   UNL     1      -6.614  -7.293   5.826  0.00  0.00    -0.081 S 
ATOM     18  C   UNL     1      -7.981  -6.747   4.826  0.00  0.00    +0.120 A 
ATOM     19  C   UNL     1      -7.453  -5.724   4.116  0.00  0.00    +0.158 A 
ATOM     20 CL   UNL     1      -9.600  -7.371   4.777  0.00  0.00    -0.072 Cl
BRANCH  19  21
ATOM     21  O   UNL     1      -8.184  -5.013   3.215  0.00  0.00    -0.492 OA
ATOM     22  C   UNL     1      -8.196  -5.490   1.868  0.00  0.00    +0.277 C 
ENDBRANCH  19  21
ENDBRANCH  11  15
BRANCH   1  24
ATOM     23  N   UNL     1      -0.054  -3.968   0.717  0.00  0.00    -0.312 N 
ATOM     24  C   UNL     1      -0.857  -3.752   1.777  0.00  0.00    +0.218 C 
ATOM     25  O   UNL     1      -0.443  -3.138   2.737  0.00  0.00    -0.275 OA
ATOM     26  H   UNL     1      -0.386  -4.460  -0.051  0.00  0.00    +0.149 HD
BRANCH  23  32
ATOM     27  C   UNL     1       2.232  -4.408  -2.896  0.00  0.00    +0.008 C 
ATOM     28  C   UNL     1       1.754  -4.603  -1.456  0.00  0.00    -0.009 C 
ATOM     29  C   UNL     1       2.666  -5.606  -0.747  0.00  0.00    +0.003 C 
ATOM     30  C   UNL     1       2.188  -5.801   0.693  0.00  0.00    +0.002 C 
ATOM     31  C   UNL     1       2.232  -4.462   1.431  0.00  0.00    +0.022 C 
ATOM     32  C   UNL     1       1.320  -3.459   0.723  0.00  0.00    +0.076 C 
ATOM     33  C   UNL     1       1.798  -3.264  -0.717  0.00  0.00    +0.009 C 
ATOM     34  C   UNL     1       0.886  -2.260  -1.426  0.00  0.00    +0.009 C 
ENDBRANCH  23  32
ENDBRANCH   1  24
TORSDOF 4
