REMARK  Name = ZINC39957382
REMARK  12 active torsions:
REMARK  status: ('A' for Active; 'I' for Inactive)
REMARK    1  A    between atoms: C_1  and  C_2
REMARK    2  A    between atoms: C_5  and  S_8
REMARK    3  A    between atoms: S_8  and  N_11
REMARK    4  A    between atoms: N_11  and  C_12
REMARK    5  A    between atoms: N_11  and  C_33
REMARK    6  A    between atoms: C_12  and  C_13
REMARK    7  A    between atoms: N_15  and  C_16
REMARK    8  A    between atoms: C_16  and  C_18
REMARK    9  A    between atoms: C_16  and  C_19
REMARK   10  A    between atoms: C_19  and  C_20
REMARK   11  A    between atoms: C_19  and  C_26
REMARK   12  A    between atoms: C_19  and  O_32
REMARK                            x       y       z     vdW  Elec       q    Type
REMARK                         _______ _______ _______ _____ _____    ______ ____
ROOT
ATOM      1  C   UNL     1       2.043  -6.746   1.604  0.00  0.00    +0.232 C 
ATOM      2  O   UNL     1       1.361  -7.440   0.880  0.00  0.00    -0.274 OA
ATOM      3  N   UNL     1       2.557  -7.258   2.740  0.00  0.00    -0.308 N 
ATOM      4  H   UNL     1       3.102  -6.702   3.319  0.00  0.00    +0.149 HD
ENDROOT
BRANCH   3   5
ATOM      5  C   UNL     1       2.292  -8.653   3.100  0.00  0.00    +0.110 C 
ATOM      6  C   UNL     1       3.308  -9.561   2.405  0.00  0.00    +0.031 C 
BRANCH   5   7
ATOM      7  C   UNL     1       2.413  -8.820   4.616  0.00  0.00    +0.134 C 
BRANCH   7   8
ATOM      8  C   UNL     1       1.412  -7.926   5.302  0.00  0.00    -0.010 A 
ATOM      9  C   UNL     1       0.215  -7.623   4.679  0.00  0.00    +0.007 A 
ATOM     10  C   UNL     1      -0.703  -6.803   5.308  0.00  0.00    +0.000 A 
ATOM     11  C   UNL     1      -0.425  -6.286   6.559  0.00  0.00    +0.000 A 
ATOM     12  C   UNL     1       0.771  -6.589   7.182  0.00  0.00    +0.000 A 
ATOM     13  C   UNL     1       1.688  -7.413   6.555  0.00  0.00    +0.007 A 
ENDBRANCH   7   8
BRANCH   7  14
ATOM     14  C   UNL     1       2.141 -10.255   4.987  0.00  0.00    -0.010 A 
ATOM     15  C   UNL     1       1.285 -11.018   4.214  0.00  0.00    +0.007 A 
ATOM     16  C   UNL     1       1.035 -12.335   4.554  0.00  0.00    +0.000 A 
ATOM     17  C   UNL     1       1.641 -12.888   5.666  0.00  0.00    +0.000 A 
ATOM     18  C   UNL     1       2.498 -12.126   6.438  0.00  0.00    +0.000 A 
ATOM     19  C   UNL     1       2.751 -10.810   6.096  0.00  0.00    +0.007 A 
ENDBRANCH   7  14
BRANCH   7  20
ATOM     20  O   UNL     1       3.733  -8.463   5.031  0.00  0.00    -0.377 OA
ATOM     21  H   UNL     1       3.977  -7.551   4.825  0.00  0.00    +0.211 HD
ENDBRANCH   7  20
ENDBRANCH   5   7
ENDBRANCH   3   5
BRANCH   1  22
ATOM     22  C   UNL     1       2.315  -5.311   1.234  0.00  0.00    +0.227 C 
BRANCH  22  23
ATOM     23  N   UNL     1       1.651  -4.999  -0.034  0.00  0.00    -0.194 N 
BRANCH  23  24
ATOM     24  C   UNL     1       2.284  -5.292  -1.244  0.00  0.00    +0.052 A 
ATOM     25  C   UNL     1       3.515  -4.721  -1.542  0.00  0.00    +0.025 A 
ATOM     26  C   UNL     1       4.139  -5.013  -2.739  0.00  0.00    +0.002 A 
ATOM     27  C   UNL     1       3.539  -5.872  -3.642  0.00  0.00    +0.000 A 
ATOM     28  C   UNL     1       2.313  -6.441  -3.349  0.00  0.00    +0.002 A 
ATOM     29  C   UNL     1       1.687  -6.158  -2.151  0.00  0.00    +0.025 A 
ENDBRANCH  23  24
BRANCH  23  30
ATOM     30  S   UNL     1       0.149  -4.301  -0.033  0.00  0.00    +0.075 S 
ATOM     31  O   UNL     1      -0.501  -4.738   1.152  0.00  0.00    -0.150 OA
ATOM     32  O   UNL     1      -0.399  -4.515  -1.326  0.00  0.00    -0.150 OA
BRANCH  30  37
ATOM     33  C   UNL     1       0.949   1.653   0.535  0.00  0.00    +0.044 C 
ATOM     34  C   UNL     1       0.750   0.166   0.394  0.00  0.00    -0.050 A 
ATOM     35  C   UNL     1       0.708  -0.409  -0.863  0.00  0.00    +0.005 A 
ATOM     36  C   UNL     1       0.525  -1.773  -0.993  0.00  0.00    +0.029 A 
ATOM     37  C   UNL     1       0.384  -2.562   0.133  0.00  0.00    +0.109 A 
ATOM     38  C   UNL     1       0.427  -1.988   1.389  0.00  0.00    +0.029 A 
ATOM     39  C   UNL     1       0.614  -0.624   1.520  0.00  0.00    +0.005 A 
ENDBRANCH  30  37
ENDBRANCH  23  30
ENDBRANCH  22  23
ENDBRANCH   1  22
TORSDOF 10
