REMARK  Name = ZINC13639856
REMARK  5 active torsions:
REMARK  status: ('A' for Active; 'I' for Inactive)
REMARK    1  A    between atoms: C_3  and  C_9
REMARK    2  A    between atoms: C_4  and  O_8
REMARK    3  A    between atoms: C_6  and  O_7
REMARK    4  A    between atoms: C_20  and  S_25
REMARK    5  A    between atoms: S_25  and  N_28
REMARK                            x       y       z     vdW  Elec       q    Type
REMARK                         _______ _______ _______ _____ _____    ______ ____
ROOT
ATOM      1  C   UNL     1      -0.764   0.800   2.486  0.00  0.00    +0.108 C 
ATOM      2  C   UNL     1      -0.807   1.618   1.208  0.00  0.00    +0.029 C 
ATOM      3  C   UNL     1      -0.013   1.086   0.008  0.00  0.00    +0.033 C 
ATOM      4  C   UNL     1      -0.827   1.630  -1.167  0.00  0.00    -0.030 C 
ATOM      5  C   UNL     1      -2.088   1.820  -0.796  0.00  0.00    -0.023 C 
ATOM      6  C   UNL     1      -2.234   1.398   0.620  0.00  0.00    +0.049 C 
ATOM      7  C   UNL     1      -3.189   2.058   1.538  0.00  0.00    -0.018 A 
ATOM      8  C   UNL     1      -4.354   2.651   1.081  0.00  0.00    +0.034 A 
ATOM      9  C   UNL     1      -5.236   3.229   1.975  0.00  0.00    +0.106 A 
ATOM     10  C   UNL     1      -4.964   3.200   3.331  0.00  0.00    +0.030 A 
ATOM     11  C   UNL     1      -3.812   2.600   3.794  0.00  0.00    +0.025 A 
ATOM     12  C   UNL     1      -2.915   2.021   2.903  0.00  0.00    +0.031 A 
ATOM     13  N   UNL     1      -1.744   1.433   3.396  0.00  0.00    -0.336 N 
ATOM     14  H   UNL     1      -1.573   1.440   4.351  0.00  0.00    +0.147 HD
ENDROOT
BRANCH   1  17
ATOM     15  C   UNL     1       2.146   1.748   4.697  0.00  0.00    +0.046 A 
ATOM     16  C   UNL     1       0.882   1.706   4.138  0.00  0.00    +0.012 A 
ATOM     17  C   UNL     1       0.616   0.848   3.089  0.00  0.00    +0.015 A 
ATOM     18  C   UNL     1       1.621   0.033   2.585  0.00  0.00    +0.125 A 
ATOM     19  C   UNL     1       2.890   0.077   3.140  0.00  0.00    +0.091 A 
ATOM     20  C   UNL     1       3.153   0.935   4.197  0.00  0.00    +0.120 A 
BRANCH  20  21
ATOM     21  O   UNL     1       4.397   0.980   4.743  0.00  0.00    -0.507 OA
ATOM     22  H   UNL     1       4.985   1.627   4.330  0.00  0.00    +0.292 HD
ENDBRANCH  20  21
BRANCH  18  23
ATOM     23  O   UNL     1       1.360  -0.807   1.549  0.00  0.00    -0.506 OA
ATOM     24  H   UNL     1       1.513  -0.416   0.678  0.00  0.00    +0.292 HD
ENDBRANCH  18  23
ENDBRANCH   1  17
BRANCH   9  25
ATOM     25  S   UNL     1      -6.706   4.003   1.387  0.00  0.00    +0.061 S 
ATOM     26  O   UNL     1      -6.997   3.418   0.125  0.00  0.00    -0.153 OA
ATOM     27  O   UNL     1      -7.631   3.989   2.465  0.00  0.00    -0.153 OA
BRANCH  25  28
ATOM     28  N   UNL     1      -6.340   5.593   1.098  0.00  0.00    -0.177 NA
ATOM     29  C   UNL     1      -6.503   6.602   2.153  0.00  0.00    +0.109 C 
ATOM     30  C   UNL     1      -5.177   7.360   2.313  0.00  0.00    +0.017 C 
ATOM     31  C   UNL     1      -4.755   7.931   0.958  0.00  0.00    +0.003 C 
ATOM     32  C   UNL     1      -4.539   6.786  -0.035  0.00  0.00    +0.017 C 
ATOM     33  C   UNL     1      -5.853   6.021  -0.220  0.00  0.00    +0.109 C 
ENDBRANCH  25  28
ENDBRANCH   9  25
TORSDOF 5
