REMARK  Name = ZINC65396666
REMARK  8 active torsions:
REMARK  status: ('A' for Active; 'I' for Inactive)
REMARK    1  A    between atoms: C_1  and  C_2
REMARK    2  A    between atoms: C_4  and  C_9
REMARK    3  A    between atoms: C_5  and  C_8
REMARK    4  A    between atoms: C_9  and  N_10
REMARK    5  A    between atoms: C_13  and  C_26
REMARK    6  A    between atoms: C_15  and  C_17
REMARK    7  A    between atoms: C_20  and  C_23
REMARK    8  A    between atoms: C_23  and  C_25
REMARK                            x       y       z     vdW  Elec       q    Type
REMARK                         _______ _______ _______ _____ _____    ______ ____
ROOT
ATOM      1  N   UNL     1      -2.963   0.888  -0.882  0.00  0.00    +0.396 N 
ATOM      2  C   UNL     1      -2.048   1.956  -1.361  0.00  0.00    +0.006 C 
ATOM      3  N   UNL     1      -2.958   3.080  -1.698  0.00  0.00    -0.327 NA
ATOM      4  C   UNL     1      -4.139   2.429  -2.312  0.00  0.00    +0.073 C 
ATOM      5  C   UNL     1      -4.143   0.985  -1.774  0.00  0.00    -0.014 C 
ATOM      6  H   UNL     1      -3.219   3.595  -0.870  0.00  0.00    +0.120 HD
ATOM      7  H   UNL     1      -3.232   1.056   0.076  0.00  0.00    -0.079 HD
ENDROOT
BRANCH   5   8
ATOM      8  C   UNL     1      -5.407   0.721  -0.997  0.00  0.00    -0.059 A 
ATOM      9  C   UNL     1      -5.549   1.235   0.280  0.00  0.00    +0.003 A 
ATOM     10  C   UNL     1      -6.702   0.998   0.998  0.00  0.00    +0.011 A 
ATOM     11  C   UNL     1      -7.730   0.236   0.432  0.00  0.00    +0.017 A 
ATOM     12  C   UNL     1      -7.578  -0.280  -0.859  0.00  0.00    +0.011 A 
ATOM     13  C   UNL     1      -6.421  -0.029  -1.566  0.00  0.00    +0.003 A 
BRANCH  11  14
ATOM     14  C   UNL     1      -8.963  -0.022   1.192  0.00  0.00    +0.160 C 
ATOM     15  O   UNL     1      -9.091   0.426   2.311  0.00  0.00    -0.292 OA
ATOM     16  C   UNL     1     -10.068  -0.844   0.578  0.00  0.00    +0.091 C 
ENDBRANCH  11  14
ENDBRANCH   5   8
BRANCH   4  17
ATOM     17  C   UNL     1      -5.401   3.142  -1.899  0.00  0.00    -0.032 A 
ATOM     18  C   UNL     1      -5.531   3.628  -0.611  0.00  0.00    +0.005 A 
ATOM     19  C   UNL     1      -6.688   4.282  -0.233  0.00  0.00    +0.000 A 
ATOM     20  C   UNL     1      -7.715   4.452  -1.143  0.00  0.00    +0.000 A 
ATOM     21  C   UNL     1      -7.585   3.968  -2.431  0.00  0.00    +0.000 A 
ATOM     22  C   UNL     1      -6.426   3.317  -2.810  0.00  0.00    +0.005 A 
ENDBRANCH   4  17
BRANCH   1  23
ATOM     23  C   UNL     1      -2.327  -0.429  -1.013  0.00  0.00    -0.041 C 
BRANCH  23  26
ATOM     24  C   UNL     1      -1.874  -2.387   1.581  0.00  0.00    +0.039 C 
ATOM     25  C   UNL     1      -1.324  -0.965   1.457  0.00  0.00    +0.151 C 
ATOM     26  C   UNL     1      -1.218  -0.555  -0.001  0.00  0.00    -0.038 C 
ATOM     27  C   UNL     1       0.086  -0.333  -0.178  0.00  0.00    +0.060 C 
ATOM     28  N   UNL     1       0.770  -0.552   0.967  0.00  0.00    -0.159 NA
ATOM     29  N   UNL     1       0.071  -0.903   1.925  0.00  0.00    -0.180 NA
ATOM     30  C   UNL     1       0.711   0.102  -1.478  0.00  0.00    +0.067 C 
ENDBRANCH  23  26
ENDBRANCH   1  23
TORSDOF 5
