REMARK  Name = ZINC21219545
REMARK  7 active torsions:
REMARK  status: ('A' for Active; 'I' for Inactive)
REMARK    1  A    between atoms: C_1  and  C_2
REMARK    2  A    between atoms: C_2  and  O_3
REMARK    3  A    between atoms: O_3  and  C_4
REMARK    4  A    between atoms: C_6  and  C_13
REMARK    5  A    between atoms: C_9  and  O_10
REMARK    6  A    between atoms: O_10  and  C_11
REMARK    7  A    between atoms: C_18  and  C_23
REMARK                            x       y       z     vdW  Elec       q    Type
REMARK                         _______ _______ _______ _____ _____    ______ ____
ROOT
ATOM      1  C   UNL     1       1.148   3.596   0.010  0.00  0.00    +0.136 C 
ATOM      2  C   UNL     1       1.439   4.086  -1.388  0.00  0.00    +0.036 C 
ATOM      3  C   UNL     1       2.559   4.704  -1.793  0.00  0.00    +0.017 C 
ATOM      4  C   UNL     1       2.713   5.159  -3.234  0.00  0.00    +0.059 C 
ATOM      5  C   UNL     1       1.961   4.210  -4.165  0.00  0.00    +0.032 C 
ATOM      6  C   UNL     1       0.484   4.225  -3.754  0.00  0.00    +0.088 C 
ATOM      7  C   UNL     1       0.389   3.839  -2.308  0.00  0.00    +0.163 C 
ATOM      8  O   UNL     1      -0.624   3.295  -1.913  0.00  0.00    -0.292 OA
ATOM      9  N   UNL     1       3.615   4.988  -0.989  0.00  0.00    -0.316 N 
ATOM     10  C   UNL     1       4.195   4.099  -0.092  0.00  0.00    +0.052 A 
ATOM     11  C   UNL     1       5.512   3.689  -0.204  0.00  0.00    +0.025 A 
ATOM     12  C   UNL     1       6.063   2.895   0.787  0.00  0.00    +0.002 A 
ATOM     13  C   UNL     1       5.303   2.515   1.879  0.00  0.00    +0.002 A 
ATOM     14  C   UNL     1       3.979   2.905   1.981  0.00  0.00    +0.025 A 
ATOM     15  C   UNL     1       3.420   3.685   0.981  0.00  0.00    +0.049 A 
ATOM     16  N   UNL     1       2.079   4.063   1.015  0.00  0.00    -0.331 N 
ATOM     17  H   UNL     1       4.076   5.986  -1.019  0.00  0.00    +0.152 HD
ATOM     18  H   UNL     1       1.731   4.727   1.821  0.00  0.00    +0.147 HD
ENDROOT
BRANCH   1  21
ATOM     19  C   UNL     1       0.033  -0.005   0.262  0.00  0.00    +0.163 A 
ATOM     20  C   UNL     1       0.014   1.381   0.269  0.00  0.00    +0.055 A 
ATOM     21  C   UNL     1       1.171   2.089   0.002  0.00  0.00    -0.018 A 
ATOM     22  C   UNL     1       2.348   1.419  -0.272  0.00  0.00    +0.025 A 
ATOM     23  C   UNL     1       2.374   0.036  -0.281  0.00  0.00    +0.063 A 
ATOM     24  C   UNL     1       1.217  -0.680  -0.014  0.00  0.00    +0.175 A 
ATOM     25 BR   UNL     1       3.986  -0.877  -0.657  0.00  0.00    -0.046 Br
BRANCH  24  26
ATOM     26  O   UNL     1       1.241  -2.040  -0.022  0.00  0.00    -0.490 OA
ATOM     27  C   UNL     1       0.964  -2.687  -1.266  0.00  0.00    +0.277 C 
ENDBRANCH  24  26
BRANCH  19  28
ATOM     28  O   UNL     1      -1.104  -0.703   0.524  0.00  0.00    -0.489 OA
BRANCH  28  30
ATOM     29  C   UNL     1      -3.451  -0.894   1.069  0.00  0.00    +0.048 C 
ATOM     30  C   UNL     1      -2.283   0.057   0.800  0.00  0.00    +0.226 C 
ENDBRANCH  28  30
ENDBRANCH  19  28
ENDBRANCH   1  21
BRANCH   5  31
ATOM     31  C   UNL     1       2.099   4.679  -5.591  0.00  0.00    -0.044 A 
ATOM     32  C   UNL     1       1.633   5.928  -5.956  0.00  0.00    +0.004 A 
ATOM     33  C   UNL     1       1.764   6.359  -7.263  0.00  0.00    +0.000 A 
ATOM     34  C   UNL     1       2.351   5.538  -8.207  0.00  0.00    +0.000 A 
ATOM     35  C   UNL     1       2.812   4.286  -7.843  0.00  0.00    +0.000 A 
ATOM     36  C   UNL     1       2.686   3.857  -6.535  0.00  0.00    +0.004 A 
ENDBRANCH   5  31
TORSDOF 5
