REMARK  Name = ZINC20528373
REMARK  8 active torsions:
REMARK  status: ('A' for Active; 'I' for Inactive)
REMARK    1  A    between atoms: C_3  and  O_30
REMARK    2  A    between atoms: C_6  and  C_7
REMARK    3  A    between atoms: N_8  and  N_9
REMARK    4  A    between atoms: C_13  and  S_16
REMARK    5  A    between atoms: N_14  and  N_15
REMARK    6  A    between atoms: S_16  and  C_17
REMARK    7  A    between atoms: C_17  and  C_18
REMARK    8  A    between atoms: C_18  and  C_20
REMARK                            x       y       z     vdW  Elec       q    Type
REMARK                         _______ _______ _______ _____ _____    ______ ____
ROOT
ATOM      1  N   UNL     1      -4.128  -6.045   2.452  0.00  0.00    -0.204 N 
ATOM      2  C   UNL     1      -3.556  -4.827   2.113  0.00  0.00    +0.254 A 
ATOM      3  N   UNL     1      -4.041  -3.643   2.396  0.00  0.00    -0.109 NA
ATOM      4  N   UNL     1      -3.165  -2.681   1.877  0.00  0.00    -0.119 NA
ATOM      5  C   UNL     1      -2.172  -3.309   1.293  0.00  0.00    +0.210 A 
ATOM      6  N   UNL     1      -2.391  -4.652   1.419  0.00  0.00    -0.211 N 
ATOM      7  H   UNL     1      -3.634  -6.984   2.163  0.00  0.00    +0.177 HD
ENDROOT
BRANCH   6   8
ATOM      8  N   UNL     1      -1.585  -5.645   0.940  0.00  0.00    -0.294 N 
ATOM      9  H   UNL     1      -0.665  -5.391   0.392  0.00  0.00    +0.163 HD
ATOM     10  H   UNL     1      -1.856  -6.699   1.101  0.00  0.00    +0.163 HD
ENDBRANCH   6   8
BRANCH   1  12
ATOM     11  C   UNL     1      -5.870  -7.218   3.481  0.00  0.00    +0.138 C 
ATOM     12  N   UNL     1      -5.335  -6.078   3.163  0.00  0.00    -0.188 NA
BRANCH  11  18
ATOM     13  C   UNL     1      -7.766  -6.061   4.603  0.00  0.00    +0.013 A 
ATOM     14  C   UNL     1      -8.955  -6.099   5.299  0.00  0.00    +0.046 A 
ATOM     15  C   UNL     1      -9.525  -7.319   5.637  0.00  0.00    +0.117 A 
ATOM     16  C   UNL     1      -8.904  -8.506   5.272  0.00  0.00    +0.046 A 
ATOM     17  C   UNL     1      -7.717  -8.478   4.572  0.00  0.00    +0.013 A 
ATOM     18  C   UNL     1      -7.139  -7.253   4.229  0.00  0.00    -0.005 A 
BRANCH  15  19
ATOM     19  O   UNL     1     -10.695  -7.351   6.327  0.00  0.00    -0.507 OA
ATOM     20  H   UNL     1     -11.149  -8.317   6.596  0.00  0.00    +0.292 HD
ENDBRANCH  15  19
ENDBRANCH  11  18
ENDBRANCH   1  12
BRANCH   5  21
ATOM     21  S   UNL     1      -0.802  -2.555   0.483  0.00  0.00    -0.077 S 
BRANCH  21  22
ATOM     22  C   UNL     1      -1.112  -0.776   0.661  0.00  0.00    +0.152 C 
BRANCH  22  23
ATOM     23  C   UNL     1       0.002  -0.004   0.002  0.00  0.00    +0.147 C 
ATOM     24  O   UNL     1       0.911  -0.593  -0.533  0.00  0.00    -0.296 OA
BRANCH  23  25
ATOM     25  C   UNL     1      -0.018   1.503   0.010  0.00  0.00    +0.062 C 
ATOM     26  C   UNL     1      -1.071   2.004  -0.980  0.00  0.00    +0.000 C 
ATOM     27  C   UNL     1      -1.092   3.534  -0.972  0.00  0.00    +0.007 C 
ATOM     28  C   UNL     1       0.284   4.065  -1.378  0.00  0.00    -0.010 C 
ATOM     29  C   UNL     1       0.629   3.567  -2.783  0.00  0.00    +0.007 C 
ATOM     30  C   UNL     1       0.649   2.037  -2.792  0.00  0.00    -0.010 C 
ATOM     31  C   UNL     1      -0.727   1.506  -2.386  0.00  0.00    +0.007 C 
ATOM     32  C   UNL     1       1.702   1.536  -1.801  0.00  0.00    +0.007 C 
ATOM     33  C   UNL     1       1.358   2.034  -0.396  0.00  0.00    +0.000 C 
ATOM     34  C   UNL     1       1.337   3.564  -0.387  0.00  0.00    +0.007 C 
ENDBRANCH  23  25
ENDBRANCH  22  23
ENDBRANCH  21  22
ENDBRANCH   5  21
TORSDOF 8
