REMARK  Name = ZINC64110320
REMARK  6 active torsions:
REMARK  status: ('A' for Active; 'I' for Inactive)
REMARK    1  A    between atoms: C_8  and  C_30
REMARK    2  A    between atoms: N_10  and  C_16
REMARK    3  A    between atoms: C_16  and  C_17
REMARK    4  A    between atoms: C_20  and  O_23
REMARK    5  A    between atoms: O_23  and  C_24
REMARK    6  A    between atoms: C_34  and  O_36
REMARK                            x       y       z     vdW  Elec       q    Type
REMARK                         _______ _______ _______ _____ _____    ______ ____
ROOT
ATOM      1  C   UNL     1       0.352   1.329   0.504  0.00  0.00    +0.001 A 
ATOM      2  C   UNL     1       1.549   2.055   0.440  0.00  0.00    +0.002 A 
ATOM      3  C   UNL     1       2.756   1.460   0.324  0.00  0.00    +0.026 A 
ATOM      4  C   UNL     1       2.859   0.045   0.260  0.00  0.00    +0.043 A 
ATOM      5  N   UNL     1       3.897  -0.750   0.123  0.00  0.00    -0.376 N 
ATOM      6  C   UNL     1       3.435  -2.131   0.213  0.00  0.00    +0.128 C 
ATOM      7  C   UNL     1       3.830  -2.965  -1.010  0.00  0.00    +0.114 C 
ATOM      8  N   UNL     1       3.083  -4.232  -0.966  0.00  0.00    -0.289 NA
ATOM      9  C   UNL     1       1.639  -4.059  -1.149  0.00  0.00    +0.090 C 
ATOM     10  C   UNL     1       1.048  -3.270   0.035  0.00  0.00    +0.049 C 
ATOM     11  C   UNL     1       1.917  -2.047   0.228  0.00  0.00    -0.035 C 
ATOM     12  C   UNL     1       1.605  -0.749   0.317  0.00  0.00    -0.001 A 
ATOM     13  C   UNL     1       0.336  -0.022   0.448  0.00  0.00    +0.010 A 
ATOM     14  H   UNL     1       4.814  -0.466  -0.014  0.00  0.00    +0.160 HD
ENDROOT
BRANCH   7  15
ATOM     15  C   UNL     1       5.310  -3.245  -0.977  0.00  0.00    -0.025 A 
ATOM     16  C   UNL     1       5.803  -4.261  -0.178  0.00  0.00    +0.005 A 
ATOM     17  C   UNL     1       7.161  -4.521  -0.146  0.00  0.00    +0.004 A 
ATOM     18  C   UNL     1       8.028  -3.765  -0.911  0.00  0.00    +0.045 A 
ATOM     19  C   UNL     1       7.536  -2.746  -1.713  0.00  0.00    +0.117 A 
ATOM     20  C   UNL     1       6.173  -2.492  -1.749  0.00  0.00    +0.050 A 
BRANCH  19  21
ATOM     21  O   UNL     1       8.387  -2.002  -2.467  0.00  0.00    -0.507 OA
ATOM     22  H   UNL     1       8.540  -2.357  -3.354  0.00  0.00    +0.292 HD
ENDBRANCH  19  21
ENDBRANCH   7  15
BRANCH   8  23
ATOM     23  C   UNL     1       3.624  -5.195  -1.935  0.00  0.00    +0.120 C 
BRANCH  23  24
ATOM     24  C   UNL     1       3.006  -6.549  -1.696  0.00  0.00    -0.033 A 
ATOM     25  C   UNL     1       3.605  -7.436  -0.820  0.00  0.00    +0.008 A 
ATOM     26  C   UNL     1       3.040  -8.678  -0.600  0.00  0.00    +0.047 A 
ATOM     27  C   UNL     1       1.872  -9.034  -1.258  0.00  0.00    +0.132 A 
ATOM     28  C   UNL     1       1.274  -8.142  -2.136  0.00  0.00    +0.047 A 
ATOM     29  C   UNL     1       1.839  -6.899  -2.349  0.00  0.00    +0.008 A 
BRANCH  27  30
ATOM     30  O   UNL     1       1.315 -10.255  -1.044  0.00  0.00    -0.424 OA
BRANCH  30  31
ATOM     31  C   UNL     1       0.763 -10.498   0.169  0.00  0.00    +0.323 A 
ATOM     32  N   UNL     1       0.676  -9.512   1.048  0.00  0.00    -0.203 NA
ATOM     33  C   UNL     1       0.142  -9.715   2.241  0.00  0.00    +0.118 A 
ATOM     34  C   UNL     1      -0.330 -10.977   2.565  0.00  0.00    +0.040 A 
ATOM     35  C   UNL     1      -0.224 -11.986   1.620  0.00  0.00    +0.118 A 
ATOM     36  N   UNL     1       0.317 -11.713   0.444  0.00  0.00    -0.203 NA
ENDBRANCH  30  31
ENDBRANCH  27  30
ENDBRANCH  23  24
ENDBRANCH   8  23
TORSDOF 6
