REMARK  Name = ZINC00207318
REMARK  9 active torsions:
REMARK  status: ('A' for Active; 'I' for Inactive)
REMARK    1  A    between atoms: C_1  and  C_2
REMARK    2  A    between atoms: C_2  and  O_3
REMARK    3  A    between atoms: O_3  and  C_4
REMARK    4  A    between atoms: C_6  and  C_12
REMARK    5  A    between atoms: C_9  and  O_10
REMARK    6  A    between atoms: O_10  and  C_11
REMARK    7  A    between atoms: C_17  and  N_26
REMARK    8  A    between atoms: C_21  and  N_25
REMARK    9  A    between atoms: C_22  and  C_23
REMARK                            x       y       z     vdW  Elec       q    Type
REMARK                         _______ _______ _______ _____ _____    ______ ____
ROOT
ATOM      1  C   UNL     1      -1.118   7.126   1.853  0.00  0.00    +0.098 C 
ATOM      2  C   UNL     1       0.260   7.728   1.923  0.00  0.00    +0.008 A 
ATOM      3  C   UNL     1       0.998   7.606   3.088  0.00  0.00    +0.010 A 
ATOM      4  C   UNL     1       2.263   8.152   3.171  0.00  0.00    +0.023 A 
ATOM      5  C   UNL     1       2.801   8.826   2.082  0.00  0.00    +0.028 A 
ATOM      6  C   UNL     1       2.064   8.950   0.913  0.00  0.00    +0.069 A 
ATOM      7  C   UNL     1       0.791   8.400   0.833  0.00  0.00    +0.136 A 
ATOM      8  O   UNL     1       0.084   8.530  -0.317  0.00  0.00    -0.441 OA
ATOM      9  C   UNL     1      -1.249   8.364  -0.305  0.00  0.00    +0.199 C 
ATOM     10  C   UNL     1      -1.881   7.707   0.696  0.00  0.00    +0.098 C 
ENDROOT
BRANCH   1  13
ATOM     11  C   UNL     1      -1.427   3.411   2.468  0.00  0.00    +0.162 A 
ATOM     12  C   UNL     1      -1.532   4.784   2.629  0.00  0.00    +0.054 A 
ATOM     13  C   UNL     1      -1.003   5.634   1.677  0.00  0.00    -0.031 A 
ATOM     14  C   UNL     1      -0.368   5.119   0.562  0.00  0.00    +0.008 A 
ATOM     15  C   UNL     1      -0.254   3.751   0.398  0.00  0.00    +0.050 A 
ATOM     16  C   UNL     1      -0.787   2.893   1.346  0.00  0.00    +0.162 A 
BRANCH  16  17
ATOM     17  O   UNL     1      -0.682   1.547   1.184  0.00  0.00    -0.491 OA
ATOM     18  C   UNL     1      -0.013   1.086   0.008  0.00  0.00    +0.277 C 
ENDBRANCH  16  17
BRANCH  11  19
ATOM     19  O   UNL     1      -1.947   2.574   3.404  0.00  0.00    -0.489 OA
BRANCH  19  21
ATOM     20  C   UNL     1      -3.107   2.084   5.467  0.00  0.00    +0.048 C 
ATOM     21  C   UNL     1      -2.589   3.176   4.530  0.00  0.00    +0.226 C 
ENDBRANCH  19  21
ENDBRANCH  11  19
ENDBRANCH   1  13
BRANCH   9  22
ATOM     22  N   UNL     1      -1.993   8.875  -1.340  0.00  0.00    -0.328 N 
ATOM     23  H   UNL     1      -2.956   8.763  -1.346  0.00  0.00    +0.145 HD
ATOM     24  H   UNL     1      -1.555   9.348  -2.064  0.00  0.00    +0.145 HD
ENDBRANCH   9  22
BRANCH   5  25
ATOM     25  N   UNL     1       4.081   9.379   2.164  0.00  0.00    -0.358 N 
ATOM     26  H   UNL     1       4.596   9.292   2.981  0.00  0.00    +0.142 HD
ATOM     27  H   UNL     1       4.456   9.849   1.403  0.00  0.00    +0.142 HD
ENDBRANCH   5  25
BRANCH  10  28
ATOM     28  C   UNL     1      -3.305   7.563   0.651  0.00  0.00    +0.101 C 
ATOM     29  N   UNL     1      -4.435   7.448   0.616  0.00  0.00    -0.191 NA
ENDBRANCH  10  28
TORSDOF 7
