REMARK  Name = ZINC05195561
REMARK  6 active torsions:
REMARK  status: ('A' for Active; 'I' for Inactive)
REMARK    1  A    between atoms: C_1  and  C_2
REMARK    2  A    between atoms: C_2  and  C_3
REMARK    3  A    between atoms: C_3  and  C_5
REMARK    4  A    between atoms: C_3  and  N_6
REMARK    5  A    between atoms: N_9  and  C_10
REMARK    6  A    between atoms: N_15  and  C_17
REMARK                            x       y       z     vdW  Elec       q    Type
REMARK                         _______ _______ _______ _____ _____    ______ ____
ROOT
ATOM      1  C   UNL     1       3.877   5.707   0.365  0.00  0.00    +0.101 C 
ATOM      2  C   UNL     1       4.643   4.399   0.057  0.00  0.00    +0.120 C 
ATOM      3  C   UNL     1       3.575   3.328   0.083  0.00  0.00    +0.222 C 
ATOM      4  O   UNL     1       3.788   2.137   0.167  0.00  0.00    -0.275 OA
ATOM      5  N   UNL     1       2.356   3.889   0.000  0.00  0.00    -0.270 N 
ATOM      6  C   UNL     1       2.447   5.350  -0.104  0.00  0.00    +0.136 C 
ENDROOT
BRANCH   5   7
ATOM      7  C   UNL     1       1.155   3.171   0.008  0.00  0.00    +0.036 A 
ATOM      8  C   UNL     1       1.174   1.782  -0.015  0.00  0.00    +0.025 A 
ATOM      9  C   UNL     1      -0.013   1.076  -0.007  0.00  0.00    +0.022 A 
ATOM     10  C   UNL     1      -1.221   1.751   0.017  0.00  0.00    +0.041 A 
ATOM     11  C   UNL     1      -1.243   3.134   0.045  0.00  0.00    +0.022 A 
ATOM     12  C   UNL     1      -0.059   3.845   0.038  0.00  0.00    +0.025 A 
ATOM     13 CL   UNL     1      -2.711   0.860   0.019  0.00  0.00    -0.084 Cl
ENDBRANCH   5   7
BRANCH   1  17
ATOM     14  N   UNL     1       5.957   8.562  -0.652  0.00  0.00    -0.297 N 
ATOM     15  C   UNL     1       5.461   7.533   0.062  0.00  0.00    +0.300 C 
ATOM     16  O   UNL     1       5.957   7.241   1.133  0.00  0.00    -0.253 OA
ATOM     17  N   UNL     1       4.416   6.826  -0.411  0.00  0.00    -0.295 N 
ATOM     18  H   UNL     1       5.561   8.795  -1.507  0.00  0.00    +0.151 HD
ATOM     19  H   UNL     1       4.020   7.058  -1.266  0.00  0.00    +0.151 HD
BRANCH  14  20
ATOM     20  C   UNL     1       7.093   9.331  -0.138  0.00  0.00    +0.071 C 
ATOM     21  C   UNL     1       8.398   8.629  -0.520  0.00  0.00    +0.028 C 
BRANCH  20  23
ATOM     22  C   UNL     1       5.829  11.482  -0.259  0.00  0.00    +0.005 C 
ATOM     23  C   UNL     1       7.074  10.736  -0.743  0.00  0.00    +0.019 C 
ENDBRANCH  20  23
ENDBRANCH  14  20
ENDBRANCH   1  17
TORSDOF 4
