REMARK  Name = ZINC06668334
REMARK  8 active torsions:
REMARK  status: ('A' for Active; 'I' for Inactive)
REMARK    1  A    between atoms: C_1  and  N_56
REMARK    2  A    between atoms: C_2  and  C_3
REMARK    3  A    between atoms: C_2  and  C_9
REMARK    4  A    between atoms: C_2  and  C_15
REMARK    5  A    between atoms: C_2  and  N_56
REMARK    6  A    between atoms: C_20  and  N_21
REMARK    7  A    between atoms: N_21  and  C_22
REMARK    8  A    between atoms: C_23  and  C_25
REMARK                            x       y       z     vdW  Elec       q    Type
REMARK                         _______ _______ _______ _____ _____    ______ ____
ROOT
ATOM      1  C   UNL     1       6.219  -1.474   1.894  0.00  0.00    +0.011 C 
ENDROOT
BRANCH   1   2
ATOM      2  C   UNL     1       5.259  -0.422   2.386  0.00  0.00    -0.050 A 
ATOM      3  C   UNL     1       4.559   0.353   1.480  0.00  0.00    +0.003 A 
ATOM      4  C   UNL     1       3.674   1.315   1.932  0.00  0.00    +0.000 A 
ATOM      5  C   UNL     1       3.497   1.508   3.289  0.00  0.00    +0.000 A 
ATOM      6  C   UNL     1       4.202   0.737   4.195  0.00  0.00    +0.000 A 
ATOM      7  C   UNL     1       5.082  -0.228   3.743  0.00  0.00    +0.003 A 
ENDBRANCH   1   2
BRANCH   1   8
ATOM      8  C   UNL     1       5.477  -2.474   1.046  0.00  0.00    -0.050 A 
ATOM      9  C   UNL     1       5.628  -2.463  -0.328  0.00  0.00    +0.003 A 
ATOM     10  C   UNL     1       4.951  -3.384  -1.106  0.00  0.00    +0.000 A 
ATOM     11  C   UNL     1       4.114  -4.309  -0.510  0.00  0.00    +0.000 A 
ATOM     12  C   UNL     1       3.959  -4.317   0.864  0.00  0.00    +0.000 A 
ATOM     13  C   UNL     1       4.640  -3.399   1.641  0.00  0.00    +0.003 A 
ENDBRANCH   1   8
BRANCH   1  14
ATOM     14  C   UNL     1       7.300  -0.822   1.071  0.00  0.00    -0.028 A 
ATOM     15  C   UNL     1       7.819  -1.474  -0.031  0.00  0.00    +0.005 A 
ATOM     16  C   UNL     1       8.811  -0.876  -0.786  0.00  0.00    +0.000 A 
ATOM     17  C   UNL     1       9.286   0.377  -0.443  0.00  0.00    +0.002 A 
ATOM     18  C   UNL     1       8.768   1.036   0.654  0.00  0.00    +0.024 A 
ATOM     19  C   UNL     1       7.775   0.436   1.419  0.00  0.00    +0.039 A 
BRANCH  19  20
ATOM     20  N   UNL     1       7.252   1.099   2.533  0.00  0.00    -0.270 N 
ATOM     21  C   UNL     1       7.707   0.743   3.879  0.00  0.00    +0.138 C 
ATOM     22  C   UNL     1       6.328   2.067   2.369  0.00  0.00    +0.251 C 
ATOM     23  O   UNL     1       5.897   2.667   3.334  0.00  0.00    -0.270 OA
BRANCH  22  24
ATOM     24  C   UNL     1       5.838   2.399   1.014  0.00  0.00    +0.037 A 
ATOM     25  C   UNL     1       5.113   3.572   0.799  0.00  0.00    +0.013 A 
ATOM     26  C   UNL     1       4.660   3.877  -0.468  0.00  0.00    +0.001 A 
ATOM     27  C   UNL     1       4.921   3.022  -1.524  0.00  0.00    +0.000 A 
ATOM     28  C   UNL     1       5.640   1.857  -1.317  0.00  0.00    +0.001 A 
ATOM     29  C   UNL     1       6.099   1.541  -0.056  0.00  0.00    +0.013 A 
ENDBRANCH  22  24
ENDBRANCH  19  20
ENDBRANCH   1  14
BRANCH   1  31
ATOM     30  C   UNL     1       7.652  -3.292   2.604  0.00  0.00    -0.098 C 
ATOM     31  N   UNL     1       6.824  -2.157   3.053  0.00  0.00    +0.389 N 
ATOM     32  H   UNL     1       7.412  -1.492   3.569  0.00  0.00    -0.084 HD
ATOM     33  H   UNL     1       6.078  -2.504   3.668  0.00  0.00    -0.084 HD
ENDBRANCH   1  31
TORSDOF 6
