REMARK  Name = ZINC25415565
REMARK  8 active torsions:
REMARK  status: ('A' for Active; 'I' for Inactive)
REMARK    1  A    between atoms: C_1  and  C_2
REMARK    2  A    between atoms: C_5  and  C_8
REMARK    3  A    between atoms: C_9  and  C_34
REMARK    4  A    between atoms: C_17  and  C_19
REMARK    5  A    between atoms: C_19  and  N_20
REMARK    6  A    between atoms: C_24  and  C_26
REMARK    7  A    between atoms: C_29  and  O_32
REMARK    8  A    between atoms: O_32  and  C_33
REMARK                            x       y       z     vdW  Elec       q    Type
REMARK                         _______ _______ _______ _____ _____    ______ ____
ROOT
ATOM      1  C   UNL     1       2.481   1.071  -0.015  0.00  0.00    +0.007 A 
ATOM      2  C   UNL     1       2.835   0.311  -1.080  0.00  0.00    -0.003 A 
ATOM      3  S   UNL     1       4.436  -0.322  -0.619  0.00  0.00    -0.073 S 
ATOM      4  C   UNL     1       4.591   0.441   0.976  0.00  0.00    +0.116 A 
ATOM      5  C   UNL     1       3.400   1.173   1.111  0.00  0.00    +0.080 A 
ATOM      6  C   UNL     1       3.254   1.897   2.337  0.00  0.00    +0.260 A 
ATOM      7  O   UNL     1       2.253   2.559   2.549  0.00  0.00    -0.267 OA
ATOM      8  N   UNL     1       4.242   1.841   3.250  0.00  0.00    -0.312 N 
ATOM      9  H   UNL     1       4.149   2.395   4.196  0.00  0.00    +0.170 HD
ATOM     10  C   UNL     1       5.364   1.109   3.031  0.00  0.00    +0.094 A 
ATOM     11  N   UNL     1       5.524   0.433   1.925  0.00  0.00    -0.229 NA
ATOM     12  C   UNL     1       2.062   0.061  -2.349  0.00  0.00    +0.052 C 
ENDROOT
BRANCH   1  17
ATOM     13  C   UNL     1      -2.554   3.865   0.047  0.00  0.00    +0.044 C 
ATOM     14  C   UNL     1      -1.236   3.134   0.031  0.00  0.00    -0.050 A 
ATOM     15  C   UNL     1      -1.216   1.751   0.017  0.00  0.00    +0.004 A 
ATOM     16  C   UNL     1      -0.013   1.076   0.008  0.00  0.00    +0.009 A 
ATOM     17  C   UNL     1       1.184   1.791   0.000  0.00  0.00    -0.016 A 
ATOM     18  C   UNL     1       1.158   3.185   0.008  0.00  0.00    +0.009 A 
ATOM     19  C   UNL     1      -0.052   3.849   0.023  0.00  0.00    +0.004 A 
ENDBRANCH   1  17
BRANCH  10  20
ATOM     20  C   UNL     1       6.443   1.075   4.082  0.00  0.00    -0.002 C 
BRANCH  20  21
ATOM     21  N   UNL     1       7.548   0.224   3.621  0.00  0.00    +0.389 N 
ATOM     22  C   UNL     1       8.276   0.859   2.507  0.00  0.00    -0.077 C 
ATOM     23  C   UNL     1       9.756   0.968   2.930  0.00  0.00    -0.020 C 
ATOM     24  C   UNL     1       9.888  -0.124   4.024  0.00  0.00    -0.013 C 
ATOM     25  C   UNL     1       8.505  -0.041   4.717  0.00  0.00    -0.037 C 
ATOM     26  H   UNL     1       7.101  -0.721   3.279  0.00  0.00    -0.080 HD
BRANCH  25  27
ATOM     27  C   UNL     1       8.178  -1.347   5.394  0.00  0.00    -0.061 A 
ATOM     28  C   UNL     1       7.777  -2.435   4.639  0.00  0.00    +0.005 A 
ATOM     29  C   UNL     1       7.482  -3.635   5.257  0.00  0.00    +0.046 A 
ATOM     30  C   UNL     1       7.578  -3.745   6.636  0.00  0.00    +0.120 A 
ATOM     31  C   UNL     1       7.975  -2.651   7.392  0.00  0.00    +0.046 A 
ATOM     32  C   UNL     1       8.274  -1.455   6.769  0.00  0.00    +0.005 A 
BRANCH  30  33
ATOM     33  O   UNL     1       7.284  -4.923   7.247  0.00  0.00    -0.495 OA
ATOM     34  C   UNL     1       6.882  -6.007   6.406  0.00  0.00    +0.277 C 
ENDBRANCH  30  33
ENDBRANCH  25  27
ENDBRANCH  20  21
ENDBRANCH  10  20
TORSDOF 5
