REMARK  Name = ZINC63280122
REMARK  10 active torsions:
REMARK  status: ('A' for Active; 'I' for Inactive)
REMARK    1  A    between atoms: C_1  and  O_2
REMARK    2  A    between atoms: O_2  and  C_3
REMARK    3  A    between atoms: C_5  and  C_22
REMARK    4  A    between atoms: C_8  and  O_9
REMARK    5  A    between atoms: O_9  and  C_10
REMARK    6  A    between atoms: N_15  and  C_16
REMARK    7  A    between atoms: C_22  and  N_23
REMARK    8  A    between atoms: N_23  and  C_24
REMARK    9  A    between atoms: C_24  and  C_25
REMARK   10  A    between atoms: C_25  and  C_26
REMARK                            x       y       z     vdW  Elec       q    Type
REMARK                         _______ _______ _______ _____ _____    ______ ____
ROOT
ATOM      1  C   UNL     1      -1.207  -0.660  -0.292  0.00  0.00    +0.162 A 
ATOM      2  C   UNL     1      -2.382   0.070  -0.370  0.00  0.00    +0.051 A 
ATOM      3  C   UNL     1      -3.602  -0.566  -0.235  0.00  0.00    -0.061 A 
ATOM      4  C   UNL     1      -3.653  -1.931  -0.022  0.00  0.00    +0.005 A 
ATOM      5  C   UNL     1      -2.484  -2.666   0.057  0.00  0.00    +0.050 A 
ATOM      6  C   UNL     1      -1.259  -2.034  -0.083  0.00  0.00    +0.166 A 
ENDROOT
BRANCH   1   8
ATOM      7  C   UNL     1      -0.031   1.378  -0.636  0.00  0.00    +0.277 C 
ATOM      8  O   UNL     1      -0.007  -0.035  -0.424  0.00  0.00    -0.491 OA
ENDBRANCH   1   8
BRANCH   6   9
ATOM      9  O   UNL     1      -0.108  -2.756  -0.012  0.00  0.00    -0.454 OA
BRANCH   9  10
ATOM     10  C   UNL     1      -0.238  -4.176   0.093  0.00  0.00    +0.340 C 
ATOM     11  N   UNL     1      -0.601  -4.556   1.480  0.00  0.00    -0.295 NA
ATOM     12  N   UNL     1       0.196  -5.775   1.700  0.00  0.00    +0.413 N 
ATOM     13  N   UNL     1       1.437  -5.490   0.967  0.00  0.00    -0.263 NA
ATOM     14  N   UNL     1       1.055  -4.826  -0.176  0.00  0.00    -0.230 N 
ATOM     15  H   UNL     1      -0.341  -3.832   2.133  0.00  0.00    +0.109 HD
ATOM     16  H   UNL     1       0.384  -5.907   2.683  0.00  0.00    -0.031 HD
ATOM     17  H   UNL     1       2.063  -4.925   1.522  0.00  0.00    +0.125 HD
ATOM     18  H   UNL     1      -0.270  -6.582   1.312  0.00  0.00    -0.031 HD
BRANCH  14  19
ATOM     19  C   UNL     1       1.767  -4.776  -1.377  0.00  0.00    +0.048 A 
ATOM     20  C   UNL     1       1.264  -4.059  -2.455  0.00  0.00    +0.024 A 
ATOM     21  C   UNL     1       1.970  -4.011  -3.641  0.00  0.00    +0.002 A 
ATOM     22  C   UNL     1       3.176  -4.677  -3.756  0.00  0.00    +0.000 A 
ATOM     23  C   UNL     1       3.680  -5.393  -2.685  0.00  0.00    +0.002 A 
ATOM     24  C   UNL     1       2.982  -5.439  -1.495  0.00  0.00    +0.024 A 
ENDBRANCH  14  19
ENDBRANCH   9  10
ENDBRANCH   6   9
BRANCH   3  25
ATOM     25  C   UNL     1      -4.879   0.230  -0.320  0.00  0.00    -0.047 C 
BRANCH  25  26
ATOM     26  N   UNL     1      -5.335   0.277  -1.716  0.00  0.00    +0.382 N 
ATOM     27  H   UNL     1      -4.627   0.715  -2.286  0.00  0.00    -0.085 HD
ATOM     28  H   UNL     1      -5.500  -0.662  -2.047  0.00  0.00    -0.085 HD
BRANCH  26  29
ATOM     29  C   UNL     1      -6.579   1.052  -1.798  0.00  0.00    -0.078 C 
BRANCH  29  30
ATOM     30  C   UNL     1      -7.054   1.101  -3.252  0.00  0.00    +0.014 C 
BRANCH  30  31
ATOM     31  C   UNL     1      -8.331   1.897  -3.337  0.00  0.00    -0.043 C 
ATOM     32  C   UNL     1      -8.452   3.210  -3.637  0.00  0.00    -0.001 A 
ATOM     33  C   UNL     1      -7.470   4.251  -3.961  0.00  0.00    +0.010 A 
ATOM     34  C   UNL     1      -7.904   5.505  -4.221  0.00  0.00    +0.001 A 
ATOM     35  C   UNL     1      -9.266   5.835  -4.190  0.00  0.00    +0.002 A 
ATOM     36  C   UNL     1     -10.228   4.934  -3.901  0.00  0.00    +0.026 A 
ATOM     37  C   UNL     1      -9.884   3.584  -3.611  0.00  0.00    +0.043 A 
ATOM     38  N   UNL     1     -10.620   2.542  -3.306  0.00  0.00    -0.380 N 
ATOM     39  C   UNL     1      -9.737   1.387  -3.111  0.00  0.00    +0.144 C 
ATOM     40  H   UNL     1     -11.587   2.536  -3.227  0.00  0.00    +0.160 HD
ENDBRANCH  30  31
ENDBRANCH  29  30
ENDBRANCH  26  29
ENDBRANCH  25  26
ENDBRANCH   3  25
TORSDOF 9
