REMARK  Name = ZINC13063737
REMARK  12 active torsions:
REMARK  status: ('A' for Active; 'I' for Inactive)
REMARK    1  A    between atoms: C_1  and  C_2
REMARK    2  A    between atoms: C_2  and  C_3
REMARK    3  A    between atoms: C_10  and  C_15
REMARK    4  A    between atoms: C_15  and  N_66
REMARK    5  A    between atoms: C_16  and  C_17
REMARK    6  A    between atoms: C_16  and  N_66
REMARK    7  A    between atoms: C_22  and  C_24
REMARK    8  A    between atoms: C_22  and  C_26
REMARK    9  A    between atoms: C_22  and  N_66
REMARK   10  A    between atoms: C_24  and  C_25
REMARK   11  A    between atoms: N_30  and  C_31
REMARK   12  A    between atoms: C_31  and  C_32
REMARK                            x       y       z     vdW  Elec       q    Type
REMARK                         _______ _______ _______ _____ _____    ______ ____
ROOT
ATOM      1  N   UNL     1       1.162   1.867   2.577  0.00  0.00    +0.392 N 
ATOM      2  H   UNL     1       1.093   2.891   2.587  0.00  0.00    -0.080 HD
ENDROOT
BRANCH   1   3
ATOM      3  C   UNL     1       2.023   1.456   1.449  0.00  0.00    -0.036 C 
BRANCH   3  11
ATOM      4  C   UNL     1       0.286  -4.082  -0.697  0.00  0.00    -0.047 A 
ATOM      5  C   UNL     1       1.174  -4.829   0.064  0.00  0.00    +0.005 A 
ATOM      6  C   UNL     1       2.046  -4.213   0.935  0.00  0.00    +0.026 A 
ATOM      7  C   UNL     1       2.036  -2.827   1.056  0.00  0.00    +0.049 A 
ATOM      8  C   UNL     1       1.134  -2.072   0.283  0.00  0.00    -0.001 A 
ATOM      9  C   UNL     1       0.258  -2.720  -0.595  0.00  0.00    +0.013 A 
ATOM     10  C   UNL     1       1.127  -0.615   0.421  0.00  0.00    +0.017 A 
ATOM     11  C   UNL     1       2.001  -0.042   1.286  0.00  0.00    +0.001 A 
ATOM     12  C   UNL     1       2.886  -0.845   2.037  0.00  0.00    +0.251 A 
ATOM     13  O   UNL     1       3.661  -0.310   2.811  0.00  0.00    -0.268 OA
ATOM     14  N   UNL     1       2.896  -2.184   1.920  0.00  0.00    -0.322 N 
ATOM     15  H   UNL     1       3.518  -2.705   2.452  0.00  0.00    +0.169 HD
BRANCH   4  17
ATOM     16  C   UNL     1       0.006  -4.917  -3.015  0.00  0.00    +0.009 C 
ATOM     17  C   UNL     1      -0.658  -4.779  -1.643  0.00  0.00    +0.032 C 
ENDBRANCH   4  17
ENDBRANCH   3  11
ENDBRANCH   1   3
BRANCH   1  18
ATOM     18  C   UNL     1       1.753   1.413   3.854  0.00  0.00    -0.034 C 
BRANCH  18  19
ATOM     19  C   UNL     1       2.965   2.257   4.155  0.00  0.00    -0.027 A 
ATOM     20  C   UNL     1       3.059   3.375   4.916  0.00  0.00    +0.009 A 
ATOM     21  C   UNL     1       4.289   3.991   5.053  0.00  0.00    +0.008 A 
ATOM     22  C   UNL     1       5.364   3.459   4.422  0.00  0.00    +0.045 A 
ATOM     23  S   UNL     1       4.650   2.041   3.606  0.00  0.00    -0.103 S 
ENDBRANCH  18  19
ENDBRANCH   1  18
BRANCH   1  24
ATOM     24  C   UNL     1      -0.191   1.295   2.415  0.00  0.00    +0.003 C 
BRANCH  24  25
ATOM     25  C   UNL     1      -1.027   1.666   3.613  0.00  0.00    +0.138 A 
ATOM     26  N   UNL     1      -1.091   2.841   4.189  0.00  0.00    -0.115 NA
ATOM     27  N   UNL     1      -1.914   2.756   5.177  0.00  0.00    -0.023 NA
ATOM     28  N   UNL     1      -2.377   1.557   5.245  0.00  0.00    -0.044 NA
ATOM     29  N   UNL     1      -1.858   0.856   4.294  0.00  0.00    -0.226 N 
BRANCH  29  30
ATOM     30  C   UNL     1      -2.122  -0.558   4.012  0.00  0.00    +0.182 C 
BRANCH  30  31
ATOM     31  C   UNL     1      -1.145  -1.413   4.776  0.00  0.00    -0.026 A 
ATOM     32  C   UNL     1       0.061  -1.767   4.200  0.00  0.00    +0.008 A 
ATOM     33  C   UNL     1       0.960  -2.548   4.901  0.00  0.00    +0.038 A 
ATOM     34  C   UNL     1       0.648  -2.984   6.178  0.00  0.00    +0.123 A 
ATOM     35  C   UNL     1      -0.562  -2.634   6.752  0.00  0.00    +0.038 A 
ATOM     36  C   UNL     1      -1.457  -1.848   6.050  0.00  0.00    +0.008 A 
ATOM     37  F   UNL     1       1.524  -3.751   6.863  0.00  0.00    -0.205 F 
ENDBRANCH  30  31
ENDBRANCH  29  30
ENDBRANCH  24  25
BRANCH  24  38
ATOM     38  C   UNL     1      -0.825   1.876   1.150  0.00  0.00    -0.011 C 
ATOM     39  C   UNL     1      -2.202   1.245   0.934  0.00  0.00    +0.002 C 
ENDBRANCH  24  38
ENDBRANCH   1  24
TORSDOF 10
