REMARK  Name = ZINC13562215
REMARK  5 active torsions:
REMARK  status: ('A' for Active; 'I' for Inactive)
REMARK    1  A    between atoms: C_6  and  C_7
REMARK    2  A    between atoms: C_8  and  C_9
REMARK    3  A    between atoms: C_8  and  N_17
REMARK    4  A    between atoms: C_18  and  C_20
REMARK    5  A    between atoms: C_23  and  N_26
REMARK                            x       y       z     vdW  Elec       q    Type
REMARK                         _______ _______ _______ _____ _____    ______ ____
ROOT
ATOM      1  C   UNL     1       3.647  -5.163   0.082  0.00  0.00    +0.036 C 
ATOM      2  C   UNL     1       2.540  -4.386   0.130  0.00  0.00    +0.097 C 
ENDROOT
BRANCH   2   3
ATOM      3  C   UNL     1       1.209  -5.007   0.198  0.00  0.00    +0.261 C 
ATOM      4  O   UNL     1       0.717  -5.275   1.278  0.00  0.00    -0.269 OA
ATOM      5  N   UNL     1       0.534  -5.279  -0.937  0.00  0.00    -0.296 N 
ATOM      6  C   UNL     1       1.155  -5.056  -2.249  0.00  0.00    +0.108 C 
ATOM      7  C   UNL     1       1.062  -6.357  -3.061  0.00  0.00    +0.019 C 
ATOM      8  C   UNL     1      -0.399  -6.808  -3.126  0.00  0.00    +0.003 C 
ATOM      9  C   UNL     1      -0.912  -7.086  -1.711  0.00  0.00    +0.019 C 
ATOM     10  C   UNL     1      -0.840  -5.798  -0.884  0.00  0.00    +0.108 C 
ENDBRANCH   2   3
BRANCH   1  16
ATOM     11  C   UNL     1       6.073  -5.112  -0.467  0.00  0.00    +0.009 A 
ATOM     12  C   UNL     1       7.317  -4.532  -0.353  0.00  0.00    +0.016 A 
ATOM     13  C   UNL     1       7.490  -3.402   0.430  0.00  0.00    +0.018 A 
ATOM     14  C   UNL     1       6.413  -2.844   1.099  0.00  0.00    +0.016 A 
ATOM     15  C   UNL     1       5.161  -3.411   0.991  0.00  0.00    +0.009 A 
ATOM     16  C   UNL     1       4.979  -4.552   0.203  0.00  0.00    -0.023 A 
ATOM     17 BR   UNL     1       9.203  -2.617   0.585  0.00  0.00    -0.050 Br
ENDBRANCH   1  16
BRANCH   2  18
ATOM     18  N   UNL     1       2.662  -2.994   0.115  0.00  0.00    -0.277 N 
ATOM     19  C   UNL     1       1.570  -2.220   0.277  0.00  0.00    +0.248 C 
ATOM     20  O   UNL     1       0.468  -2.729   0.344  0.00  0.00    -0.270 OA
ATOM     21  H   UNL     1       3.532  -2.584  -0.011  0.00  0.00    +0.155 HD
BRANCH  19  22
ATOM     22  C   UNL     1       1.712  -0.752   0.371  0.00  0.00    +0.037 A 
ATOM     23  C   UNL     1       0.584   0.053   0.538  0.00  0.00    +0.015 A 
ATOM     24  C   UNL     1       0.723   1.422   0.627  0.00  0.00    +0.033 A 
ATOM     25  C   UNL     1       1.979   1.999   0.550  0.00  0.00    +0.126 A 
ATOM     26  C   UNL     1       3.101   1.208   0.384  0.00  0.00    +0.033 A 
ATOM     27  C   UNL     1       2.976  -0.163   0.295  0.00  0.00    +0.015 A 
BRANCH  25  28
ATOM     28  N   UNL     1       2.121   3.469   0.645  0.00  0.00    +0.056 N 
ATOM     29  O   UNL     1       1.134   4.168   0.790  0.00  0.00    -0.126 OA
ATOM     30  O   UNL     1       3.225   3.980   0.577  0.00  0.00    -0.126 OA
ENDBRANCH  25  28
ENDBRANCH  19  22
ENDBRANCH   2  18
TORSDOF 5
