REMARK  Name = ZINC54378649
REMARK  4 active torsions:
REMARK  status: ('A' for Active; 'I' for Inactive)
REMARK    1  A    between atoms: C_4  and  O_9
REMARK    2  A    between atoms: C_5  and  C_7
REMARK    3  A    between atoms: C_7  and  N_8
REMARK    4  A    between atoms: O_9  and  C_10
REMARK                            x       y       z     vdW  Elec       q    Type
REMARK                         _______ _______ _______ _____ _____    ______ ____
ROOT
ATOM      1  C   UNL     1       0.004   1.329   0.278  0.00  0.00    +0.131 A 
ATOM      2  C   UNL     1       1.174   2.030   0.055  0.00  0.00    +0.134 A 
ATOM      3  N   UNL     1       2.324   1.386  -0.045  0.00  0.00    -0.218 NA
ATOM      4  C   UNL     1       2.354   0.066   0.068  0.00  0.00    +0.243 A 
ATOM      5  C   UNL     1       1.175  -0.637   0.292  0.00  0.00    +0.116 A 
ATOM      6  N   UNL     1       0.030   0.012   0.391  0.00  0.00    -0.252 NA
ENDROOT
BRANCH   5   7
ATOM      7  C   UNL     1       1.206  -2.139   0.421  0.00  0.00    +0.139 C 
BRANCH   7   8
ATOM      8  N   UNL     1       1.403  -2.505   1.830  0.00  0.00    -0.325 NA
ATOM      9  H   UNL     1       0.691  -2.092   2.414  0.00  0.00    +0.119 HD
ATOM     10  H   UNL     1       1.427  -3.507   1.943  0.00  0.00    +0.119 HD
ENDBRANCH   7   8
ENDBRANCH   5   7
BRANCH   4  11
ATOM     11  O   UNL     1       3.533  -0.598  -0.035  0.00  0.00    -0.435 OA
BRANCH  11  12
ATOM     12  C   UNL     1       4.671   0.136  -0.147  0.00  0.00    +0.150 A 
ATOM     13  C   UNL     1       5.190   0.426  -1.401  0.00  0.00    +0.069 A 
ATOM     14  C   UNL     1       6.348   1.173  -1.512  0.00  0.00    +0.063 A 
ATOM     15  C   UNL     1       6.990   1.631  -0.374  0.00  0.00    +0.061 A 
ATOM     16  C   UNL     1       6.475   1.342   0.877  0.00  0.00    +0.045 A 
ATOM     17  C   UNL     1       5.313   0.601   0.992  0.00  0.00    +0.085 A 
ATOM     18 CL   UNL     1       4.662   0.246   2.562  0.00  0.00    -0.080 Cl
ATOM     19 CL   UNL     1       8.445   2.568  -0.517  0.00  0.00    -0.082 Cl
ATOM     20 CL   UNL     1       6.998   1.537  -3.081  0.00  0.00    -0.082 Cl
ENDBRANCH  11  12
ENDBRANCH   4  11
TORSDOF 4
