REMARK  Name = ZINC32655345
REMARK  11 active torsions:
REMARK  status: ('A' for Active; 'I' for Inactive)
REMARK    1  A    between atoms: C_1  and  C_2
REMARK    2  A    between atoms: C_2  and  O_3
REMARK    3  A    between atoms: O_3  and  C_4
REMARK    4  A    between atoms: C_7  and  C_10
REMARK    5  A    between atoms: C_17  and  S_28
REMARK    6  A    between atoms: C_21  and  C_27
REMARK    7  A    between atoms: C_22  and  C_23
REMARK    8  A    between atoms: C_23  and  O_25
REMARK    9  A    between atoms: O_25  and  C_26
REMARK   10  A    between atoms: S_28  and  C_29
REMARK   11  A    between atoms: C_29  and  C_30
REMARK                            x       y       z     vdW  Elec       q    Type
REMARK                         _______ _______ _______ _____ _____    ______ ____
ROOT
ATOM      1  C   UNL     1       0.160  -2.821   0.043  0.00  0.00    +0.096 C 
ATOM      2  C   UNL     1      -0.084  -4.248  -0.365  0.00  0.00    +0.069 A 
ATOM      3  C   UNL     1      -0.861  -5.087   0.442  0.00  0.00    +0.258 A 
ATOM      4  O   UNL     1      -1.357  -4.670   1.476  0.00  0.00    -0.267 OA
ATOM      5  N   UNL     1      -1.052  -6.366   0.054  0.00  0.00    -0.302 N 
ATOM      6  H   UNL     1      -1.661  -7.043   0.672  0.00  0.00    +0.171 HD
ATOM      7  C   UNL     1      -0.491  -6.821  -1.101  0.00  0.00    +0.171 A 
ATOM      8  N   UNL     1       0.240  -6.034  -1.865  0.00  0.00    -0.208 NA
ATOM      9  C   UNL     1       0.459  -4.757  -1.531  0.00  0.00    +0.135 A 
ATOM     10  N   UNL     1       1.226  -3.948  -2.350  0.00  0.00    -0.302 N 
ATOM     11  C   UNL     1       1.167  -2.589  -2.221  0.00  0.00    +0.017 C 
ATOM     12  C   UNL     1       0.667  -2.013  -1.116  0.00  0.00    +0.065 C 
ATOM     13  C   UNL     1       1.674  -1.718  -3.342  0.00  0.00    +0.061 C 
ATOM     14  H   UNL     1       1.885  -4.398  -3.107  0.00  0.00    +0.153 HD
ENDROOT
BRANCH   1  18
ATOM     15  C   UNL     1       3.046  -2.722   3.194  0.00  0.00    +0.121 A 
ATOM     16  C   UNL     1       1.764  -2.237   3.410  0.00  0.00    +0.046 A 
ATOM     17  C   UNL     1       0.833  -2.270   2.389  0.00  0.00    +0.008 A 
ATOM     18  C   UNL     1       1.178  -2.786   1.154  0.00  0.00    -0.035 A 
ATOM     19  C   UNL     1       2.453  -3.275   0.938  0.00  0.00    +0.008 A 
ATOM     20  C   UNL     1       3.389  -3.239   1.953  0.00  0.00    +0.046 A 
BRANCH  15  21
ATOM     21  O   UNL     1       3.963  -2.691   4.196  0.00  0.00    -0.492 OA
BRANCH  21  23
ATOM     22  C   UNL     1       6.151  -3.089   5.142  0.00  0.00    +0.048 C 
ATOM     23  C   UNL     1       5.263  -3.207   3.902  0.00  0.00    +0.225 C 
ENDBRANCH  21  23
ENDBRANCH  15  21
ENDBRANCH   1  18
BRANCH  12  24
ATOM     24  C   UNL     1       0.622  -0.603  -1.039  0.00  0.00    +0.337 C 
ATOM     25  O   UNL     1       1.129   0.071  -1.916  0.00  0.00    -0.245 OA
BRANCH  24  26
ATOM     26  O   UNL     1       0.015  -0.003   0.007  0.00  0.00    -0.465 OA
ATOM     27  C   UNL     1       0.007   1.426   0.020  0.00  0.00    +0.280 C 
ENDBRANCH  24  26
ENDBRANCH  12  24
BRANCH   7  28
ATOM     28  S   UNL     1      -0.750  -8.495  -1.585  0.00  0.00    -0.083 S 
BRANCH  28  29
ATOM     29  C   UNL     1       0.192  -8.525  -3.130  0.00  0.00    +0.115 C 
BRANCH  29  30
ATOM     30  C   UNL     1       0.111  -9.900  -3.741  0.00  0.00    -0.002 A 
ATOM     31  C   UNL     1       1.058 -10.855  -3.421  0.00  0.00    +0.007 A 
ATOM     32  C   UNL     1       0.980 -12.119  -3.977  0.00  0.00    +0.000 A 
ATOM     33  C   UNL     1      -0.037 -12.425  -4.862  0.00  0.00    +0.003 A 
ATOM     34  C   UNL     1      -0.981 -11.470  -5.187  0.00  0.00    +0.038 A 
ATOM     35  C   UNL     1      -0.908 -10.206  -4.627  0.00  0.00    +0.127 A 
ATOM     36  F   UNL     1      -1.831  -9.271  -4.944  0.00  0.00    -0.205 F 
ENDBRANCH  29  30
ENDBRANCH  28  29
ENDBRANCH   7  28
TORSDOF 8
