REMARK  Name = ZINC08667217
REMARK  8 active torsions:
REMARK  status: ('A' for Active; 'I' for Inactive)
REMARK    1  A    between atoms: C_1  and  C_2
REMARK    2  A    between atoms: C_6  and  C_14
REMARK    3  A    between atoms: C_7  and  O_13
REMARK    4  A    between atoms: C_11  and  C_12
REMARK    5  A    between atoms: C_14  and  C_16
REMARK    6  A    between atoms: C_14  and  N_61
REMARK    7  A    between atoms: N_20  and  C_21
REMARK    8  A    between atoms: C_21  and  C_22
REMARK                            x       y       z     vdW  Elec       q    Type
REMARK                         _______ _______ _______ _____ _____    ______ ____
ROOT
ATOM      1  C   UNL     1      -0.811   2.102   0.603  0.00  0.00    +0.039 C 
ENDROOT
BRANCH   1   7
ATOM      2  C   UNL     1      -0.593   9.348  -0.979  0.00  0.00    +0.044 C 
ATOM      3  C   UNL     1      -0.537   8.210   0.008  0.00  0.00    -0.047 A 
ATOM      4  C   UNL     1      -0.663   6.928  -0.435  0.00  0.00    +0.013 A 
ATOM      5  C   UNL     1      -0.612   5.869   0.483  0.00  0.00    +0.001 A 
ATOM      6  C   UNL     1      -0.739   4.529   0.063  0.00  0.00    +0.017 A 
ATOM      7  C   UNL     1      -0.680   3.548   1.007  0.00  0.00    +0.008 A 
ATOM      8  C   UNL     1      -0.502   3.886   2.355  0.00  0.00    +0.215 A 
ATOM      9  N   UNL     1      -0.379   5.138   2.741  0.00  0.00    -0.213 NA
ATOM     10  C   UNL     1      -0.429   6.144   1.861  0.00  0.00    +0.075 A 
ATOM     11  C   UNL     1      -0.303   7.479   2.280  0.00  0.00    +0.032 A 
ATOM     12  C   UNL     1      -0.357   8.483   1.362  0.00  0.00    -0.045 A 
ATOM     13  C   UNL     1      -0.222   9.913   1.819  0.00  0.00    +0.044 C 
BRANCH   8  14
ATOM     14  O   UNL     1      -0.451   2.899   3.283  0.00  0.00    -0.492 OA
ATOM     15  H   UNL     1       0.446   2.616   3.507  0.00  0.00    +0.294 HD
ENDBRANCH   8  14
ENDBRANCH   1   7
BRANCH   1  25
ATOM     16  C   UNL     1      -0.267   0.499  -1.131  0.00  0.00    -0.072 C 
ATOM     17  C   UNL     1      -0.046   0.403  -2.641  0.00  0.00    +0.017 C 
ATOM     18  C   UNL     1       1.152   1.227  -3.039  0.00  0.00    -0.048 A 
ATOM     19  C   UNL     1       1.728   1.000  -4.280  0.00  0.00    +0.004 A 
ATOM     20  C   UNL     1       2.823   1.736  -4.685  0.00  0.00    +0.000 A 
ATOM     21  C   UNL     1       3.349   2.704  -3.850  0.00  0.00    +0.000 A 
ATOM     22  C   UNL     1       2.778   2.929  -2.614  0.00  0.00    +0.002 A 
ATOM     23  C   UNL     1       1.677   2.190  -2.205  0.00  0.00    -0.061 A 
ATOM     24  C   UNL     1       1.092   2.470  -0.845  0.00  0.00    -0.041 C 
ATOM     25  N   UNL     1      -0.277   1.931  -0.767  0.00  0.00    +0.392 N 
ATOM     26  H   UNL     1      -0.876   2.441  -1.426  0.00  0.00    -0.080 HD
ENDBRANCH   1  25
BRANCH   1  27
ATOM     27  C   UNL     1      -2.265   1.708   0.614  0.00  0.00    +0.143 A 
ATOM     28  N   UNL     1      -3.250   2.332   0.016  0.00  0.00    -0.115 NA
ATOM     29  N   UNL     1      -4.338   1.686   0.260  0.00  0.00    -0.023 NA
ATOM     30  N   UNL     1      -4.073   0.670   1.005  0.00  0.00    -0.044 NA
ATOM     31  N   UNL     1      -2.806   0.649   1.246  0.00  0.00    -0.223 N 
BRANCH  31  32
ATOM     32  C   UNL     1      -2.090  -0.341   2.054  0.00  0.00    +0.221 C 
BRANCH  32  33
ATOM     33  C   UNL     1      -2.200   0.026   3.511  0.00  0.00    +0.126 A 
ATOM     34  C   UNL     1      -3.230  -0.273   4.322  0.00  0.00    +0.046 A 
ATOM     35  C   UNL     1      -2.918   0.257   5.595  0.00  0.00    +0.041 A 
ATOM     36  C   UNL     1      -1.718   0.856   5.484  0.00  0.00    +0.195 A 
ATOM     37  O   UNL     1      -1.288   0.713   4.219  0.00  0.00    -0.466 OA
ENDBRANCH  32  33
ENDBRANCH  31  32
ENDBRANCH   1  27
TORSDOF 6
