REMARK  Name = ZINC40229774
REMARK  4 active torsions:
REMARK  status: ('A' for Active; 'I' for Inactive)
REMARK    1  A    between atoms: C_3  and  N_9
REMARK    2  A    between atoms: N_9  and  S_10
REMARK    3  A    between atoms: S_10  and  C_13
REMARK    4  A    between atoms: C_18  and  N_19
REMARK                            x       y       z     vdW  Elec       q    Type
REMARK                         _______ _______ _______ _____ _____    ______ ____
ROOT
ATOM      1  S   UNL     1       5.029   1.323  -0.039  0.00  0.00    +0.093 S 
ATOM      2  O   UNL     1       5.127   0.637   1.202  0.00  0.00    -0.148 OA
ATOM      3  O   UNL     1       5.103   0.650  -1.289  0.00  0.00    -0.148 OA
ENDROOT
BRANCH   1   4
ATOM      4  C   UNL     1       6.304   2.538  -0.045  0.00  0.00    +0.132 A 
ATOM      5  C   UNL     1       7.167   2.641   1.028  0.00  0.00    +0.050 A 
ATOM      6  C   UNL     1       8.169   3.595   1.024  0.00  0.00    +0.043 A 
ATOM      7  C   UNL     1       8.309   4.450  -0.056  0.00  0.00    +0.022 A 
ATOM      8  C   UNL     1       7.449   4.353  -1.131  0.00  0.00    +0.026 A 
ATOM      9  C   UNL     1       6.446   3.391  -1.132  0.00  0.00    +0.052 A 
ATOM     10 CL   UNL     1       9.252   3.720   2.374  0.00  0.00    -0.083 Cl
BRANCH   9  11
ATOM     11  N   UNL     1       5.577   3.287  -2.222  0.00  0.00    -0.356 N 
ATOM     12  H   UNL     1       4.875   2.618  -2.220  0.00  0.00    +0.142 HD
ATOM     13  H   UNL     1       5.677   3.883  -2.981  0.00  0.00    +0.142 HD
ENDBRANCH   9  11
ENDBRANCH   1   4
BRANCH   1  14
ATOM     14  N   UNL     1       3.583   2.130  -0.021  0.00  0.00    -0.095 NA
BRANCH  14  17
ATOM     15  C   UNL     1      -0.017   1.378   0.010  0.00  0.00    +0.005 A 
ATOM     16  C   UNL     1       1.169   2.088   0.002  0.00  0.00    +0.030 A 
ATOM     17  C   UNL     1       2.382   1.413  -0.013  0.00  0.00    +0.112 A 
ATOM     18  C   UNL     1       2.401   0.022  -0.021  0.00  0.00    +0.183 A 
ATOM     19  C   UNL     1       1.209  -0.683  -0.013  0.00  0.00    +0.160 A 
ATOM     20  C   UNL     1       0.002  -0.004   0.002  0.00  0.00    +0.041 A 
ATOM     21  F   UNL     1       1.224  -2.034  -0.020  0.00  0.00    -0.202 F 
ATOM     22  F   UNL     1       3.579  -0.639  -0.036  0.00  0.00    -0.200 F 
ENDBRANCH  14  17
ENDBRANCH   1  14
TORSDOF 4
