REMARK  Name = ZINC22785228
REMARK  7 active torsions:
REMARK  status: ('A' for Active; 'I' for Inactive)
REMARK    1  A    between atoms: C_1  and  C_2
REMARK    2  A    between atoms: C_2  and  C_4
REMARK    3  A    between atoms: C_2  and  N_14
REMARK    4  A    between atoms: N_10  and  C_11
REMARK    5  A    between atoms: N_10  and  C_12
REMARK    6  A    between atoms: N_17  and  C_20
REMARK    7  A    between atoms: C_20  and  C_21
REMARK                            x       y       z     vdW  Elec       q    Type
REMARK                         _______ _______ _______ _____ _____    ______ ____
ROOT
ATOM      1  C   UNL     1       1.008   1.985   0.057  0.00  0.00    -0.005 C 
ATOM      2  C   UNL     1       1.093   3.512   0.011  0.00  0.00    -0.002 C 
ENDROOT
BRANCH   2   3
ATOM      3  C   UNL     1      -0.267   4.082  -0.299  0.00  0.00    +0.123 A 
ATOM      4  N   UNL     1      -0.762   3.979  -1.520  0.00  0.00    -0.201 NA
ATOM      5  C   UNL     1      -1.963   4.481  -1.798  0.00  0.00    +0.217 A 
ATOM      6  N   UNL     1      -2.664   5.087  -0.846  0.00  0.00    -0.181 NA
ATOM      7  C   UNL     1      -2.163   5.188   0.380  0.00  0.00    +0.222 A 
ATOM      8  N   UNL     1      -0.961   4.684   0.650  0.00  0.00    -0.201 NA
ATOM      9  N   UNL     1      -2.888   5.816   1.373  0.00  0.00    -0.306 N 
ATOM     10  C   UNL     1      -2.334   5.927   2.725  0.00  0.00    +0.132 C 
ATOM     11  C   UNL     1      -4.210   6.372   1.075  0.00  0.00    +0.132 C 
ATOM     12  N   UNL     1      -2.479   4.372  -3.073  0.00  0.00    -0.327 N 
ATOM     13  H   UNL     1      -3.472   4.788  -3.302  0.00  0.00    +0.145 HD
ATOM     14  H   UNL     1      -1.898   3.870  -3.861  0.00  0.00    +0.145 HD
ENDBRANCH   2   3
BRANCH   2  15
ATOM     15  N   UNL     1       2.044   3.917  -1.033  0.00  0.00    +0.388 N 
ATOM     16  C   UNL     1       3.385   3.383  -0.760  0.00  0.00    -0.062 C 
ATOM     17  C   UNL     1       4.325   3.760  -1.908  0.00  0.00    +0.066 C 
ATOM     18  N   UNL     1       4.362   5.223  -2.047  0.00  0.00    -0.301 NA
ATOM     19  C   UNL     1       3.020   5.757  -2.320  0.00  0.00    +0.066 C 
ATOM     20  C   UNL     1       2.081   5.380  -1.172  0.00  0.00    -0.062 C 
ATOM     21  H   UNL     1       1.697   3.494  -1.988  0.00  0.00    -0.081 HD
BRANCH  18  22
ATOM     22  C   UNL     1       5.312   5.629  -3.091  0.00  0.00    +0.126 C 
BRANCH  22  23
ATOM     23  C   UNL     1       6.713   5.277  -2.659  0.00  0.00    +0.005 A 
ATOM     24  C   UNL     1       7.409   4.134  -2.870  0.00  0.00    +0.013 A 
ATOM     25  C   UNL     1       8.696   4.032  -2.376  0.00  0.00    +0.023 A 
ATOM     26  C   UNL     1       9.224   5.080  -1.695  0.00  0.00    +0.055 A 
ATOM     27  S   UNL     1       7.887   6.263  -1.745  0.00  0.00    -0.085 S 
ATOM     28 BR   UNL     1      10.934   5.248  -0.906  0.00  0.00    -0.043 Br
ENDBRANCH  22  23
ENDBRANCH  18  22
ENDBRANCH   2  15
TORSDOF 4
