REMARK  Name = ZINC52618231
REMARK  8 active torsions:
REMARK  status: ('A' for Active; 'I' for Inactive)
REMARK    1  A    between atoms: C_1  and  C_2
REMARK    2  A    between atoms: C_2  and  C_3
REMARK    3  A    between atoms: C_3  and  C_4
REMARK    4  A    between atoms: C_8  and  C_35
REMARK    5  A    between atoms: N_13  and  C_14
REMARK    6  A    between atoms: C_14  and  C_15
REMARK    7  A    between atoms: C_22  and  C_24
REMARK    8  A    between atoms: C_22  and  C_30
REMARK                            x       y       z     vdW  Elec       q    Type
REMARK                         _______ _______ _______ _____ _____    ______ ____
ROOT
ATOM      1  C   UNL     1       3.760  -3.332  -2.057  0.00  0.00    -0.029 A 
ATOM      2  C   UNL     1       4.217  -3.178  -0.760  0.00  0.00    +0.006 A 
ATOM      3  C   UNL     1       4.986  -4.164  -0.182  0.00  0.00    +0.016 A 
ATOM      4  C   UNL     1       5.314  -5.325  -0.887  0.00  0.00    +0.023 A 
ATOM      5  C   UNL     1       4.855  -5.481  -2.191  0.00  0.00    +0.024 A 
ATOM      6  C   UNL     1       4.072  -4.474  -2.762  0.00  0.00    +0.021 A 
ATOM      7  S   UNL     1       5.364  -7.008  -2.937  0.00  0.00    -0.093 S 
ATOM      8  C   UNL     1       6.739  -7.582  -1.863  0.00  0.00    +0.159 C 
ATOM      9  S   UNL     1       6.286  -6.696  -0.318  0.00  0.00    -0.093 S 
ENDROOT
BRANCH   8  10
ATOM     10  C   UNL     1       6.703  -9.076  -1.673  0.00  0.00    -0.013 A 
ATOM     11  C   UNL     1       7.164  -9.634  -0.495  0.00  0.00    +0.006 A 
ATOM     12  C   UNL     1       7.132 -11.005  -0.320  0.00  0.00    +0.000 A 
ATOM     13  C   UNL     1       6.638 -11.818  -1.323  0.00  0.00    +0.000 A 
ATOM     14  C   UNL     1       6.176 -11.260  -2.501  0.00  0.00    +0.000 A 
ATOM     15  C   UNL     1       6.205  -9.889  -2.674  0.00  0.00    +0.006 A 
ENDBRANCH   8  10
BRANCH   8  16
ATOM     16  C   UNL     1       8.076  -7.128  -2.388  0.00  0.00    +0.208 A 
ATOM     17  N   UNL     1       9.089  -7.903  -2.747  0.00  0.00    -0.108 NA
ATOM     18  N   UNL     1      10.048  -7.136  -3.139  0.00  0.00    -0.021 NA
ATOM     19  N   UNL     1       9.671  -5.909  -3.038  0.00  0.00    -0.021 NA
ATOM     20  N   UNL     1       8.464  -5.876  -2.585  0.00  0.00    -0.108 NA
ENDBRANCH   8  16
BRANCH   1  21
ATOM     21  C   UNL     1       2.918  -2.257  -2.693  0.00  0.00    +0.143 C 
BRANCH  21  30
ATOM     22  C   UNL     1       0.739  -2.027  -1.265  0.00  0.00    +0.160 C 
ATOM     23  N   UNL     1      -0.622  -2.552  -1.435  0.00  0.00    -0.323 N 
ATOM     24  C   UNL     1      -0.632  -3.298  -2.619  0.00  0.00    +0.070 A 
ATOM     25  C   UNL     1      -1.655  -4.003  -3.242  0.00  0.00    -0.025 A 
ATOM     26  C   UNL     1      -1.377  -4.664  -4.430  0.00  0.00    +0.023 A 
ATOM     27  C   UNL     1      -0.102  -4.601  -4.954  0.00  0.00    +0.084 A 
ATOM     28  N   UNL     1       0.851  -3.925  -4.343  0.00  0.00    -0.348 N 
ATOM     29  C   UNL     1       0.633  -3.276  -3.205  0.00  0.00    +0.122 A 
ATOM     30  N   UNL     1       1.503  -2.517  -2.418  0.00  0.00    -0.292 N 
ATOM     31  C   UNL     1      -3.036  -4.050  -2.639  0.00  0.00    +0.046 C 
ATOM     32  H   UNL     1      -1.373  -2.409  -0.838  0.00  0.00    +0.148 HD
ATOM     33  H   UNL     1       1.738  -3.900  -4.736  0.00  0.00    +0.167 HD
BRANCH  22  34
ATOM     34  C   UNL     1       0.718  -0.497  -1.257  0.00  0.00    +0.042 C 
BRANCH  34  36
ATOM     35  C   UNL     1      -0.019   1.526   0.010  0.00  0.00    +0.004 C 
ATOM     36  C   UNL     1       0.002  -0.004   0.002  0.00  0.00    +0.000 C 
ENDBRANCH  34  36
ENDBRANCH  22  34
ENDBRANCH  21  30
ENDBRANCH   1  21
TORSDOF 6
