REMARK  Name = ZINC60377982
REMARK  8 active torsions:
REMARK  status: ('A' for Active; 'I' for Inactive)
REMARK    1  A    between atoms: C_1  and  C_2
REMARK    2  A    between atoms: C_2  and  C_3
REMARK    3  A    between atoms: C_2  and  C_4
REMARK    4  A    between atoms: C_2  and  N_5
REMARK    5  A    between atoms: N_16  and  C_17
REMARK    6  A    between atoms: C_17  and  C_18
REMARK    7  A    between atoms: C_21  and  N_24
REMARK    8  A    between atoms: C_27  and  C_29
REMARK                            x       y       z     vdW  Elec       q    Type
REMARK                         _______ _______ _______ _____ _____    ______ ____
ROOT
ATOM      1  N   UNL     1       0.688  -0.476  -1.203  0.00  0.00    -0.241 N 
ATOM      2  C   UNL     1       0.889  -1.776  -1.547  0.00  0.00    +0.167 A 
ATOM      3  C   UNL     1       1.582  -1.767  -2.769  0.00  0.00    +0.103 A 
ATOM      4  C   UNL     1       1.777  -0.417  -3.125  0.00  0.00    +0.150 A 
ATOM      5  N   UNL     1       1.243   0.333  -2.202  0.00  0.00    -0.176 NA
ATOM      6  C   UNL     1       1.926  -3.006  -3.365  0.00  0.00    +0.263 A 
ATOM      7  O   UNL     1       2.527  -3.044  -4.425  0.00  0.00    -0.267 OA
ATOM      8  N   UNL     1       1.571  -4.144  -2.728  0.00  0.00    -0.295 N 
ATOM      9  H   UNL     1       1.795  -5.004  -3.116  0.00  0.00    +0.172 HD
ATOM     10  C   UNL     1       0.899  -4.088  -1.543  0.00  0.00    +0.198 A 
ATOM     11  N   UNL     1       0.572  -2.948  -0.979  0.00  0.00    -0.196 NA
ATOM     12  N   UNL     1       0.553  -5.261  -0.921  0.00  0.00    -0.311 N 
ATOM     13  H   UNL     1       0.786  -6.111  -1.324  0.00  0.00    +0.149 HD
ENDROOT
BRANCH   1  15
ATOM     14  C   UNL     1      -0.019   1.526   0.010  0.00  0.00    +0.036 C 
ATOM     15  C   UNL     1       0.002  -0.004   0.002  0.00  0.00    +0.058 C 
ATOM     16  C   UNL     1       0.742  -0.511   1.242  0.00  0.00    +0.036 C 
ATOM     17  C   UNL     1      -1.433  -0.534   0.013  0.00  0.00    +0.036 C 
ENDBRANCH   1  15
BRANCH  12  18
ATOM     18  C   UNL     1      -0.169  -5.228   0.354  0.00  0.00    +0.139 C 
BRANCH  18  19
ATOM     19  C   UNL     1      -0.427  -6.637   0.822  0.00  0.00    -0.030 A 
ATOM     20  C   UNL     1      -1.585  -7.290   0.440  0.00  0.00    +0.007 A 
ATOM     21  C   UNL     1      -1.824  -8.581   0.868  0.00  0.00    +0.028 A 
ATOM     22  C   UNL     1      -0.900  -9.224   1.681  0.00  0.00    +0.065 A 
ATOM     23  C   UNL     1       0.262  -8.566   2.061  0.00  0.00    +0.028 A 
ATOM     24  C   UNL     1       0.498  -7.277   1.626  0.00  0.00    +0.007 A 
BRANCH  22  25
ATOM     25  N   UNL     1      -1.140 -10.535   2.117  0.00  0.00    -0.239 N 
ATOM     26  C   UNL     1      -0.330 -11.270   2.911  0.00  0.00    +0.115 A 
ATOM     27  C   UNL     1      -0.918 -12.474   3.098  0.00  0.00    +0.054 A 
ATOM     28  C   UNL     1      -2.128 -12.476   2.395  0.00  0.00    +0.166 A 
ATOM     29  N   UNL     1      -2.264 -11.312   1.811  0.00  0.00    -0.162 NA
BRANCH  28  30
ATOM     30  C   UNL     1      -3.108 -13.618   2.326  0.00  0.00    +0.436 C 
ATOM     31  F   UNL     1      -4.032 -13.504   3.371  0.00  0.00    -0.164 F 
ATOM     32  F   UNL     1      -3.783 -13.581   1.101  0.00  0.00    -0.164 F 
ATOM     33  F   UNL     1      -2.420 -14.831   2.443  0.00  0.00    -0.164 F 
ENDBRANCH  28  30
ENDBRANCH  22  25
ENDBRANCH  18  19
ENDBRANCH  12  18
TORSDOF 5
