REMARK  Name = ZINC59645178
REMARK  10 active torsions:
REMARK  status: ('A' for Active; 'I' for Inactive)
REMARK    1  A    between atoms: C_1  and  C_2
REMARK    2  A    between atoms: C_2  and  O_3
REMARK    3  A    between atoms: O_3  and  C_4
REMARK    4  A    between atoms: C_6  and  C_20
REMARK    5  A    between atoms: C_9  and  O_10
REMARK    6  A    between atoms: O_10  and  C_11
REMARK    7  A    between atoms: C_11  and  C_12
REMARK    8  A    between atoms: N_21  and  N_22
REMARK    9  A    between atoms: C_23  and  C_25
REMARK   10  A    between atoms: C_25  and  C_26
REMARK                            x       y       z     vdW  Elec       q    Type
REMARK                         _______ _______ _______ _____ _____    ______ ____
ROOT
ATOM      1  C   UNL     1       0.777  -1.811  -1.336  0.00  0.00    +0.163 A 
ATOM      2  C   UNL     1       0.244  -2.665  -0.389  0.00  0.00    +0.060 A 
ATOM      3  C   UNL     1       0.354  -4.048  -0.559  0.00  0.00    +0.012 A 
ATOM      4  C   UNL     1       1.003  -4.560  -1.687  0.00  0.00    +0.030 A 
ATOM      5  C   UNL     1       1.532  -3.701  -2.628  0.00  0.00    +0.065 A 
ATOM      6  C   UNL     1       1.417  -2.329  -2.460  0.00  0.00    +0.163 A 
ATOM      7 BR   UNL     1       1.155  -6.430  -1.922  0.00  0.00    -0.050 Br
ENDROOT
BRANCH   3   8
ATOM      8  C   UNL     1      -0.211  -4.964   0.448  0.00  0.00    +0.139 C 
ATOM      9  N   UNL     1      -0.108  -6.248   0.288  0.00  0.00    -0.188 NA
BRANCH   9  10
ATOM     10  N   UNL     1      -0.646  -7.118   1.245  0.00  0.00    -0.207 N 
ATOM     11  C   UNL     1      -0.539  -8.451   1.079  0.00  0.00    +0.238 C 
ATOM     12  O   UNL     1       0.023  -8.898   0.101  0.00  0.00    -0.274 OA
ATOM     13  H   UNL     1      -1.095  -6.761   2.027  0.00  0.00    +0.177 HD
BRANCH  11  14
ATOM     14  C   UNL     1      -1.117  -9.387   2.109  0.00  0.00    +0.153 C 
BRANCH  14  15
ATOM     15  C   UNL     1      -0.865 -10.813   1.690  0.00  0.00    +0.059 A 
ATOM     16  C   UNL     1      -0.238 -11.691   2.509  0.00  0.00    +0.072 A 
ATOM     17  S   UNL     1      -0.237 -13.156   1.490  0.00  0.00    -0.061 S 
ATOM     18  C   UNL     1      -1.022 -12.508   0.149  0.00  0.00    +0.156 A 
ATOM     19  N   UNL     1      -1.250 -11.263   0.509  0.00  0.00    -0.230 NA
ATOM     20  N   UNL     1      -1.352 -13.136  -1.042  0.00  0.00    -0.338 N 
ATOM     21  H   UNL     1      -1.126 -14.069  -1.177  0.00  0.00    +0.144 HD
ATOM     22  H   UNL     1      -1.808 -12.641  -1.740  0.00  0.00    +0.144 HD
ENDBRANCH  14  15
ENDBRANCH  11  14
ENDBRANCH   9  10
ENDBRANCH   3   8
BRANCH   1  23
ATOM     23  O   UNL     1       0.671  -0.465  -1.174  0.00  0.00    -0.489 OA
BRANCH  23  25
ATOM     24  C   UNL     1      -0.019   1.526   0.010  0.00  0.00    +0.048 C 
ATOM     25  C   UNL     1       0.002  -0.004   0.002  0.00  0.00    +0.226 C 
ENDBRANCH  23  25
ENDBRANCH   1  23
BRANCH   6  26
ATOM     26  O   UNL     1       1.935  -1.486  -3.393  0.00  0.00    -0.484 OA
BRANCH  26  27
ATOM     27  C   UNL     1       2.579  -2.084  -4.521  0.00  0.00    +0.267 C 
BRANCH  27  28
ATOM     28  C   UNL     1       3.087  -1.003  -5.440  0.00  0.00    +0.025 A 
ATOM     29  C   UNL     1       2.897   0.327  -5.115  0.00  0.00    +0.010 A 
ATOM     30  C   UNL     1       3.363   1.319  -5.957  0.00  0.00    +0.001 A 
ATOM     31  C   UNL     1       4.020   0.981  -7.126  0.00  0.00    +0.003 A 
ATOM     32  C   UNL     1       4.212  -0.348  -7.453  0.00  0.00    +0.039 A 
ATOM     33  C   UNL     1       3.750  -1.342  -6.607  0.00  0.00    +0.130 A 
ATOM     34  F   UNL     1       3.941  -2.641  -6.923  0.00  0.00    -0.205 F 
ENDBRANCH  27  28
ENDBRANCH  26  27
ENDBRANCH   6  26
TORSDOF 9
