REMARK  Name = ZINC59446074
REMARK  6 active torsions:
REMARK  status: ('A' for Active; 'I' for Inactive)
REMARK    1  A    between atoms: C_1  and  C_2
REMARK    2  A    between atoms: C_2  and  C_23
REMARK    3  A    between atoms: N_3  and  N_4
REMARK    4  A    between atoms: C_5  and  S_7
REMARK    5  A    between atoms: S_7  and  C_8
REMARK    6  A    between atoms: N_13  and  C_16
REMARK                            x       y       z     vdW  Elec       q    Type
REMARK                         _______ _______ _______ _____ _____    ______ ____
ROOT
ATOM      1  N   UNL     1      -0.326   0.904   2.605  0.00  0.00    -0.217 N 
ATOM      2  C   UNL     1      -0.244  -0.002   3.637  0.00  0.00    +0.146 C 
ATOM      3  N   UNL     1      -0.301  -1.281   3.388  0.00  0.00    -0.380 N 
ATOM      4  H   UNL     1      -0.283   1.856   2.790  0.00  0.00    +0.176 HD
ATOM      5  H   UNL     1      -0.243  -1.920   4.115  0.00  0.00    +0.158 HD
ATOM      6  H   UNL     1      -0.401  -1.594   2.475  0.00  0.00    +0.158 HD
ENDROOT
BRANCH   1   9
ATOM      7  C   UNL     1      -0.482   2.788   0.598  0.00  0.00    +0.068 C 
ATOM      8  C   UNL     1      -0.548   1.310   0.311  0.00  0.00    +0.070 C 
ATOM      9  N   UNL     1      -0.470   0.453   1.286  0.00  0.00    -0.185 NA
BRANCH   8  10
ATOM     10  C   UNL     1      -0.699   0.837  -1.070  0.00  0.00    +0.036 A 
ATOM     11  C   UNL     1      -0.785  -0.460  -1.543  0.00  0.00    +0.018 A 
ATOM     12  C   UNL     1      -0.926  -0.654  -2.898  0.00  0.00    +0.023 A 
ATOM     13  C   UNL     1      -0.976   0.426  -3.722  0.00  0.00    +0.055 A 
ATOM     14  S   UNL     1      -0.829   1.786  -2.576  0.00  0.00    -0.080 S 
ATOM     15 BR   UNL     1      -1.162   0.475  -5.604  0.00  0.00    -0.043 Br
ENDBRANCH   8  10
ENDBRANCH   1   9
BRANCH   2  16
ATOM     16  S   UNL     1      -0.062   0.566   5.295  0.00  0.00    -0.078 S 
BRANCH  16  17
ATOM     17  C   UNL     1      -0.000  -0.959   6.276  0.00  0.00    +0.149 C 
ATOM     18  C   UNL     1       0.231  -0.636   7.766  0.00  0.00    +0.120 C 
ATOM     19  C   UNL     1      -1.008  -1.181   8.444  0.00  0.00    +0.228 C 
ATOM     20  O   UNL     1      -1.235  -1.135   9.633  0.00  0.00    -0.275 OA
ATOM     21  N   UNL     1      -1.813  -1.721   7.520  0.00  0.00    -0.209 N 
ATOM     22  C   UNL     1      -1.344  -1.654   6.264  0.00  0.00    +0.240 C 
ATOM     23  O   UNL     1      -1.906  -2.080   5.278  0.00  0.00    -0.274 OA
BRANCH  21  24
ATOM     24  C   UNL     1      -3.045  -2.312   7.839  0.00  0.00    +0.044 A 
ATOM     25  C   UNL     1      -3.219  -3.680   7.688  0.00  0.00    +0.027 A 
ATOM     26  C   UNL     1      -4.433  -4.260   8.002  0.00  0.00    +0.040 A 
ATOM     27  C   UNL     1      -5.475  -3.477   8.468  0.00  0.00    +0.124 A 
ATOM     28  C   UNL     1      -5.303  -2.111   8.620  0.00  0.00    +0.040 A 
ATOM     29  C   UNL     1      -4.089  -1.529   8.312  0.00  0.00    +0.027 A 
ATOM     30  F   UNL     1      -6.662  -4.045   8.775  0.00  0.00    -0.205 F 
ENDBRANCH  21  24
ENDBRANCH  16  17
ENDBRANCH   2  16
TORSDOF 5
