REMARK  Name = ZINC08791290
REMARK  7 active torsions:
REMARK  status: ('A' for Active; 'I' for Inactive)
REMARK    1  A    between atoms: C_1  and  C_2
REMARK    2  A    between atoms: C_16  and  C_18
REMARK    3  A    between atoms: C_18  and  C_19
REMARK    4  A    between atoms: C_19  and  C_20
REMARK    5  A    between atoms: N_25  and  C_28
REMARK    6  A    between atoms: C_28  and  C_29
REMARK    7  A    between atoms: C_29  and  C_30
REMARK                            x       y       z     vdW  Elec       q    Type
REMARK                         _______ _______ _______ _____ _____    ______ ____
ROOT
ATOM      1  C   UNL     1      -1.333   2.122   0.020  0.00  0.00    +0.046 C 
ATOM      2  C   UNL     1      -0.017   1.388   0.010  0.00  0.00    -0.028 A 
ATOM      3  C   UNL     1       1.166   2.099   0.002  0.00  0.00    +0.025 A 
ATOM      4  C   UNL     1       2.380   1.435  -0.012  0.00  0.00    +0.042 A 
ATOM      5  C   UNL     1       2.407   0.050  -0.020  0.00  0.00    +0.024 A 
ATOM      6  C   UNL     1       1.229  -0.662  -0.013  0.00  0.00    -0.026 A 
ATOM      7  C   UNL     1       0.002  -0.004   0.002  0.00  0.00    +0.039 A 
ATOM      8  N   UNL     1      -1.043  -0.932   0.006  0.00  0.00    -0.286 N 
ATOM      9  C   UNL     1      -0.595  -2.202  -0.006  0.00  0.00    +0.211 C 
ATOM     10  O   UNL     1      -1.271  -3.208  -0.007  0.00  0.00    -0.277 OA
ATOM     11  C   UNL     1       0.908  -2.130  -0.018  0.00  0.00    +0.050 C 
ATOM     12  C   UNL     1       1.493  -2.829  -1.251  0.00  0.00    +0.088 C 
ATOM     13  C   UNL     1       2.812  -3.476  -0.743  0.00  0.00    +0.073 C 
ATOM     14  C   UNL     1       2.895  -3.089   0.749  0.00  0.00    -0.057 C 
ATOM     15  C   UNL     1       2.542  -4.958  -0.861  0.00  0.00    +0.224 C 
ATOM     16  O   UNL     1       3.318  -5.838  -0.556  0.00  0.00    -0.275 OA
ATOM     17  N   UNL     1       1.313  -5.148  -1.355  0.00  0.00    -0.241 N 
ATOM     18  C   UNL     1       0.638  -4.022  -1.613  0.00  0.00    +0.225 C 
ATOM     19  O   UNL     1      -0.486  -3.967  -2.065  0.00  0.00    -0.275 OA
ATOM     20 CL   UNL     1       3.864   2.335  -0.021  0.00  0.00    -0.084 Cl
ATOM     21  H   UNL     1      -1.982  -0.689   0.017  0.00  0.00    +0.155 HD
ATOM     22  N   UNL     1       1.506  -2.807   1.119  0.00  0.00    +0.394 N 
ATOM     23  H   UNL     1       1.006  -3.682   1.315  0.00  0.00    -0.083 HD
ATOM     24  H   UNL     1       1.476  -2.202   1.948  0.00  0.00    -0.083 HD
ENDROOT
BRANCH  14  25
ATOM     25  C   UNL     1       3.466  -4.248   1.568  0.00  0.00    -0.006 C 
BRANCH  25  26
ATOM     26  C   UNL     1       3.656  -3.802   3.019  0.00  0.00    +0.094 C 
BRANCH  26  27
ATOM     27  C   UNL     1       4.218  -4.944   3.826  0.00  0.00    +0.210 C 
ATOM     28  O   UNL     1       4.445  -6.010   3.293  0.00  0.00    -0.276 OA
ATOM     29  N   UNL     1       4.469  -4.781   5.140  0.00  0.00    -0.329 N 
ATOM     30  H   UNL     1       4.288  -3.929   5.566  0.00  0.00    +0.145 HD
ATOM     31  H   UNL     1       4.832  -5.516   5.660  0.00  0.00    +0.145 HD
ENDBRANCH  26  27
ENDBRANCH  25  26
ENDBRANCH  14  25
BRANCH  17  32
ATOM     32  C   UNL     1       0.752  -6.480  -1.593  0.00  0.00    +0.121 C 
BRANCH  32  33
ATOM     33  C   UNL     1       0.021  -6.958  -0.337  0.00  0.00    +0.054 C 
BRANCH  33  34
ATOM     34  C   UNL     1      -0.556  -8.329  -0.582  0.00  0.00    -0.046 A 
ATOM     35  C   UNL     1      -1.835  -8.459  -1.088  0.00  0.00    +0.004 A 
ATOM     36  C   UNL     1      -2.363  -9.716  -1.317  0.00  0.00    +0.000 A 
ATOM     37  C   UNL     1      -1.615 -10.843  -1.031  0.00  0.00    +0.000 A 
ATOM     38  C   UNL     1      -0.337 -10.712  -0.520  0.00  0.00    +0.000 A 
ATOM     39  C   UNL     1       0.192  -9.455  -0.295  0.00  0.00    +0.004 A 
ENDBRANCH  33  34
ENDBRANCH  32  33
ENDBRANCH  17  32
TORSDOF 6
