REMARK  Name = ZINC54823329
REMARK  4 active torsions:
REMARK  status: ('A' for Active; 'I' for Inactive)
REMARK    1  A    between atoms: C_1  and  N_2
REMARK    2  A    between atoms: C_8  and  N_13
REMARK    3  A    between atoms: N_13  and  C_14
REMARK    4  A    between atoms: C_19  and  C_21
REMARK                            x       y       z     vdW  Elec       q    Type
REMARK                         _______ _______ _______ _____ _____    ______ ____
ROOT
ATOM      1  C   UNL     1      -0.018   1.461   0.010  0.00  0.00    +0.142 C 
ATOM      2  N   UNL     1       0.002  -0.004   0.002  0.00  0.00    -0.237 N 
ATOM      3  C   UNL     1       0.008  -0.759  -1.111  0.00  0.00    +0.254 C 
ATOM      4  O   UNL     1      -0.003  -0.339  -2.252  0.00  0.00    -0.270 OA
ATOM      5  C   UNL     1       0.029  -2.180  -0.718  0.00  0.00    +0.050 A 
ATOM      6  C   UNL     1       0.042  -3.378  -1.420  0.00  0.00    +0.015 A 
ATOM      7  C   UNL     1       0.060  -4.577  -0.733  0.00  0.00    +0.024 A 
ATOM      8  C   UNL     1       0.066  -4.592   0.657  0.00  0.00    +0.028 A 
ATOM      9  C   UNL     1       0.053  -3.394   1.373  0.00  0.00    +0.036 A 
ATOM     10  C   UNL     1       0.035  -2.190   0.693  0.00  0.00    +0.051 A 
ATOM     11  C   UNL     1       0.023  -0.771   1.107  0.00  0.00    +0.254 C 
ATOM     12  O   UNL     1       0.029  -0.366   2.252  0.00  0.00    -0.270 OA
ENDROOT
BRANCH   8  13
ATOM     13  N   UNL     1       0.084  -5.804   1.337  0.00  0.00    -0.340 N 
ATOM     14  H   UNL     1       0.088  -5.817   2.307  0.00  0.00    +0.146 HD
BRANCH  13  15
ATOM     15  C   UNL     1       0.098  -7.064   0.588  0.00  0.00    +0.087 C 
ATOM     16  C   UNL     1      -1.345  -7.499   0.261  0.00  0.00    +0.023 C 
ATOM     17  C   UNL     1      -1.317  -9.042   0.399  0.00  0.00    +0.003 C 
ATOM     18  C   UNL     1      -0.383  -9.259   1.615  0.00  0.00    +0.020 C 
ATOM     19  C   UNL     1       0.711  -8.182   1.449  0.00  0.00    +0.112 C 
BRANCH  19  20
ATOM     20  C   UNL     1       1.885  -8.755   0.770  0.00  0.00    +0.068 C 
ATOM     21  N   UNL     1       2.790  -9.197   0.246  0.00  0.00    -0.196 NA
ENDBRANCH  19  20
ENDBRANCH  13  15
ENDBRANCH   8  13
TORSDOF 3
