REMARK  Name = ZINC28939116
REMARK  10 active torsions:
REMARK  status: ('A' for Active; 'I' for Inactive)
REMARK    1  A    between atoms: C_1  and  C_2
REMARK    2  A    between atoms: C_9  and  C_16
REMARK    3  A    between atoms: C_11  and  O_12
REMARK    4  A    between atoms: C_16  and  O_17
REMARK    5  A    between atoms: O_17  and  C_18
REMARK    6  A    between atoms: C_18  and  C_20
REMARK    7  A    between atoms: C_20  and  C_22
REMARK    8  A    between atoms: C_20  and  N_29
REMARK    9  A    between atoms: C_22  and  C_23
REMARK   10  A    between atoms: C_30  and  C_32
REMARK                            x       y       z     vdW  Elec       q    Type
REMARK                         _______ _______ _______ _____ _____    ______ ____
ROOT
ATOM      1  C   UNL     1       7.149   0.045  -0.911  0.00  0.00    +0.328 C 
ATOM      2  O   UNL     1       6.832   1.081  -1.445  0.00  0.00    -0.249 OA
ENDROOT
BRANCH   1   3
ATOM      3  O   UNL     1       8.438  -0.332  -0.890  0.00  0.00    -0.459 OA
BRANCH   3   4
ATOM      4  C   UNL     1       9.394   0.554  -1.529  0.00  0.00    +0.268 C 
BRANCH   4  13
ATOM      5  C   UNL     1      17.549   2.580  -4.510  0.00  0.00    +0.109 C 
ATOM      6  C   UNL     1      16.297   1.881  -4.045  0.00  0.00    +0.214 C 
ATOM      7  O   UNL     1      16.214   0.673  -4.121  0.00  0.00    -0.276 OA
ATOM      8  N   UNL     1      15.270   2.597  -3.546  0.00  0.00    -0.286 N 
ATOM      9  C   UNL     1      14.158   1.944  -3.015  0.00  0.00    +0.037 A 
ATOM     10  C   UNL     1      12.892   2.515  -3.148  0.00  0.00    +0.024 A 
ATOM     11  C   UNL     1      11.794   1.888  -2.634  0.00  0.00    +0.014 A 
ATOM     12  C   UNL     1      11.938   0.662  -1.974  0.00  0.00    +0.024 A 
ATOM     13  C   UNL     1      10.778  -0.029  -1.407  0.00  0.00    +0.007 A 
ATOM     14  C   UNL     1      10.983  -1.213  -0.773  0.00  0.00    +0.095 A 
ATOM     15  C   UNL     1      12.288  -1.738  -0.672  0.00  0.00    +0.285 A 
ATOM     16  O   UNL     1      13.348  -1.097  -1.189  0.00  0.00    -0.425 OA
ATOM     17  C   UNL     1      13.213   0.083  -1.832  0.00  0.00    +0.141 A 
ATOM     18  C   UNL     1      14.319   0.733  -2.360  0.00  0.00    +0.070 A 
ATOM     19  H   UNL     1      15.310   3.696  -3.558  0.00  0.00    +0.155 HD
BRANCH  15  20
ATOM     20  O   UNL     1      12.458  -2.800  -0.101  0.00  0.00    -0.480 OA
ATOM     21  H   UNL     1      13.470  -3.222  -0.014  0.00  0.00    +0.295 HD
ENDBRANCH  15  20
ENDBRANCH   4  13
ENDBRANCH   3   4
ENDBRANCH   1   3
BRANCH   1  22
ATOM     22  C   UNL     1       6.100  -0.824  -0.268  0.00  0.00    +0.186 C 
BRANCH  22  23
ATOM     23  N   UNL     1       4.785  -0.198  -0.424  0.00  0.00    -0.298 N 
ATOM     24  C   UNL     1       3.671  -0.957  -0.404  0.00  0.00    +0.245 C 
ATOM     25  O   UNL     1       3.757  -2.160  -0.256  0.00  0.00    -0.270 OA
ATOM     26  H   UNL     1       4.706   0.891  -0.558  0.00  0.00    +0.150 HD
BRANCH  24  27
ATOM     27  C   UNL     1       2.343  -0.325  -0.562  0.00  0.00    +0.037 A 
ATOM     28  C   UNL     1       1.188  -1.107  -0.541  0.00  0.00    +0.013 A 
ATOM     29  C   UNL     1      -0.048  -0.512  -0.689  0.00  0.00    +0.001 A 
ATOM     30  C   UNL     1      -0.143   0.858  -0.857  0.00  0.00    +0.000 A 
ATOM     31  C   UNL     1       0.999   1.640  -0.879  0.00  0.00    +0.001 A 
ATOM     32  C   UNL     1       2.240   1.057  -0.732  0.00  0.00    +0.013 A 
ENDBRANCH  24  27
ENDBRANCH  22  23
BRANCH  22  33
ATOM     33  C   UNL     1       6.414  -0.986   1.221  0.00  0.00    +0.069 C 
BRANCH  33  34
ATOM     34  C   UNL     1       5.436  -1.952   1.839  0.00  0.00    -0.045 A 
ATOM     35  C   UNL     1       4.253  -1.487   2.381  0.00  0.00    +0.004 A 
ATOM     36  C   UNL     1       3.354  -2.374   2.943  0.00  0.00    +0.000 A 
ATOM     37  C   UNL     1       3.643  -3.725   2.972  0.00  0.00    +0.000 A 
ATOM     38  C   UNL     1       4.828  -4.191   2.434  0.00  0.00    +0.000 A 
ATOM     39  C   UNL     1       5.725  -3.304   1.868  0.00  0.00    +0.004 A 
ENDBRANCH  33  34
ENDBRANCH  22  33
ENDBRANCH   1  22
TORSDOF 9
