REMARK  Name = ZINC04268239
REMARK  11 active torsions:
REMARK  status: ('A' for Active; 'I' for Inactive)
REMARK    1  A    between atoms: C_1  and  C_2
REMARK    2  A    between atoms: C_2  and  O_4
REMARK    3  A    between atoms: O_4  and  C_5
REMARK    4  A    between atoms: C_9  and  C_37
REMARK    5  A    between atoms: C_9  and  C_38
REMARK    6  A    between atoms: C_12  and  C_36
REMARK    7  A    between atoms: C_15  and  O_32
REMARK    8  A    between atoms: C_20  and  O_31
REMARK    9  A    between atoms: C_23  and  O_26
REMARK   10  A    between atoms: O_32  and  C_33
REMARK   11  A    between atoms: C_33  and  C_35
REMARK                            x       y       z     vdW  Elec       q    Type
REMARK                         _______ _______ _______ _____ _____    ______ ____
ROOT
ATOM      1  C   UNL     1       2.874   4.550  -0.217  0.00  0.00    +0.183 C 
ATOM      2  C   UNL     1       4.186   5.170   0.284  0.00  0.00    +0.046 C 
ATOM      3  C   UNL     1       5.327   4.197   0.015  0.00  0.00    +0.010 C 
ATOM      4  C   UNL     1       5.090   2.841   0.673  0.00  0.00    -0.031 C 
ATOM      5  C   UNL     1       3.691   2.299   0.431  0.00  0.00    +0.007 C 
ATOM      6  C   UNL     1       2.560   3.300   0.603  0.00  0.00    +0.016 C 
ATOM      7  C   UNL     1       1.214   2.682   0.218  0.00  0.00    +0.058 C 
ATOM      8  C   UNL     1       0.493   3.449  -0.883  0.00  0.00    +0.182 C 
ATOM      9  C   UNL     1      -0.810   2.752  -1.294  0.00  0.00    +0.055 C 
ATOM     10  C   UNL     1      -0.557   1.267  -1.576  0.00  0.00    +0.055 C 
ATOM     11  C   UNL     1      -0.113   0.628  -0.232  0.00  0.00    +0.139 C 
ATOM     12  C   UNL     1       1.331   1.206  -0.135  0.00  0.00    +0.092 C 
ATOM     13  C   UNL     1       2.104   0.404   0.884  0.00  0.00    +0.131 C 
ATOM     14  C   UNL     1       3.446   1.034   1.244  0.00  0.00    +0.037 C 
ATOM     15  C   UNL     1       1.843   1.022  -1.545  0.00  0.00    +0.170 C 
ATOM     16  O   UNL     1       2.976   0.776  -1.901  0.00  0.00    -0.292 OA
ATOM     17  C   UNL     1       0.683   1.148  -2.447  0.00  0.00    -0.006 C 
ATOM     18  C   UNL     1       0.721   1.153  -3.781  0.00  0.00    +0.016 C 
ATOM     19  C   UNL     1       2.420   3.713   2.082  0.00  0.00    +0.015 C 
ATOM     20  C   UNL     1       5.450   2.919   2.156  0.00  0.00    +0.011 C 
ATOM     21  C   UNL     1       6.095   1.859   0.019  0.00  0.00    +0.011 C 
ENDROOT
BRANCH  13  22
ATOM     22  O   UNL     1       1.323   0.263   2.075  0.00  0.00    -0.391 OA
ATOM     23  H   UNL     1       1.759  -0.243   2.774  0.00  0.00    +0.210 HD
ENDBRANCH  13  22
BRANCH  11  24
ATOM     24  O   UNL     1      -0.931   1.056   0.855  0.00  0.00    -0.390 OA
ATOM     25  H   UNL     1      -1.849   0.757   0.797  0.00  0.00    +0.210 HD
ENDBRANCH  11  24
BRANCH   1  26
ATOM     26  O   UNL     1       3.068   4.196  -1.615  0.00  0.00    -0.461 OA
BRANCH  26  28
ATOM     27  C   UNL     1       2.915   4.828  -3.996  0.00  0.00    +0.136 C 
ATOM     28  C   UNL     1       2.741   5.123  -2.529  0.00  0.00    +0.304 C 
ATOM     29  O   UNL     1       2.307   6.194  -2.175  0.00  0.00    -0.251 OA
ENDBRANCH  26  28
ENDBRANCH   1  26
BRANCH   8  30
ATOM     30  O   UNL     1       0.114   4.771  -0.397  0.00  0.00    -0.461 OA
BRANCH  30  31
ATOM     31  C   UNL     1       0.056   5.760  -1.303  0.00  0.00    +0.304 C 
ATOM     32  O   UNL     1       0.311   5.533  -2.462  0.00  0.00    -0.251 OA
ATOM     33  C   UNL     1      -0.329   7.153  -0.875  0.00  0.00    +0.136 C 
ENDBRANCH  30  31
ENDBRANCH   8  30
TORSDOF 6
