REMARK  Name = ZINC14473596
REMARK  5 active torsions:
REMARK  status: ('A' for Active; 'I' for Inactive)
REMARK    1  A    between atoms: C_1  and  C_2
REMARK    2  A    between atoms: C_2  and  N_3
REMARK    3  A    between atoms: C_4  and  C_6
REMARK    4  A    between atoms: C_19  and  C_22
REMARK    5  A    between atoms: C_24  and  N_29
REMARK                            x       y       z     vdW  Elec       q    Type
REMARK                         _______ _______ _______ _____ _____    ______ ____
ROOT
ATOM      1  C   UNL     1       4.582   5.463   1.961  0.00  0.00    +0.037 A 
ATOM      2  C   UNL     1       4.725   5.699   0.591  0.00  0.00    +0.015 A 
ATOM      3  C   UNL     1       3.604   5.834  -0.195  0.00  0.00    +0.024 A 
ATOM      4  C   UNL     1       2.335   5.736   0.371  0.00  0.00    +0.031 A 
ATOM      5  C   UNL     1       2.182   5.501   1.732  0.00  0.00    -0.019 A 
ATOM      6  C   UNL     1       3.309   5.365   2.522  0.00  0.00    +0.019 A 
ATOM      7  C   UNL     1       0.837   5.390   2.379  0.00  0.00    +0.049 C 
ATOM      8  C   UNL     1       0.466   3.941   2.706  0.00  0.00    -0.023 C 
ATOM      9  C   UNL     1      -0.816   3.742   2.517  0.00  0.00    -0.030 C 
ATOM     10  C   UNL     1      -1.488   5.017   2.047  0.00  0.00    +0.033 C 
ATOM     11  C   UNL     1      -0.311   5.849   1.458  0.00  0.00    +0.029 C 
ATOM     12  C   UNL     1      -0.068   5.348   0.032  0.00  0.00    +0.106 C 
ATOM     13  N   UNL     1       1.224   5.858  -0.438  0.00  0.00    -0.336 N 
ATOM     14  H   UNL     1       1.301   6.295  -1.300  0.00  0.00    +0.147 HD
ENDROOT
BRANCH  12  15
ATOM     15  C   UNL     1      -0.048   3.841   0.023  0.00  0.00    -0.007 A 
ATOM     16  C   UNL     1       1.121   3.163   0.312  0.00  0.00    +0.039 A 
ATOM     17  C   UNL     1       1.139   1.781   0.305  0.00  0.00    +0.127 A 
ATOM     18  C   UNL     1      -0.013   1.076   0.008  0.00  0.00    +0.034 A 
ATOM     19  C   UNL     1      -1.181   1.753  -0.287  0.00  0.00    +0.022 A 
ATOM     20  C   UNL     1      -1.201   3.136  -0.274  0.00  0.00    +0.046 A 
ATOM     21 CL   UNL     1      -2.670   3.987  -0.637  0.00  0.00    -0.083 Cl
BRANCH  17  22
ATOM     22  N   UNL     1       2.391   1.056   0.616  0.00  0.00    +0.056 N 
ATOM     23  O   UNL     1       2.407  -0.162   0.609  0.00  0.00    -0.126 OA
ATOM     24  O   UNL     1       3.405   1.677   0.877  0.00  0.00    -0.126 OA
ENDBRANCH  17  22
ENDBRANCH  12  15
BRANCH   1  26
ATOM     25  N   UNL     1       7.008   5.412   2.271  0.00  0.00    -0.312 N 
ATOM     26  C   UNL     1       5.777   5.318   2.813  0.00  0.00    +0.244 C 
ATOM     27  O   UNL     1       5.653   5.113   4.006  0.00  0.00    -0.270 OA
ATOM     28  H   UNL     1       7.107   5.575   1.320  0.00  0.00    +0.149 HD
BRANCH  25  30
ATOM     29  C   UNL     1       9.453   5.416   2.260  0.00  0.00    +0.024 C 
ATOM     30  C   UNL     1       8.194   5.268   3.117  0.00  0.00    +0.101 C 
ENDBRANCH  25  30
ENDBRANCH   1  26
TORSDOF 4
