REMARK  Name = ZINC63281293
REMARK  8 active torsions:
REMARK  status: ('A' for Active; 'I' for Inactive)
REMARK    1  A    between atoms: C_4  and  N_7
REMARK    2  A    between atoms: C_8  and  O_13
REMARK    3  A    between atoms: O_13  and  C_14
REMARK    4  A    between atoms: C_18  and  C_20
REMARK    5  A    between atoms: C_20  and  N_21
REMARK    6  A    between atoms: N_21  and  C_22
REMARK    7  A    between atoms: C_22  and  C_23
REMARK    8  A    between atoms: C_23  and  C_24
REMARK                            x       y       z     vdW  Elec       q    Type
REMARK                         _______ _______ _______ _____ _____    ______ ____
ROOT
ATOM      1  C   UNL     1       3.847  -2.368   2.310  0.00  0.00    +0.125 A 
ATOM      2  C   UNL     1       4.831  -1.391   2.364  0.00  0.00    +0.046 A 
ATOM      3  C   UNL     1       5.394  -1.046   3.577  0.00  0.00    +0.004 A 
ATOM      4  C   UNL     1       4.979  -1.673   4.737  0.00  0.00    +0.002 A 
ATOM      5  C   UNL     1       3.999  -2.647   4.686  0.00  0.00    -0.061 A 
ATOM      6  C   UNL     1       3.428  -2.991   3.476  0.00  0.00    +0.047 A 
ENDROOT
BRANCH   1   7
ATOM      7  O   UNL     1       3.290  -2.708   1.118  0.00  0.00    -0.448 OA
BRANCH   7   9
ATOM      8  N   UNL     1       3.478  -2.892  -1.251  0.00  0.00    -0.177 N 
ATOM      9  C   UNL     1       3.856  -2.119  -0.054  0.00  0.00    +0.429 C 
ATOM     10  N   UNL     1       3.292  -0.782  -0.279  0.00  0.00    -0.104 NA
ATOM     11  N   UNL     1       2.708  -0.755  -1.363  0.00  0.00    -0.063 NA
ATOM     12  N   UNL     1       2.761  -1.974  -2.040  0.00  0.00    -0.162 N 
ATOM     13  H   UNL     1       2.368  -2.158  -2.907  0.00  0.00    +0.195 HD
BRANCH   8  17
ATOM     14  C   UNL     1       4.350  -6.872  -2.108  0.00  0.00    +0.000 A 
ATOM     15  C   UNL     1       3.626  -6.115  -3.011  0.00  0.00    +0.002 A 
ATOM     16  C   UNL     1       3.335  -4.794  -2.729  0.00  0.00    +0.025 A 
ATOM     17  C   UNL     1       3.770  -4.227  -1.539  0.00  0.00    +0.055 A 
ATOM     18  C   UNL     1       4.497  -4.991  -0.634  0.00  0.00    +0.025 A 
ATOM     19  C   UNL     1       4.785  -6.311  -0.922  0.00  0.00    +0.002 A 
ENDBRANCH   8  17
ENDBRANCH   7   9
ENDBRANCH   1   7
BRANCH   5  20
ATOM     20  C   UNL     1       3.549  -3.329   5.953  0.00  0.00    -0.047 C 
BRANCH  20  21
ATOM     21  N   UNL     1       2.430  -2.580   6.540  0.00  0.00    +0.382 N 
ATOM     22  H   UNL     1       2.728  -1.640   6.753  0.00  0.00    -0.085 HD
ATOM     23  H   UNL     1       1.664  -2.550   5.884  0.00  0.00    -0.085 HD
BRANCH  21  24
ATOM     24  C   UNL     1       1.991  -3.245   7.775  0.00  0.00    -0.078 C 
BRANCH  24  25
ATOM     25  C   UNL     1       0.825  -2.466   8.387  0.00  0.00    +0.014 C 
BRANCH  25  26
ATOM     26  C   UNL     1       0.375  -3.147   9.653  0.00  0.00    -0.043 C 
ATOM     27  C   UNL     1       0.758  -2.851  10.917  0.00  0.00    -0.001 A 
ATOM     28  C   UNL     1       1.673  -1.845  11.468  0.00  0.00    +0.010 A 
ATOM     29  C   UNL     1       1.858  -1.790  12.807  0.00  0.00    +0.001 A 
ATOM     30  C   UNL     1       1.200  -2.668  13.678  0.00  0.00    +0.002 A 
ATOM     31  C   UNL     1       0.344  -3.619  13.247  0.00  0.00    +0.026 A 
ATOM     32  C   UNL     1       0.074  -3.767  11.858  0.00  0.00    +0.043 A 
ATOM     33  N   UNL     1      -0.700  -4.596  11.203  0.00  0.00    -0.380 N 
ATOM     34  C   UNL     1      -0.600  -4.297   9.770  0.00  0.00    +0.144 C 
ATOM     35  H   UNL     1      -1.250  -5.290  11.599  0.00  0.00    +0.160 HD
ENDBRANCH  25  26
ENDBRANCH  24  25
ENDBRANCH  21  24
ENDBRANCH  20  21
ENDBRANCH   5  20
TORSDOF 8
