REMARK  Name = ZINC61481691
REMARK  8 active torsions:
REMARK  status: ('A' for Active; 'I' for Inactive)
REMARK    1  A    between atoms: C_1  and  C_2
REMARK    2  A    between atoms: N_4  and  C_5
REMARK    3  A    between atoms: C_5  and  C_13
REMARK    4  A    between atoms: C_6  and  C_7
REMARK    5  A    between atoms: N_15  and  N_16
REMARK    6  A    between atoms: N_16  and  C_17
REMARK    7  A    between atoms: C_17  and  N_19
REMARK    8  A    between atoms: N_19  and  C_20
REMARK                            x       y       z     vdW  Elec       q    Type
REMARK                         _______ _______ _______ _____ _____    ______ ____
ROOT
ATOM      1  C   UNL     1       0.598  -2.589   0.145  0.00  0.00    +0.274 C 
ATOM      2  O   UNL     1       0.461  -3.798   0.176  0.00  0.00    -0.267 OA
ATOM      3  N   UNL     1       1.829  -2.053   0.033  0.00  0.00    -0.230 N 
ATOM      4  H   UNL     1       1.946  -1.091   0.085  0.00  0.00    +0.173 HD
ENDROOT
BRANCH   1   5
ATOM      5  C   UNL     1      -0.581  -1.714   0.229  0.00  0.00    +0.098 C 
ATOM      6  C   UNL     1      -1.822  -2.251   0.253  0.00  0.00    +0.036 C 
BRANCH   6   7
ATOM      7  C   UNL     1      -3.003  -1.375   0.217  0.00  0.00    -0.023 A 
ATOM      8  C   UNL     1      -2.967  -0.176  -0.502  0.00  0.00    +0.008 A 
ATOM      9  C   UNL     1      -4.079   0.639  -0.531  0.00  0.00    +0.001 A 
ATOM     10  C   UNL     1      -5.228   0.274   0.149  0.00  0.00    +0.000 A 
ATOM     11  C   UNL     1      -5.271  -0.911   0.862  0.00  0.00    +0.001 A 
ATOM     12  C   UNL     1      -4.170  -1.740   0.897  0.00  0.00    +0.008 A 
ENDBRANCH   6   7
BRANCH   5  16
ATOM     13  C   UNL     1       0.284   1.826  -0.713  0.00  0.00    +0.109 C 
ATOM     14  C   UNL     1       0.200   0.321  -0.723  0.00  0.00    +0.214 C 
ATOM     15  O   UNL     1       0.688  -0.308  -1.638  0.00  0.00    -0.276 OA
ATOM     16  N   UNL     1      -0.418  -0.326   0.285  0.00  0.00    -0.282 N 
ATOM     17  H   UNL     1      -0.750   0.171   1.049  0.00  0.00    +0.155 HD
ENDBRANCH   5  16
ENDBRANCH   1   5
BRANCH   3  18
ATOM     18  N   UNL     1       2.941  -2.884  -0.157  0.00  0.00    -0.245 N 
ATOM     19  H   UNL     1       2.817  -3.838  -0.282  0.00  0.00    +0.172 HD
BRANCH  18  20
ATOM     20  C   UNL     1       4.182  -2.358  -0.167  0.00  0.00    +0.151 C 
ATOM     21  S   UNL     1       5.529  -3.350  -0.529  0.00  0.00    -0.017 S 
BRANCH  20  22
ATOM     22  N   UNL     1       4.362  -1.051   0.108  0.00  0.00    -0.294 N 
ATOM     23  H   UNL     1       4.513  -0.420  -0.614  0.00  0.00    +0.154 HD
BRANCH  22  24
ATOM     24  C   UNL     1       4.331  -0.603   1.435  0.00  0.00    +0.068 A 
ATOM     25  C   UNL     1       4.225  -1.517   2.474  0.00  0.00    +0.029 A 
ATOM     26  C   UNL     1       4.196  -1.075   3.783  0.00  0.00    +0.040 A 
ATOM     27  C   UNL     1       4.271   0.280   4.059  0.00  0.00    +0.126 A 
ATOM     28  C   UNL     1       4.376   1.195   3.025  0.00  0.00    +0.078 A 
ATOM     29  C   UNL     1       4.411   0.756   1.714  0.00  0.00    +0.147 A 
ATOM     30  F   UNL     1       4.520   1.648   0.705  0.00  0.00    -0.203 F 
ATOM     31  F   UNL     1       4.241   0.710   5.339  0.00  0.00    -0.205 F 
ENDBRANCH  22  24
ENDBRANCH  20  22
ENDBRANCH  18  20
ENDBRANCH   3  18
TORSDOF 7
