REMARK  Name = ZINC20834608
REMARK  8 active torsions:
REMARK  status: ('A' for Active; 'I' for Inactive)
REMARK    1  A    between atoms: C_4  and  N_9
REMARK    2  A    between atoms: C_5  and  C_7
REMARK    3  A    between atoms: C_10  and  C_12
REMARK    4  A    between atoms: C_12  and  S_13
REMARK    5  A    between atoms: S_13  and  C_14
REMARK    6  A    between atoms: N_19  and  N_20
REMARK    7  A    between atoms: C_21  and  C_22
REMARK    8  A    between atoms: C_27  and  O_28
REMARK                            x       y       z     vdW  Elec       q    Type
REMARK                         _______ _______ _______ _____ _____    ______ ____
ROOT
ATOM      1  C   UNL     1       7.666   1.643  -0.520  0.00  0.00    +0.211 A 
ATOM      2  N   UNL     1       8.948   2.100  -0.642  0.00  0.00    -0.186 NA
ATOM      3  C   UNL     1       9.776   1.015  -0.725  0.00  0.00    +0.232 A 
ATOM      4  N   UNL     1       9.037  -0.066  -0.657  0.00  0.00    -0.245 N 
ATOM      5  N   UNL     1       7.700   0.332  -0.521  0.00  0.00    -0.144 NA
ATOM      6  N   UNL     1      11.156   1.052  -0.859  0.00  0.00    -0.205 N 
ATOM      7  H   UNL     1      11.679   2.018  -0.907  0.00  0.00    +0.177 HD
ATOM      8  H   UNL     1       9.508  -1.058  -0.709  0.00  0.00    +0.192 HD
ENDROOT
BRANCH   6   9
ATOM      9  N   UNL     1      11.885  -0.143  -0.932  0.00  0.00    -0.187 NA
ATOM     10  C   UNL     1      13.177  -0.109  -1.058  0.00  0.00    +0.142 C 
BRANCH  10  11
ATOM     11  C   UNL     1      13.943  -1.365  -1.135  0.00  0.00    +0.037 A 
ATOM     12  C   UNL     1      15.333  -1.333  -1.270  0.00  0.00    +0.028 A 
ATOM     13  C   UNL     1      16.045  -2.513  -1.341  0.00  0.00    +0.019 A 
ATOM     14  C   UNL     1      15.386  -3.730  -1.281  0.00  0.00    +0.019 A 
ATOM     15  C   UNL     1      14.010  -3.774  -1.147  0.00  0.00    +0.047 A 
ATOM     16  C   UNL     1      13.282  -2.599  -1.068  0.00  0.00    +0.126 A 
ATOM     17 BR   UNL     1      17.926  -2.469  -1.524  0.00  0.00    -0.050 Br
BRANCH  16  18
ATOM     18  O   UNL     1      11.931  -2.642  -0.931  0.00  0.00    -0.506 OA
ATOM     19  H   UNL     1      11.414  -3.612  -0.879  0.00  0.00    +0.292 HD
ENDBRANCH  16  18
ENDBRANCH  10  11
ENDBRANCH   6   9
BRANCH   1  20
ATOM     20  S   UNL     1       6.221   2.642  -0.377  0.00  0.00    -0.075 S 
BRANCH  20  21
ATOM     21  C   UNL     1       4.868   1.440  -0.250  0.00  0.00    +0.173 C 
BRANCH  21  23
ATOM     22  N   UNL     1       2.406   1.477  -0.012  0.00  0.00    -0.284 N 
ATOM     23  C   UNL     1       3.557   2.171  -0.121  0.00  0.00    +0.228 C 
ATOM     24  O   UNL     1       3.537   3.383  -0.115  0.00  0.00    -0.275 OA
ATOM     25  H   UNL     1       2.431   0.381   0.074  0.00  0.00    +0.155 HD
BRANCH  22  29
ATOM     26  C   UNL     1      -1.248   3.490  -0.003  0.00  0.00    +0.001 A 
ATOM     27  C   UNL     1      -0.138   4.059  -0.605  0.00  0.00    +0.002 A 
ATOM     28  C   UNL     1       1.073   3.395  -0.609  0.00  0.00    +0.024 A 
ATOM     29  C   UNL     1       1.185   2.149  -0.009  0.00  0.00    +0.051 A 
ATOM     30  C   UNL     1       0.063   1.569   0.602  0.00  0.00    +0.073 A 
ATOM     31  C   UNL     1      -1.156   2.251   0.594  0.00  0.00    +0.021 A 
BRANCH  30  32
ATOM     32  C   UNL     1       0.166   0.284   1.225  0.00  0.00    +0.101 C 
ATOM     33  N   UNL     1       0.247  -0.736   1.719  0.00  0.00    -0.191 NA
ENDBRANCH  30  32
ENDBRANCH  22  29
ENDBRANCH  21  23
ENDBRANCH  20  21
ENDBRANCH   1  20
TORSDOF 8
