REMARK  Name = ZINC39792900
REMARK  8 active torsions:
REMARK  status: ('A' for Active; 'I' for Inactive)
REMARK    1  A    between atoms: C_4  and  C_7
REMARK    2  A    between atoms: C_7  and  C_8
REMARK    3  A    between atoms: C_8  and  N_9
REMARK    4  A    between atoms: C_10  and  C_12
REMARK    5  A    between atoms: C_12  and  S_13
REMARK    6  A    between atoms: S_13  and  C_14
REMARK    7  A    between atoms: C_18  and  C_26
REMARK    8  A    between atoms: N_19  and  C_20
REMARK                            x       y       z     vdW  Elec       q    Type
REMARK                         _______ _______ _______ _____ _____    ______ ____
ROOT
ATOM      1  C   UNL     1       9.112  -3.802   3.695  0.00  0.00    +0.241 C 
ATOM      2  N   UNL     1      10.088  -3.029   2.910  0.00  0.00    -0.237 N 
ATOM      3  N   UNL     1      10.882  -3.963   2.233  0.00  0.00    -0.169 NA
ATOM      4  C   UNL     1      10.514  -5.186   2.506  0.00  0.00    +0.151 C 
ATOM      5  N   UNL     1       9.434  -5.208   3.398  0.00  0.00    -0.254 N 
ATOM      6  H   UNL     1      10.166  -2.063   2.869  0.00  0.00    +0.171 HD
ENDROOT
BRANCH   4   7
ATOM      7  C   UNL     1      11.124  -6.334   1.976  0.00  0.00    +0.022 C 
ATOM      8  C   UNL     1      12.261  -6.388   1.170  0.00  0.00    +0.006 A 
ATOM      9  C   UNL     1      13.114  -5.388   0.656  0.00  0.00    +0.010 A 
ATOM     10  C   UNL     1      14.171  -5.738  -0.120  0.00  0.00    +0.001 A 
ATOM     11  C   UNL     1      14.442  -7.073  -0.428  0.00  0.00    +0.002 A 
ATOM     12  C   UNL     1      13.665  -8.085   0.031  0.00  0.00    +0.026 A 
ATOM     13  C   UNL     1      12.542  -7.797   0.848  0.00  0.00    +0.043 A 
ATOM     14  N   UNL     1      11.647  -8.585   1.411  0.00  0.00    -0.380 N 
ATOM     15  C   UNL     1      10.689  -7.771   2.164  0.00  0.00    +0.152 C 
ATOM     16  H   UNL     1      11.627  -9.553   1.340  0.00  0.00    +0.160 HD
ENDBRANCH   4   7
BRANCH   5  17
ATOM     17  C   UNL     1       8.788  -6.338   3.905  0.00  0.00    +0.038 A 
ATOM     18  C   UNL     1       9.195  -6.889   5.113  0.00  0.00    +0.023 A 
ATOM     19  C   UNL     1       8.553  -8.006   5.612  0.00  0.00    +0.002 A 
ATOM     20  C   UNL     1       7.507  -8.575   4.909  0.00  0.00    +0.000 A 
ATOM     21  C   UNL     1       7.099  -8.029   3.706  0.00  0.00    +0.002 A 
ATOM     22  C   UNL     1       7.733  -6.909   3.204  0.00  0.00    +0.023 A 
ENDBRANCH   5  17
BRANCH   1  23
ATOM     23  S   UNL     1       7.421  -3.413   3.166  0.00  0.00    -0.108 S 
BRANCH  23  24
ATOM     24  C   UNL     1       7.420  -3.787   1.391  0.00  0.00    +0.168 C 
BRANCH  24  26
ATOM     25  N   UNL     1       5.817  -3.709  -0.492  0.00  0.00    -0.314 N 
ATOM     26  C   UNL     1       6.055  -3.503   0.819  0.00  0.00    +0.223 C 
ATOM     27  O   UNL     1       5.170  -3.089   1.538  0.00  0.00    -0.275 OA
ATOM     28  H   UNL     1       6.525  -4.040  -1.067  0.00  0.00    +0.149 HD
BRANCH  25  29
ATOM     29  C   UNL     1       4.490  -3.433  -1.048  0.00  0.00    +0.109 C 
BRANCH  29  30
ATOM     30  C   UNL     1       4.489  -3.749  -2.545  0.00  0.00    +0.054 C 
BRANCH  30  34
ATOM     31  C   UNL     1       0.621  -2.945  -4.169  0.00  0.00    +0.000 A 
ATOM     32  C   UNL     1       1.580  -1.950  -4.143  0.00  0.00    +0.000 A 
ATOM     33  C   UNL     1       2.832  -2.210  -3.617  0.00  0.00    +0.004 A 
ATOM     34  C   UNL     1       3.124  -3.465  -3.117  0.00  0.00    -0.046 A 
ATOM     35  C   UNL     1       2.165  -4.460  -3.143  0.00  0.00    +0.004 A 
ATOM     36  C   UNL     1       0.914  -4.200  -3.670  0.00  0.00    +0.000 A 
ENDBRANCH  30  34
ENDBRANCH  29  30
ENDBRANCH  25  29
ENDBRANCH  24  26
ENDBRANCH  23  24
ENDBRANCH   1  23
TORSDOF 8
