REMARK  Name = ZINC41584181
REMARK  13 active torsions:
REMARK  status: ('A' for Active; 'I' for Inactive)
REMARK    1  A    between atoms: C_1  and  C_2
REMARK    2  A    between atoms: C_2  and  C_3
REMARK    3  A    between atoms: C_3  and  C_4
REMARK    4  A    between atoms: C_4  and  N_5
REMARK    5  A    between atoms: N_5  and  C_6
REMARK    6  A    between atoms: N_5  and  C_10
REMARK    7  A    between atoms: C_6  and  C_7
REMARK    8  A    between atoms: C_7  and  C_8
REMARK    9  A    between atoms: C_8  and  C_9
REMARK   10  A    between atoms: C_10  and  C_11
REMARK   11  A    between atoms: C_12  and  O_31
REMARK   12  A    between atoms: C_14  and  C_30
REMARK   13  A    between atoms: C_19  and  C_20
REMARK                            x       y       z     vdW  Elec       q    Type
REMARK                         _______ _______ _______ _____ _____    ______ ____
ROOT
ATOM      1  C   UNL     1      -0.634  -4.507  -2.826  0.00  0.00    +0.020 A 
ATOM      2  C   UNL     1      -1.345  -4.943  -1.719  0.00  0.00    +0.122 A 
ATOM      3  C   UNL     1      -2.681  -5.315  -1.837  0.00  0.00    +0.050 A 
ATOM      4  C   UNL     1      -3.307  -5.253  -3.050  0.00  0.00    -0.033 A 
ATOM      5  C   UNL     1      -2.604  -4.816  -4.173  0.00  0.00    +0.071 A 
ATOM      6  C   UNL     1      -1.257  -4.433  -4.066  0.00  0.00    +0.145 A 
ATOM      7  O   UNL     1      -0.796  -4.044  -5.275  0.00  0.00    -0.451 OA
ATOM      8  C   UNL     1      -1.752  -4.128  -6.229  0.00  0.00    +0.176 C 
ATOM      9  C   UNL     1      -1.606  -3.811  -7.540  0.00  0.00    +0.058 C 
ATOM     10  C   UNL     1      -2.975  -4.638  -5.589  0.00  0.00    +0.232 C 
ATOM     11  O   UNL     1      -4.056  -4.852  -6.109  0.00  0.00    -0.283 OA
ATOM     12  C   UNL     1      -4.753  -5.657  -3.175  0.00  0.00    +0.045 C 
ENDROOT
BRANCH   9  13
ATOM     13  C   UNL     1      -2.779  -3.785  -8.425  0.00  0.00    -0.020 A 
ATOM     14  C   UNL     1      -3.999  -3.280  -7.960  0.00  0.00    +0.009 A 
ATOM     15  C   UNL     1      -5.096  -3.259  -8.795  0.00  0.00    +0.022 A 
ATOM     16  C   UNL     1      -4.993  -3.736 -10.092  0.00  0.00    +0.059 A 
ATOM     17  C   UNL     1      -3.788  -4.239 -10.559  0.00  0.00    +0.060 A 
ATOM     18  C   UNL     1      -2.681  -4.261  -9.737  0.00  0.00    +0.029 A 
ATOM     19 CL   UNL     1      -3.671  -4.835 -12.186  0.00  0.00    -0.082 Cl
ATOM     20 CL   UNL     1      -6.380  -3.706 -11.136  0.00  0.00    -0.082 Cl
ENDBRANCH   9  13
BRANCH   2  21
ATOM     21  O   UNL     1      -0.732  -5.008  -0.510  0.00  0.00    -0.506 OA
ATOM     22  H   UNL     1      -0.801  -4.195   0.010  0.00  0.00    +0.292 HD
ENDBRANCH   2  21
BRANCH   1  23
ATOM     23  C   UNL     1       0.812  -4.108  -2.684  0.00  0.00    -0.036 C 
BRANCH  23  24
ATOM     24  N   UNL     1       0.896  -2.676  -2.367  0.00  0.00    +0.383 N 
ATOM     25  H   UNL     1       0.399  -2.147  -3.067  0.00  0.00    -0.081 HD
BRANCH  24  26
ATOM     26  C   UNL     1       0.294  -2.431  -1.049  0.00  0.00    -0.078 C 
BRANCH  26  27
ATOM     27  C   UNL     1       0.283  -0.928  -0.765  0.00  0.00    -0.019 C 
BRANCH  27  29
ATOM     28  C   UNL     1      -0.475   0.842   0.827  0.00  0.00    +0.004 C 
ATOM     29  C   UNL     1      -0.464  -0.661   0.543  0.00  0.00    -0.005 C 
ENDBRANCH  27  29
ENDBRANCH  26  27
ENDBRANCH  24  26
BRANCH  24  30
ATOM     30  C   UNL     1       2.305  -2.261  -2.346  0.00  0.00    -0.078 C 
BRANCH  30  31
ATOM     31  C   UNL     1       2.892  -2.379  -3.754  0.00  0.00    -0.019 C 
BRANCH  31  32
ATOM     32  C   UNL     1       4.316  -1.821  -3.761  0.00  0.00    -0.005 C 
ATOM     33  C   UNL     1       4.903  -1.938  -5.169  0.00  0.00    +0.004 C 
ENDBRANCH  31  32
ENDBRANCH  30  31
ENDBRANCH  24  30
ENDBRANCH  23  24
ENDBRANCH   1  23
TORSDOF 10
