REMARK  Name = ZINC15229952
REMARK  12 active torsions:
REMARK  status: ('A' for Active; 'I' for Inactive)
REMARK    1  A    between atoms: C_1  and  C_2
REMARK    2  A    between atoms: C_5  and  S_8
REMARK    3  A    between atoms: S_8  and  N_11
REMARK    4  A    between atoms: N_11  and  C_12
REMARK    5  A    between atoms: C_12  and  C_14
REMARK    6  A    between atoms: C_12  and  C_29
REMARK    7  A    between atoms: C_14  and  C_15
REMARK    8  A    between atoms: N_17  and  N_18
REMARK    9  A    between atoms: C_19  and  C_20
REMARK   10  A    between atoms: C_24  and  O_27
REMARK   11  A    between atoms: C_25  and  O_26
REMARK   12  A    between atoms: O_27  and  C_28
REMARK                            x       y       z     vdW  Elec       q    Type
REMARK                         _______ _______ _______ _____ _____    ______ ____
ROOT
ATOM      1  C   UNL     1      -4.839   9.436   0.094  0.00  0.00    +0.115 C 
ENDROOT
BRANCH   1   2
ATOM      2  C   UNL     1      -6.150  10.172  -0.015  0.00  0.00    -0.028 A 
ATOM      3  C   UNL     1      -6.946  10.335   1.104  0.00  0.00    +0.005 A 
ATOM      4  C   UNL     1      -8.146  11.013   1.005  0.00  0.00    +0.000 A 
ATOM      5  C   UNL     1      -8.555  11.521  -0.214  0.00  0.00    +0.000 A 
ATOM      6  C   UNL     1      -7.762  11.354  -1.333  0.00  0.00    +0.000 A 
ATOM      7  C   UNL     1      -6.559  10.679  -1.234  0.00  0.00    +0.005 A 
ENDBRANCH   1   2
BRANCH   1   8
ATOM      8  N   UNL     1      -4.170   9.812   1.341  0.00  0.00    -0.182 NA
ATOM      9  H   UNL     1      -4.390   9.353   2.167  0.00  0.00    +0.149 HD
BRANCH   8  10
ATOM     10  S   UNL     1      -3.039  11.021   1.342  0.00  0.00    +0.059 S 
ATOM     11  O   UNL     1      -2.600  11.166   2.686  0.00  0.00    -0.153 OA
ATOM     12  O   UNL     1      -2.144  10.741   0.274  0.00  0.00    -0.153 OA
BRANCH  10  17
ATOM     13  C   UNL     1      -5.894  16.138  -0.097  0.00  0.00    +0.044 C 
ATOM     14  C   UNL     1      -5.181  14.860   0.262  0.00  0.00    -0.050 A 
ATOM     15  C   UNL     1      -5.073  14.478   1.586  0.00  0.00    +0.005 A 
ATOM     16  C   UNL     1      -4.419  13.306   1.916  0.00  0.00    +0.029 A 
ATOM     17  C   UNL     1      -3.873  12.515   0.922  0.00  0.00    +0.105 A 
ATOM     18  C   UNL     1      -3.976  12.900  -0.402  0.00  0.00    +0.029 A 
ATOM     19  C   UNL     1      -4.634  14.070  -0.732  0.00  0.00    +0.005 A 
ENDBRANCH  10  17
ENDBRANCH   8  10
ENDBRANCH   1   8
BRANCH   1  20
ATOM     20  C   UNL     1      -5.099   7.928   0.088  0.00  0.00    +0.122 C 
BRANCH  20  21
ATOM     21  C   UNL     1      -3.784   7.192   0.073  0.00  0.00    +0.234 C 
ATOM     22  O   UNL     1      -2.742   7.813   0.067  0.00  0.00    -0.274 OA
ATOM     23  N   UNL     1      -3.766   5.845   0.066  0.00  0.00    -0.207 N 
ATOM     24  H   UNL     1      -4.599   5.349   0.071  0.00  0.00    +0.177 HD
BRANCH  23  25
ATOM     25  N   UNL     1      -2.543   5.161   0.052  0.00  0.00    -0.188 NA
ATOM     26  C   UNL     1      -2.526   3.863   0.045  0.00  0.00    +0.142 C 
BRANCH  26  27
ATOM     27  C   UNL     1      -1.240   3.143   0.030  0.00  0.00    +0.040 A 
ATOM     28  C   UNL     1      -1.218   1.746   0.017  0.00  0.00    +0.013 A 
ATOM     29  C   UNL     1      -0.013   1.076   0.008  0.00  0.00    +0.004 A 
ATOM     30  C   UNL     1       1.179   1.781   0.000  0.00  0.00    +0.049 A 
ATOM     31  C   UNL     1       1.172   3.167   0.008  0.00  0.00    +0.162 A 
ATOM     32  C   UNL     1      -0.035   3.856   0.023  0.00  0.00    +0.167 A 
BRANCH  32  33
ATOM     33  O   UNL     1      -0.046   5.215   0.030  0.00  0.00    -0.503 OA
ATOM     34  H   UNL     1      -0.057   5.613  -0.851  0.00  0.00    +0.292 HD
ENDBRANCH  32  33
BRANCH  31  35
ATOM     35  O   UNL     1       2.346   3.853   0.000  0.00  0.00    -0.491 OA
ATOM     36  C   UNL     1       3.548   3.081  -0.015  0.00  0.00    +0.277 C 
ENDBRANCH  31  35
ENDBRANCH  26  27
ENDBRANCH  23  25
ENDBRANCH  20  21
ENDBRANCH   1  20
TORSDOF 10
