REMARK  Name = ZINC06631466
REMARK  14 active torsions:
REMARK  status: ('A' for Active; 'I' for Inactive)
REMARK    1  A    between atoms: C_1  and  C_2
REMARK    2  A    between atoms: C_2  and  O_3
REMARK    3  A    between atoms: O_3  and  C_4
REMARK    4  A    between atoms: C_9  and  N_10
REMARK    5  A    between atoms: N_10  and  C_11
REMARK    6  A    between atoms: C_11  and  C_13
REMARK    7  A    between atoms: C_11  and  C_20
REMARK    8  A    between atoms: N_22  and  C_23
REMARK    9  A    between atoms: C_23  and  C_24
REMARK   10  A    between atoms: C_24  and  O_25
REMARK   11  A    between atoms: O_25  and  C_26
REMARK   12  A    between atoms: C_27  and  C_29
REMARK   13  A    between atoms: C_30  and  N_37
REMARK   14  A    between atoms: C_31  and  C_34
REMARK                            x       y       z     vdW  Elec       q    Type
REMARK                         _______ _______ _______ _____ _____    ______ ____
ROOT
ATOM      1  N   UNL     1       3.384   1.664  -0.997  0.00  0.00    -0.247 N 
ATOM      2  C   UNL     1       3.712   0.997  -2.121  0.00  0.00    +0.262 C 
ATOM      3  O   UNL     1       3.320  -0.144  -2.288  0.00  0.00    -0.269 OA
ENDROOT
BRANCH   1   9
ATOM      4  C   UNL     1       3.058   4.051  -1.230  0.00  0.00    +0.142 A 
ATOM      5  C   UNL     1       3.507   5.347  -1.034  0.00  0.00    +0.047 A 
ATOM      6  C   UNL     1       4.729   5.571  -0.427  0.00  0.00    +0.004 A 
ATOM      7  C   UNL     1       5.503   4.505  -0.010  0.00  0.00    +0.002 A 
ATOM      8  C   UNL     1       5.060   3.209  -0.197  0.00  0.00    +0.027 A 
ATOM      9  C   UNL     1       3.835   2.977  -0.805  0.00  0.00    +0.079 A 
BRANCH   4  10
ATOM     10  O   UNL     1       1.858   3.829  -1.831  0.00  0.00    -0.490 OA
BRANCH  10  12
ATOM     11  C   UNL     1      -0.196   4.534  -2.892  0.00  0.00    +0.048 C 
ATOM     12  C   UNL     1       1.115   4.979  -2.241  0.00  0.00    +0.226 C 
ENDBRANCH  10  12
ENDBRANCH   4  10
ENDBRANCH   1   9
BRANCH   2  13
ATOM     13  C   UNL     1       4.539   1.643  -3.142  0.00  0.00    +0.116 A 
ATOM     14  C   UNL     1       4.990   1.141  -4.364  0.00  0.00    +0.076 A 
ATOM     15  C   UNL     1       5.763   2.064  -5.068  0.00  0.00    +0.155 A 
ATOM     16  N   UNL     1       5.982   3.250  -4.546  0.00  0.00    -0.203 NA
ATOM     17  S   UNL     1       5.233   3.283  -3.160  0.00  0.00    +0.019 S 
BRANCH  15  18
ATOM     18  C   UNL     1       6.329   1.712  -6.383  0.00  0.00    +0.262 C 
ATOM     19  O   UNL     1       6.123   0.612  -6.860  0.00  0.00    -0.269 OA
ATOM     20  N   UNL     1       7.075   2.609  -7.058  0.00  0.00    -0.324 N 
ATOM     21  H   UNL     1       7.239   3.487  -6.678  0.00  0.00    +0.145 HD
ATOM     22  H   UNL     1       7.447   2.378  -7.923  0.00  0.00    +0.145 HD
ENDBRANCH  15  18
BRANCH  14  23
ATOM     23  N   UNL     1       4.702  -0.137  -4.826  0.00  0.00    -0.355 N 
ATOM     24  H   UNL     1       4.158  -0.735  -4.291  0.00  0.00    +0.142 HD
ATOM     25  H   UNL     1       5.044  -0.430  -5.685  0.00  0.00    +0.142 HD
ENDBRANCH  14  23
ENDBRANCH   2  13
BRANCH   1  26
ATOM     26  C   UNL     1       2.557   1.018   0.024  0.00  0.00    +0.198 C 
BRANCH  26  27
ATOM     27  C   UNL     1       1.376   1.898   0.344  0.00  0.00    -0.018 A 
ATOM     28  C   UNL     1       1.572   3.122   0.956  0.00  0.00    +0.009 A 
ATOM     29  C   UNL     1       0.490   3.928   1.254  0.00  0.00    +0.038 A 
ATOM     30  C   UNL     1      -0.791   3.512   0.932  0.00  0.00    +0.123 A 
ATOM     31  C   UNL     1      -0.987   2.286   0.320  0.00  0.00    +0.038 A 
ATOM     32  C   UNL     1       0.097   1.480   0.027  0.00  0.00    +0.009 A 
ATOM     33  F   UNL     1      -1.850   4.301   1.220  0.00  0.00    -0.205 F 
ENDBRANCH  26  27
BRANCH  26  34
ATOM     34  C   UNL     1       3.375   0.801   1.271  0.00  0.00    +0.239 C 
ATOM     35  O   UNL     1       4.535   1.153   1.304  0.00  0.00    -0.273 OA
ATOM     36  N   UNL     1       2.817   0.218   2.350  0.00  0.00    -0.311 N 
ATOM     37  H   UNL     1       1.889  -0.063   2.324  0.00  0.00    +0.149 HD
BRANCH  36  38
ATOM     38  C   UNL     1       3.612   0.007   3.562  0.00  0.00    +0.132 C 
BRANCH  38  39
ATOM     39  C   UNL     1       2.748  -0.668   4.629  0.00  0.00    +0.178 C 
BRANCH  39  40
ATOM     40  O   UNL     1       2.380  -1.976   4.186  0.00  0.00    -0.381 OA
ATOM     41  C   UNL     1       1.567  -2.697   5.114  0.00  0.00    +0.194 C 
ENDBRANCH  39  40
ENDBRANCH  38  39
ENDBRANCH  36  38
ENDBRANCH  26  34
ENDBRANCH   1  26
TORSDOF 12
