REMARK  Name = ZINC63820550
REMARK  16 active torsions:
REMARK  status: ('A' for Active; 'I' for Inactive)
REMARK    1  A    between atoms: C_1  and  C_2
REMARK    2  A    between atoms: C_2  and  C_3
REMARK    3  A    between atoms: C_3  and  C_5
REMARK    4  A    between atoms: C_3  and  N_33
REMARK    5  A    between atoms: C_9  and  S_18
REMARK    6  A    between atoms: N_10  and  C_11
REMARK    7  A    between atoms: C_11  and  C_12
REMARK    8  A    between atoms: S_18  and  C_19
REMARK    9  A    between atoms: C_19  and  C_20
REMARK   10  A    between atoms: C_20  and  C_22
REMARK   11  A    between atoms: C_23  and  C_32
REMARK   12  A    between atoms: C_24  and  C_29
REMARK   13  A    between atoms: C_25  and  C_28
REMARK   14  A    between atoms: C_29  and  C_31
REMARK   15  A    between atoms: N_33  and  C_34
REMARK   16  A    between atoms: N_33  and  C_35
REMARK                            x       y       z     vdW  Elec       q    Type
REMARK                         _______ _______ _______ _____ _____    ______ ____
ROOT
ATOM      1  C   UNL     1       1.411  -2.008  -1.138  0.00  0.00    +0.164 C 
ATOM      2  N   UNL     1       1.832  -2.998  -2.145  0.00  0.00    -0.248 N 
ATOM      3  N   UNL     1       0.854  -4.000  -2.139  0.00  0.00    -0.163 NA
ATOM      4  C   UNL     1      -0.076  -3.748  -1.281  0.00  0.00    +0.176 C 
ATOM      5  N   UNL     1       0.153  -2.556  -0.603  0.00  0.00    -0.286 N 
ATOM      6  H   UNL     1       2.626  -2.962  -2.701  0.00  0.00    +0.170 HD
ENDROOT
BRANCH   1   7
ATOM      7  C   UNL     1       1.169  -0.647  -1.792  0.00  0.00    -0.029 C 
BRANCH   7   8
ATOM      8  N   UNL     1       0.557  -0.841  -3.114  0.00  0.00    +0.380 N 
ATOM      9  C   UNL     1       1.381  -1.765  -3.904  0.00  0.00    -0.096 C 
ATOM     10  C   UNL     1      -0.791  -1.402  -2.951  0.00  0.00    -0.096 C 
ATOM     11  H   UNL     1       0.496   0.047  -3.590  0.00  0.00    -0.082 HD
ENDBRANCH   7   8
BRANCH   7  13
ATOM     12  C   UNL     1       2.268   1.422  -2.663  0.00  0.00    +0.002 C 
ATOM     13  C   UNL     1       2.502   0.088  -1.950  0.00  0.00    -0.015 C 
ENDBRANCH   7  13
ENDBRANCH   1   7
BRANCH   5  14
ATOM     14  C   UNL     1      -0.689  -1.960   0.437  0.00  0.00    +0.144 C 
BRANCH  14  15
ATOM     15  C   UNL     1      -1.813  -1.190  -0.207  0.00  0.00    -0.030 A 
ATOM     16  C   UNL     1      -1.700   0.176  -0.388  0.00  0.00    +0.005 A 
ATOM     17  C   UNL     1      -2.731   0.882  -0.979  0.00  0.00    +0.000 A 
ATOM     18  C   UNL     1      -3.874   0.223  -1.389  0.00  0.00    +0.000 A 
ATOM     19  C   UNL     1      -3.987  -1.143  -1.210  0.00  0.00    +0.000 A 
ATOM     20  C   UNL     1      -2.954  -1.850  -0.623  0.00  0.00    +0.005 A 
ENDBRANCH  14  15
ENDBRANCH   5  14
BRANCH   4  21
ATOM     21  S   UNL     1      -1.468  -4.790  -0.999  0.00  0.00    -0.081 S 
BRANCH  21  22
ATOM     22  C   UNL     1      -1.224  -6.170  -2.152  0.00  0.00    +0.158 C 
BRANCH  22  23
ATOM     23  C   UNL     1      -2.361  -7.149  -2.012  0.00  0.00    +0.190 C 
ATOM     24  O   UNL     1      -3.250  -6.936  -1.213  0.00  0.00    -0.290 OA
BRANCH  23  25
ATOM     25  C   UNL     1      -2.393  -8.316  -2.813  0.00  0.00    +0.087 A 
ATOM     26  C   UNL     1      -3.371  -9.285  -2.790  0.00  0.00    -0.012 A 
ATOM     27  C   UNL     1      -3.002 -10.261  -3.745  0.00  0.00    +0.041 A 
ATOM     28  C   UNL     1      -1.807  -9.843  -4.313  0.00  0.00    +0.024 A 
ATOM     29  N   UNL     1      -1.452  -8.678  -3.756  0.00  0.00    -0.355 N 
ATOM     30  H   UNL     1      -0.656  -8.169  -3.978  0.00  0.00    +0.166 HD
ATOM     31  C   UNL     1      -1.040 -10.576  -5.383  0.00  0.00    +0.064 C 
ATOM     32  C   UNL     1      -4.598  -9.303  -1.916  0.00  0.00    +0.047 C 
BRANCH  27  33
ATOM     33  C   UNL     1      -3.742 -11.483  -4.072  0.00  0.00    +0.162 C 
ATOM     34  O   UNL     1      -3.579 -12.487  -3.411  0.00  0.00    -0.292 OA
ATOM     35  C   UNL     1      -4.706 -11.493  -5.230  0.00  0.00    +0.091 C 
ENDBRANCH  27  33
ENDBRANCH  23  25
ENDBRANCH  22  23
ENDBRANCH  21  22
ENDBRANCH   4  21
TORSDOF 10
