REMARK  Name = ZINC27146237
REMARK  9 active torsions:
REMARK  status: ('A' for Active; 'I' for Inactive)
REMARK    1  A    between atoms: C_1  and  C_2
REMARK    2  A    between atoms: C_2  and  C_3
REMARK    3  A    between atoms: C_3  and  C_5
REMARK    4  A    between atoms: C_3  and  C_6
REMARK    5  A    between atoms: C_9  and  S_12
REMARK    6  A    between atoms: S_12  and  N_15
REMARK    7  A    between atoms: N_18  and  C_21
REMARK    8  A    between atoms: C_21  and  C_23
REMARK    9  A    between atoms: C_21  and  C_24
REMARK                            x       y       z     vdW  Elec       q    Type
REMARK                         _______ _______ _______ _____ _____    ______ ____
ROOT
ATOM      1  N   UNL     1      -2.058   2.628   8.940  0.00  0.00    -0.180 NA
ATOM      2  C   UNL     1      -1.603   1.572   9.857  0.00  0.00    +0.091 C 
ATOM      3  C   UNL     1      -0.069   1.511   9.799  0.00  0.00    -0.060 C 
ATOM      4  N   UNL     1       0.479   2.847  10.070  0.00  0.00    +0.388 N 
ATOM      5  C   UNL     1       0.072   3.809   9.037  0.00  0.00    -0.060 C 
ATOM      6  C   UNL     1      -1.453   3.963   9.060  0.00  0.00    +0.091 C 
ATOM      7  H   UNL     1       0.066   3.191  11.029  0.00  0.00    -0.081 HD
ENDROOT
BRANCH   1   8
ATOM      8  S   UNL     1      -3.226   2.323   7.806  0.00  0.00    +0.061 S 
ATOM      9  O   UNL     1      -3.830   3.573   7.499  0.00  0.00    -0.153 OA
ATOM     10  O   UNL     1      -3.974   1.213   8.281  0.00  0.00    -0.153 OA
BRANCH   8  14
ATOM     11  C   UNL     1      -1.114   0.948   4.046  0.00  0.00    -0.044 A 
ATOM     12  C   UNL     1      -1.362   2.292   4.247  0.00  0.00    +0.006 A 
ATOM     13  C   UNL     1      -2.012   2.712   5.392  0.00  0.00    +0.029 A 
ATOM     14  C   UNL     1      -2.404   1.788   6.342  0.00  0.00    +0.105 A 
ATOM     15  C   UNL     1      -2.151   0.443   6.144  0.00  0.00    +0.029 A 
ATOM     16  C   UNL     1      -1.506   0.023   4.996  0.00  0.00    +0.006 A 
BRANCH  11  17
ATOM     17  C   UNL     1      -0.410   0.489   2.795  0.00  0.00    +0.016 C 
ATOM     18  C   UNL     1       0.972   1.141   2.720  0.00  0.00    +0.012 C 
BRANCH  17  20
ATOM     19  C   UNL     1      -0.583   0.323   0.308  0.00  0.00    +0.004 C 
ATOM     20  C   UNL     1      -1.232   0.895   1.570  0.00  0.00    +0.004 C 
ENDBRANCH  17  20
ENDBRANCH  11  17
ENDBRANCH   8  14
ENDBRANCH   1   8
BRANCH   4  21
ATOM     21  C   UNL     1       1.942   2.800  10.197  0.00  0.00    -0.004 C 
ATOM     22  C   UNL     1       2.569   2.627   8.813  0.00  0.00    -0.005 C 
BRANCH  21  23
ATOM     23  C   UNL     1       2.434   4.083  10.815  0.00  0.00    +0.096 A 
ATOM     24  N   UNL     1       3.775   4.283  10.905  0.00  0.00    -0.312 N 
ATOM     25  C   UNL     1       4.268   5.419  11.451  0.00  0.00    +0.259 A 
ATOM     26  O   UNL     1       5.467   5.610  11.538  0.00  0.00    -0.267 OA
ATOM     27  C   UNL     1       3.298   6.407  11.946  0.00  0.00    +0.065 A 
ATOM     28  C   UNL     1       3.701   7.604  12.534  0.00  0.00    +0.015 A 
ATOM     29  C   UNL     1       2.750   8.495  12.981  0.00  0.00    +0.001 A 
ATOM     30  C   UNL     1       1.397   8.210  12.848  0.00  0.00    +0.002 A 
ATOM     31  C   UNL     1       0.979   7.033  12.269  0.00  0.00    +0.028 A 
ATOM     32  C   UNL     1       1.923   6.116  11.804  0.00  0.00    +0.078 A 
ATOM     33  N   UNL     1       1.555   4.942  11.234  0.00  0.00    -0.235 NA
ATOM     34  H   UNL     1       4.471   3.517  10.531  0.00  0.00    +0.170 HD
ENDBRANCH  21  23
ENDBRANCH   4  21
TORSDOF 6
