REMARK  Name = ZINC36567230
REMARK  10 active torsions:
REMARK  status: ('A' for Active; 'I' for Inactive)
REMARK    1  A    between atoms: C_1  and  C_2
REMARK    2  A    between atoms: C_2  and  C_3
REMARK    3  A    between atoms: C_3  and  N_4
REMARK    4  A    between atoms: N_4  and  C_5
REMARK    5  A    between atoms: C_5  and  C_7
REMARK    6  A    between atoms: C_5  and  C_14
REMARK    7  A    between atoms: C_12  and  O_13
REMARK    8  A    between atoms: N_16  and  C_17
REMARK    9  A    between atoms: C_23  and  C_25
REMARK   10  A    between atoms: C_25  and  C_26
REMARK                            x       y       z     vdW  Elec       q    Type
REMARK                         _______ _______ _______ _____ _____    ______ ____
ROOT
ATOM      1  C   UNL     1      -0.384  -2.502  -1.808  0.00  0.00    +0.196 C 
ENDROOT
BRANCH   1   2
ATOM      2  C   UNL     1      -0.232  -2.034  -3.233  0.00  0.00    +0.023 A 
ATOM      3  C   UNL     1      -1.066  -1.053  -3.732  0.00  0.00    +0.009 A 
ATOM      4  C   UNL     1      -0.926  -0.624  -5.038  0.00  0.00    +0.001 A 
ATOM      5  C   UNL     1       0.048  -1.176  -5.849  0.00  0.00    +0.004 A 
ATOM      6  C   UNL     1       0.885  -2.158  -5.355  0.00  0.00    +0.046 A 
ATOM      7  C   UNL     1       0.751  -2.586  -4.042  0.00  0.00    +0.122 A 
BRANCH   7   8
ATOM      8  O   UNL     1       1.576  -3.547  -3.552  0.00  0.00    -0.506 OA
ATOM      9  H   UNL     1       1.286  -4.450  -3.743  0.00  0.00    +0.292 HD
ENDBRANCH   7   8
ENDBRANCH   1   2
BRANCH   1  10
ATOM     10  C   UNL     1      -1.733  -2.081  -1.283  0.00  0.00    +0.238 C 
ATOM     11  O   UNL     1      -1.819  -1.156  -0.504  0.00  0.00    -0.273 OA
ATOM     12  N   UNL     1      -2.844  -2.733  -1.681  0.00  0.00    -0.311 N 
ATOM     13  H   UNL     1      -2.770  -3.515  -2.250  0.00  0.00    +0.149 HD
BRANCH  12  14
ATOM     14  C   UNL     1      -4.163  -2.260  -1.252  0.00  0.00    +0.073 C 
ATOM     15  C   UNL     1      -4.491  -2.842   0.124  0.00  0.00    +0.022 C 
ATOM     16  C   UNL     1      -5.868  -2.348   0.571  0.00  0.00    +0.002 C 
ATOM     17  C   UNL     1      -6.925  -2.801  -0.439  0.00  0.00    +0.000 C 
ATOM     18  C   UNL     1      -6.597  -2.219  -1.815  0.00  0.00    +0.002 C 
ATOM     19  C   UNL     1      -5.219  -2.713  -2.262  0.00  0.00    +0.022 C 
ENDBRANCH  12  14
ENDBRANCH   1  10
BRANCH   1  20
ATOM     20  N   UNL     1       0.669  -1.905  -0.983  0.00  0.00    -0.286 N 
ATOM     21  C   UNL     1       0.846  -0.569  -0.979  0.00  0.00    +0.221 C 
ATOM     22  O   UNL     1       0.133   0.140  -1.658  0.00  0.00    -0.275 OA
BRANCH  20  23
ATOM     23  C   UNL     1       1.529  -2.760  -0.162  0.00  0.00    +0.108 C 
BRANCH  23  25
ATOM     24  C   UNL     1       3.760  -3.879  -0.036  0.00  0.00    +0.005 C 
ATOM     25  C   UNL     1       2.801  -3.101  -0.940  0.00  0.00    +0.016 C 
ENDBRANCH  23  25
ENDBRANCH  20  23
BRANCH  21  26
ATOM     26  C   UNL     1       1.929   0.045  -0.130  0.00  0.00    +0.131 C 
BRANCH  26  27
ATOM     27  C   UNL     1       1.916   1.542  -0.304  0.00  0.00    -0.039 A 
ATOM     28  C   UNL     1       2.676   2.129  -1.299  0.00  0.00    +0.005 A 
ATOM     29  C   UNL     1       2.664   3.502  -1.459  0.00  0.00    +0.015 A 
ATOM     30  C   UNL     1       1.891   4.288  -0.624  0.00  0.00    +0.018 A 
ATOM     31  C   UNL     1       1.131   3.701   0.371  0.00  0.00    +0.015 A 
ATOM     32  C   UNL     1       1.139   2.328   0.527  0.00  0.00    +0.005 A 
ATOM     33 BR   UNL     1       1.875   6.167  -0.843  0.00  0.00    -0.050 Br
ENDBRANCH  26  27
ENDBRANCH  21  26
ENDBRANCH   1  20
TORSDOF 9
