REMARK  Name = ZINC39686195
REMARK  7 active torsions:
REMARK  status: ('A' for Active; 'I' for Inactive)
REMARK    1  A    between atoms: C_1  and  C_2
REMARK    2  A    between atoms: C_2  and  C_3
REMARK    3  A    between atoms: C_2  and  C_4
REMARK    4  A    between atoms: C_4  and  C_5
REMARK    5  A    between atoms: C_10  and  N_13
REMARK    6  A    between atoms: C_14  and  C_16
REMARK    7  A    between atoms: C_27  and  C_29
REMARK                            x       y       z     vdW  Elec       q    Type
REMARK                         _______ _______ _______ _____ _____    ______ ____
ROOT
ATOM      1  C   UNL     1       7.761  -4.211  -4.742  0.00  0.00    +0.100 C 
ATOM      2  C   UNL     1       7.010  -5.273  -5.575  0.00  0.00    +0.121 C 
ATOM      3  N   UNL     1       7.424  -5.013  -6.974  0.00  0.00    -0.296 N 
ATOM      4  C   UNL     1       8.866  -4.681  -6.876  0.00  0.00    +0.115 C 
ATOM      5  C   UNL     1       8.980  -3.827  -5.597  0.00  0.00    -0.004 C 
ATOM      6  C   UNL     1      10.271  -4.157  -4.856  0.00  0.00    -0.010 C 
ATOM      7  C   UNL     1      11.469  -3.713  -5.701  0.00  0.00    -0.082 C 
ATOM      8  N   UNL     1      11.382  -2.270  -5.955  0.00  0.00    +0.379 N 
ATOM      9  C   UNL     1      10.184  -1.973  -6.750  0.00  0.00    -0.082 C 
ATOM     10  C   UNL     1       8.933  -2.343  -5.949  0.00  0.00    -0.010 C 
ATOM     11  C   UNL     1       6.663  -5.068  -8.085  0.00  0.00    +0.249 C 
ATOM     12  O   UNL     1       5.466  -5.263  -7.992  0.00  0.00    -0.270 OA
ATOM     13  H   UNL     1      11.332  -1.778  -5.076  0.00  0.00    -0.086 HD
ATOM     14  H   UNL     1      12.202  -1.969  -6.460  0.00  0.00    -0.086 HD
ENDROOT
BRANCH  11  15
ATOM     15  C   UNL     1       7.281  -4.891  -9.413  0.00  0.00    +0.072 A 
ATOM     16  C   UNL     1       8.569  -5.375  -9.658  0.00  0.00    +0.019 A 
ATOM     17  C   UNL     1       9.141  -5.207 -10.899  0.00  0.00    +0.039 A 
ATOM     18  C   UNL     1       8.443  -4.558 -11.907  0.00  0.00    +0.126 A 
ATOM     19  C   UNL     1       7.166  -4.075 -11.674  0.00  0.00    +0.077 A 
ATOM     20  C   UNL     1       6.578  -4.242 -10.434  0.00  0.00    +0.138 A 
ATOM     21  F   UNL     1       5.331  -3.776 -10.208  0.00  0.00    -0.205 F 
ATOM     22  F   UNL     1       9.011  -4.397 -13.122  0.00  0.00    -0.205 F 
ENDBRANCH  11  15
BRANCH   1  24
ATOM     23  N   UNL     1       7.024  -2.276  -3.389  0.00  0.00    -0.312 N 
ATOM     24  C   UNL     1       6.882  -3.008  -4.511  0.00  0.00    +0.218 C 
ATOM     25  O   UNL     1       6.048  -2.700  -5.335  0.00  0.00    -0.275 OA
ATOM     26  H   UNL     1       7.692  -2.522  -2.730  0.00  0.00    +0.149 HD
BRANCH  23  32
ATOM     27  C   UNL     1       5.886   2.691  -1.625  0.00  0.00    +0.216 C 
ATOM     28  O   UNL     1       6.293   3.624  -2.285  0.00  0.00    -0.276 OA
ATOM     29  N   UNL     1       5.641   1.505  -2.215  0.00  0.00    -0.301 N 
ATOM     30  C   UNL     1       5.142   0.367  -1.429  0.00  0.00    +0.109 C 
ATOM     31  C   UNL     1       6.064  -0.834  -1.662  0.00  0.00    +0.041 C 
ATOM     32  C   UNL     1       6.170  -1.107  -3.164  0.00  0.00    +0.076 C 
ATOM     33  C   UNL     1       6.779   0.111  -3.863  0.00  0.00    +0.041 C 
ATOM     34  C   UNL     1       5.861   1.325  -3.656  0.00  0.00    +0.109 C 
BRANCH  27  35
ATOM     35  C   UNL     1       5.656   2.859  -0.145  0.00  0.00    +0.099 C 
BRANCH  35  37
ATOM     36  C   UNL     1       5.043   5.268  -0.407  0.00  0.00    +0.008 C 
ATOM     37  C   UNL     1       6.008   4.290   0.267  0.00  0.00    -0.008 C 
ATOM     38  C   UNL     1       5.894   4.426   1.786  0.00  0.00    +0.008 C 
ENDBRANCH  35  37
ENDBRANCH  27  35
ENDBRANCH  23  32
ENDBRANCH   1  24
TORSDOF 5
