REMARK  Name = ZINC39696202
REMARK  10 active torsions:
REMARK  status: ('A' for Active; 'I' for Inactive)
REMARK    1  A    between atoms: C_1  and  C_2
REMARK    2  A    between atoms: C_2  and  C_3
REMARK    3  A    between atoms: C_6  and  C_9
REMARK    4  A    between atoms: C_9  and  C_11
REMARK    5  A    between atoms: C_9  and  N_12
REMARK    6  A    between atoms: C_13  and  C_15
REMARK    7  A    between atoms: C_26  and  C_28
REMARK    8  A    between atoms: C_29  and  C_39
REMARK    9  A    between atoms: C_32  and  C_33
REMARK   10  A    between atoms: C_35  and  C_38
REMARK                            x       y       z     vdW  Elec       q    Type
REMARK                         _______ _______ _______ _____ _____    ______ ____
ROOT
ATOM      1  C   UNL     1      -6.692  -4.983  -1.997  0.00  0.00    +0.100 C 
ATOM      2  C   UNL     1      -7.214  -4.319  -3.291  0.00  0.00    +0.121 C 
ATOM      3  N   UNL     1      -8.149  -5.312  -3.871  0.00  0.00    -0.296 N 
ATOM      4  C   UNL     1      -8.862  -5.875  -2.700  0.00  0.00    +0.115 C 
ATOM      5  C   UNL     1      -7.777  -6.003  -1.612  0.00  0.00    -0.004 C 
ATOM      6  C   UNL     1      -8.360  -5.663  -0.244  0.00  0.00    -0.010 C 
ATOM      7  C   UNL     1      -9.394  -6.723   0.144  0.00  0.00    -0.082 C 
ATOM      8  N   UNL     1      -8.755  -8.044   0.177  0.00  0.00    +0.379 N 
ATOM      9  C   UNL     1      -8.279  -8.404  -1.165  0.00  0.00    -0.082 C 
ATOM     10  C   UNL     1      -7.198  -7.414  -1.607  0.00  0.00    -0.010 C 
ATOM     11  C   UNL     1      -8.313  -5.632  -5.170  0.00  0.00    +0.252 C 
ATOM     12  O   UNL     1      -9.129  -6.475  -5.490  0.00  0.00    -0.270 OA
ATOM     13  H   UNL     1      -7.973  -8.022   0.815  0.00  0.00    -0.086 HD
ATOM     14  H   UNL     1      -9.422  -8.732   0.491  0.00  0.00    -0.086 HD
ENDROOT
BRANCH  11  15
ATOM     15  C   UNL     1      -7.505  -4.960  -6.202  0.00  0.00    +0.108 A 
ATOM     16  C   UNL     1      -6.248  -5.388  -6.697  0.00  0.00    +0.093 A 
ATOM     17  N   UNL     1      -5.854  -4.536  -7.595  0.00  0.00    -0.082 NA
ATOM     18  O   UNL     1      -6.831  -3.521  -7.723  0.00  0.00    -0.352 OA
ATOM     19  C   UNL     1      -7.835  -3.792  -6.874  0.00  0.00    +0.201 A 
ATOM     20  C   UNL     1      -5.499  -6.620  -6.258  0.00  0.00    +0.070 C 
BRANCH  19  21
ATOM     21  C   UNL     1      -9.065  -2.991  -6.688  0.00  0.00    +0.152 A 
ATOM     22  C   UNL     1      -9.400  -1.802  -7.381  0.00  0.00    +0.079 A 
ATOM     23  C   UNL     1     -10.594  -1.379  -6.930  0.00  0.00    +0.135 A 
ATOM     24  O   UNL     1     -11.019  -2.241  -5.993  0.00  0.00    -0.359 OA
ATOM     25  N   UNL     1     -10.044  -3.258  -5.855  0.00  0.00    -0.075 NA
ATOM     26  C   UNL     1     -11.329  -0.148  -7.395  0.00  0.00    +0.089 C 
ENDBRANCH  19  21
ENDBRANCH  11  15
BRANCH   1  28
ATOM     27  N   UNL     1      -5.603  -4.133   0.054  0.00  0.00    -0.308 N 
ATOM     28  C   UNL     1      -6.529  -3.954  -0.909  0.00  0.00    +0.219 C 
ATOM     29  O   UNL     1      -7.231  -2.965  -0.899  0.00  0.00    -0.275 OA
ATOM     30  H   UNL     1      -5.042  -4.924   0.047  0.00  0.00    +0.149 HD
BRANCH  27  31
ATOM     31  C   UNL     1      -5.445  -3.133   1.113  0.00  0.00    +0.100 C 
ATOM     32  C   UNL     1      -4.512  -2.021   0.628  0.00  0.00    +0.033 C 
BRANCH  31  36
ATOM     33  C   UNL     1      -3.773  -4.984   4.581  0.00  0.00    -0.048 A 
ATOM     34  C   UNL     1      -4.772  -4.038   4.716  0.00  0.00    +0.004 A 
ATOM     35  C   UNL     1      -5.313  -3.439   3.594  0.00  0.00    +0.006 A 
ATOM     36  C   UNL     1      -4.854  -3.785   2.336  0.00  0.00    -0.027 A 
ATOM     37  C   UNL     1      -3.855  -4.730   2.201  0.00  0.00    +0.006 A 
ATOM     38  C   UNL     1      -3.311  -5.326   3.324  0.00  0.00    +0.004 A 
BRANCH  33  40
ATOM     39  C   UNL     1      -1.992  -4.814   6.298  0.00  0.00    +0.009 C 
ATOM     40  C   UNL     1      -3.183  -5.637   5.804  0.00  0.00    +0.032 C 
ENDBRANCH  33  40
ENDBRANCH  31  36
ENDBRANCH  27  31
ENDBRANCH   1  28
TORSDOF 6
