REMARK  Name = ZINC26138888
REMARK  8 active torsions:
REMARK  status: ('A' for Active; 'I' for Inactive)
REMARK    1  A    between atoms: C_1  and  C_2
REMARK    2  A    between atoms: C_2  and  C_4
REMARK    3  A    between atoms: C_2  and  N_13
REMARK    4  A    between atoms: C_14  and  C_16
REMARK    5  A    between atoms: C_16  and  C_18
REMARK    6  A    between atoms: C_16  and  N_19
REMARK    7  A    between atoms: N_22  and  S_25
REMARK    8  A    between atoms: S_25  and  C_28
REMARK                            x       y       z     vdW  Elec       q    Type
REMARK                         _______ _______ _______ _____ _____    ______ ____
ROOT
ATOM      1  N   UNL     1      -3.608   1.787   0.150  0.00  0.00    +0.389 N 
ATOM      2  C   UNL     1      -4.818   1.092   0.609  0.00  0.00    -0.060 C 
ATOM      3  C   UNL     1      -5.913   2.122   0.906  0.00  0.00    +0.091 C 
ATOM      4  N   UNL     1      -6.095   2.966  -0.284  0.00  0.00    -0.180 NA
ATOM      5  C   UNL     1      -4.905   3.588  -0.885  0.00  0.00    +0.091 C 
ATOM      6  C   UNL     1      -3.850   2.500  -1.111  0.00  0.00    -0.060 C 
ATOM      7  H   UNL     1      -3.343   2.535   0.911  0.00  0.00    -0.081 HD
ENDROOT
BRANCH   4   8
ATOM      8  S   UNL     1      -7.600   3.212  -0.930  0.00  0.00    +0.061 S 
ATOM      9  O   UNL     1      -8.533   2.989   0.118  0.00  0.00    -0.153 OA
ATOM     10  O   UNL     1      -7.539   4.436  -1.649  0.00  0.00    -0.153 OA
BRANCH   8  11
ATOM     11  C   UNL     1      -7.869   1.942  -2.122  0.00  0.00    +0.108 A 
ATOM     12  C   UNL     1      -7.501   2.142  -3.440  0.00  0.00    +0.031 A 
ATOM     13  C   UNL     1      -7.706   1.145  -4.375  0.00  0.00    +0.043 A 
ATOM     14  C   UNL     1      -8.290  -0.051  -3.995  0.00  0.00    +0.159 A 
ATOM     15  C   UNL     1      -8.663  -0.250  -2.675  0.00  0.00    +0.160 A 
ATOM     16  C   UNL     1      -8.452   0.749  -1.740  0.00  0.00    +0.069 A 
ATOM     17  F   UNL     1      -9.233  -1.416  -2.302  0.00  0.00    -0.202 F 
ATOM     18  F   UNL     1      -8.494  -1.024  -4.910  0.00  0.00    -0.202 F 
ENDBRANCH   8  11
ENDBRANCH   4   8
BRANCH   1  19
ATOM     19  C   UNL     1      -2.482   0.853   0.018  0.00  0.00    +0.016 C 
ATOM     20  C   UNL     1      -2.651   0.026  -1.258  0.00  0.00    -0.004 C 
BRANCH  19  22
ATOM     21  N   UNL     1      -0.015   0.995   0.123  0.00  0.00    -0.307 N 
ATOM     22  C   UNL     1      -1.192   1.628  -0.052  0.00  0.00    +0.200 C 
ATOM     23  O   UNL     1      -1.212   2.822  -0.266  0.00  0.00    -0.278 OA
ATOM     24  H   UNL     1       0.004  -0.087   0.322  0.00  0.00    +0.149 HD
BRANCH  21  26
ATOM     25  C   UNL     1       1.680   1.863  -1.412  0.00  0.00    +0.036 C 
ATOM     26  C   UNL     1       1.240   1.748   0.049  0.00  0.00    +0.136 C 
BRANCH  26  27
ATOM     27  C   UNL     1       2.304   1.030   0.839  0.00  0.00    +0.126 A 
ATOM     28  C   UNL     1       3.220   1.629   1.613  0.00  0.00    +0.055 A 
ATOM     29  C   UNL     1       4.039   0.553   2.183  0.00  0.00    +0.020 A 
ATOM     30  C   UNL     1       5.129   0.514   3.051  0.00  0.00    +0.011 A 
ATOM     31  C   UNL     1       5.681  -0.690   3.392  0.00  0.00    +0.001 A 
ATOM     32  C   UNL     1       5.163  -1.870   2.880  0.00  0.00    +0.004 A 
ATOM     33  C   UNL     1       4.085  -1.851   2.021  0.00  0.00    +0.047 A 
ATOM     34  C   UNL     1       3.509  -0.639   1.662  0.00  0.00    +0.135 A 
ATOM     35  O   UNL     1       2.475  -0.303   0.865  0.00  0.00    -0.458 OA
ENDBRANCH  26  27
ENDBRANCH  21  26
ENDBRANCH  19  22
ENDBRANCH   1  19
TORSDOF 6
