REMARK  Name = ZINC28065918
REMARK  8 active torsions:
REMARK  status: ('A' for Active; 'I' for Inactive)
REMARK    1  A    between atoms: C_1  and  C_2
REMARK    2  A    between atoms: C_5  and  C_8
REMARK    3  A    between atoms: C_11  and  C_35
REMARK    4  A    between atoms: C_18  and  C_21
REMARK    5  A    between atoms: C_21  and  C_22
REMARK    6  A    between atoms: N_24  and  C_25
REMARK    7  A    between atoms: C_28  and  N_31
REMARK    8  A    between atoms: C_32  and  C_34
REMARK                            x       y       z     vdW  Elec       q    Type
REMARK                         _______ _______ _______ _____ _____    ______ ____
ROOT
ATOM      1  C   UNL     1      10.768  -1.097   4.202  0.00  0.00    +0.136 C 
ATOM      2  C   UNL     1      10.976  -0.963   5.724  0.00  0.00    +0.087 C 
ATOM      3  C   UNL     1       9.729  -0.255   6.201  0.00  0.00    +0.069 C 
ATOM      4  N   UNL     1       8.958  -0.017   5.197  0.00  0.00    -0.182 NA
ATOM      5  N   UNL     1       9.461  -0.460   3.975  0.00  0.00    -0.195 N 
ATOM      6  C   UNL     1       8.840  -0.330   2.767  0.00  0.00    +0.170 C 
ATOM      7  N   UNL     1       9.269  -0.732   1.577  0.00  0.00    -0.157 NA
ATOM      8  C   UNL     1       8.611  -0.568   0.463  0.00  0.00    +0.252 C 
ATOM      9  O   UNL     1       9.039  -0.951  -0.609  0.00  0.00    -0.272 OA
ATOM     10  C   UNL     1       7.267   0.138   0.597  0.00  0.00    +0.150 C 
ATOM     11  S   UNL     1       7.256   0.423   2.413  0.00  0.00    -0.078 S 
ENDROOT
BRANCH   1  16
ATOM     12  C   UNL     1      14.924   1.711   1.333  0.00  0.00    +0.044 C 
ATOM     13  C   UNL     1      13.840   0.979   2.081  0.00  0.00    -0.050 A 
ATOM     14  C   UNL     1      13.867  -0.401   2.161  0.00  0.00    +0.004 A 
ATOM     15  C   UNL     1      12.872  -1.073   2.848  0.00  0.00    +0.006 A 
ATOM     16  C   UNL     1      11.852  -0.365   3.454  0.00  0.00    -0.025 A 
ATOM     17  C   UNL     1      11.822   1.014   3.369  0.00  0.00    +0.006 A 
ATOM     18  C   UNL     1      12.819   1.687   2.687  0.00  0.00    +0.004 A 
ENDBRANCH   1  16
BRANCH   3  19
ATOM     19  C   UNL     1       9.439   0.108   7.601  0.00  0.00    -0.002 A 
ATOM     20  C   UNL     1      10.351  -0.207   8.611  0.00  0.00    +0.010 A 
ATOM     21  C   UNL     1      10.077   0.142   9.917  0.00  0.00    +0.001 A 
ATOM     22  C   UNL     1       8.896   0.791  10.229  0.00  0.00    +0.000 A 
ATOM     23  C   UNL     1       7.984   1.101   9.235  0.00  0.00    +0.001 A 
ATOM     24  C   UNL     1       8.249   0.764   7.924  0.00  0.00    +0.010 A 
ENDBRANCH   3  19
BRANCH  10  25
ATOM     25  C   UNL     1       6.113  -0.771   0.168  0.00  0.00    +0.120 C 
BRANCH  25  26
ATOM     26  C   UNL     1       4.810  -0.026   0.300  0.00  0.00    +0.219 C 
ATOM     27  O   UNL     1       4.804   1.119   0.699  0.00  0.00    -0.275 OA
ATOM     28  N   UNL     1       3.651  -0.633  -0.024  0.00  0.00    -0.285 N 
ATOM     29  H   UNL     1       3.646  -1.696  -0.304  0.00  0.00    +0.155 HD
BRANCH  28  30
ATOM     30  C   UNL     1       2.452   0.092  -0.005  0.00  0.00    +0.033 A 
ATOM     31  C   UNL     1       2.451   1.440  -0.338  0.00  0.00    +0.025 A 
ATOM     32  C   UNL     1       1.269   2.154  -0.319  0.00  0.00    +0.025 A 
ATOM     33  C   UNL     1       0.083   1.524   0.033  0.00  0.00    +0.033 A 
ATOM     34  C   UNL     1       0.085   0.176   0.365  0.00  0.00    +0.025 A 
ATOM     35  C   UNL     1       1.266  -0.538   0.347  0.00  0.00    +0.025 A 
BRANCH  33  36
ATOM     36  N   UNL     1      -1.115   2.250   0.058  0.00  0.00    -0.286 N 
ATOM     37  C   UNL     1      -1.337   3.215  -0.857  0.00  0.00    +0.214 C 
ATOM     38  O   UNL     1      -0.468   3.512  -1.648  0.00  0.00    -0.276 OA
ATOM     39  C   UNL     1      -2.666   3.924  -0.895  0.00  0.00    +0.109 C 
ATOM     40  H   UNL     1      -1.874   2.033   0.824  0.00  0.00    +0.155 HD
ENDBRANCH  33  36
ENDBRANCH  28  30
ENDBRANCH  25  26
ENDBRANCH  10  25
TORSDOF 6
