REMARK  Name = ZINC10736940
REMARK  9 active torsions:
REMARK  status: ('A' for Active; 'I' for Inactive)
REMARK    1  A    between atoms: C_1  and  N_2
REMARK    2  A    between atoms: C_4  and  C_11
REMARK    3  A    between atoms: N_13  and  N_14
REMARK    4  A    between atoms: C_15  and  C_17
REMARK    5  A    between atoms: C_17  and  C_18
REMARK    6  A    between atoms: C_18  and  C_19
REMARK    7  A    between atoms: C_19  and  C_20
REMARK    8  A    between atoms: C_20  and  C_21
REMARK    9  A    between atoms: C_21  and  N_22
REMARK                            x       y       z     vdW  Elec       q    Type
REMARK                         _______ _______ _______ _____ _____    ______ ____
ROOT
ATOM      1  N   UNL     1       9.695   7.555  -4.605  0.00  0.00    -0.234 N 
ATOM      2  C   UNL     1       8.587   6.832  -4.351  0.00  0.00    +0.229 C 
ATOM      3  O   UNL     1       7.917   6.407  -5.269  0.00  0.00    -0.274 OA
ATOM      4  H   UNL     1      10.231   7.895  -3.871  0.00  0.00    +0.173 HD
ENDROOT
BRANCH   1   7
ATOM      5  C   UNL     1      11.182   8.541  -6.181  0.00  0.00    +0.262 C 
ATOM      6  O   UNL     1      11.854   8.967  -5.261  0.00  0.00    -0.269 OA
ATOM      7  N   UNL     1      10.073   7.817  -5.928  0.00  0.00    -0.230 N 
ATOM      8  H   UNL     1       9.538   7.478  -6.662  0.00  0.00    +0.173 HD
BRANCH   5  12
ATOM      9  C   UNL     1      11.186   8.606 -11.177  0.00  0.00    +0.149 C 
ATOM     10  N   UNL     1      11.595   8.855  -9.792  0.00  0.00    -0.349 N 
ATOM     11  C   UNL     1      10.931   8.410  -8.699  0.00  0.00    +0.099 A 
ATOM     12  C   UNL     1      11.578   8.816  -7.569  0.00  0.00    +0.063 A 
ATOM     13  C   UNL     1      12.751   9.591  -8.015  0.00  0.00    +0.012 A 
ATOM     14  C   UNL     1      12.710   9.576  -9.418  0.00  0.00    +0.050 A 
ATOM     15  C   UNL     1      13.704  10.232 -10.136  0.00  0.00    +0.026 A 
ATOM     16  C   UNL     1      14.719  10.883  -9.469  0.00  0.00    +0.002 A 
ATOM     17  C   UNL     1      14.760  10.893  -8.082  0.00  0.00    +0.001 A 
ATOM     18  C   UNL     1      13.784  10.249  -7.353  0.00  0.00    +0.011 A 
ENDBRANCH   5  12
ENDBRANCH   1   7
BRANCH   2  19
ATOM     19  C   UNL     1       8.180   6.550  -2.928  0.00  0.00    +0.097 C 
BRANCH  19  20
ATOM     20  C   UNL     1       6.898   5.715  -2.920  0.00  0.00    +0.009 C 
BRANCH  20  21
ATOM     21  C   UNL     1       6.485   5.429  -1.474  0.00  0.00    +0.002 C 
BRANCH  21  22
ATOM     22  C   UNL     1       5.202   4.595  -1.466  0.00  0.00    +0.022 C 
BRANCH  22  23
ATOM     23  C   UNL     1       4.790   4.309  -0.021  0.00  0.00    +0.127 C 
BRANCH  23  24
ATOM     24  N   UNL     1       3.562   3.510  -0.013  0.00  0.00    -0.288 N 
ATOM     25  C   UNL     1       3.648   2.162  -0.022  0.00  0.00    +0.262 A 
ATOM     26  O   UNL     1       4.729   1.606  -0.035  0.00  0.00    -0.267 OA
ATOM     27  C   UNL     1       2.397   1.382  -0.014  0.00  0.00    +0.063 A 
ATOM     28  C   UNL     1       2.402  -0.011  -0.021  0.00  0.00    +0.015 A 
ATOM     29  C   UNL     1       1.204  -0.695  -0.013  0.00  0.00    +0.001 A 
ATOM     30  C   UNL     1       0.002  -0.004   0.002  0.00  0.00    +0.002 A 
ATOM     31  C   UNL     1      -0.017   1.377   0.010  0.00  0.00    +0.026 A 
ATOM     32  C   UNL     1       1.178   2.081   0.002  0.00  0.00    +0.053 A 
ATOM     33  N   UNL     1       1.203   3.468   0.010  0.00  0.00    -0.335 N 
ATOM     34  H   UNL     1       0.369   3.963   0.021  0.00  0.00    +0.168 HD
ATOM     35  C   UNL     1       2.372   4.131   0.002  0.00  0.00    +0.161 A 
ATOM     36  S   UNL     1       2.342   5.843   0.011  0.00  0.00    -0.013 S 
ENDBRANCH  23  24
ENDBRANCH  22  23
ENDBRANCH  21  22
ENDBRANCH  20  21
ENDBRANCH  19  20
ENDBRANCH   2  19
TORSDOF 8
