REMARK  Name = ZINC09354949
REMARK  10 active torsions:
REMARK  status: ('A' for Active; 'I' for Inactive)
REMARK    1  A    between atoms: C_1  and  O_2
REMARK    2  A    between atoms: O_2  and  C_3
REMARK    3  A    between atoms: C_5  and  C_12
REMARK    4  A    between atoms: C_7  and  O_10
REMARK    5  A    between atoms: C_8  and  O_9
REMARK    6  A    between atoms: O_10  and  C_11
REMARK    7  A    between atoms: C_15  and  C_31
REMARK    8  A    between atoms: C_16  and  C_18
REMARK    9  A    between atoms: C_21  and  S_24
REMARK   10  A    between atoms: S_24  and  C_25
REMARK                            x       y       z     vdW  Elec       q    Type
REMARK                         _______ _______ _______ _____ _____    ______ ____
ROOT
ATOM      1  C   UNL     1      -4.864   0.207   0.188  0.00  0.00    +0.117 A 
ATOM      2  N   UNL     1      -4.931   1.571   0.174  0.00  0.00    -0.339 N 
ATOM      3  H   UNL     1      -4.184   2.184   0.258  0.00  0.00    +0.167 HD
ATOM      4  C   UNL     1      -6.256   1.912   0.019  0.00  0.00    +0.072 A 
ATOM      5  C   UNL     1      -6.959   0.721  -0.057  0.00  0.00    +0.072 A 
ATOM      6  N   UNL     1      -6.075  -0.284   0.045  0.00  0.00    -0.339 N 
ATOM      7  H   UNL     1      -6.296  -1.228   0.018  0.00  0.00    +0.167 HD
ENDROOT
BRANCH   1  10
ATOM      8  C   UNL     1      -1.241  -0.696   0.619  0.00  0.00    +0.166 A 
ATOM      9  C   UNL     1      -2.397   0.052   0.481  0.00  0.00    +0.061 A 
ATOM     10  C   UNL     1      -3.628  -0.589   0.335  0.00  0.00    +0.023 A 
ATOM     11  C   UNL     1      -3.690  -1.984   0.328  0.00  0.00    +0.061 A 
ATOM     12  C   UNL     1      -2.532  -2.727   0.466  0.00  0.00    +0.166 A 
ATOM     13  C   UNL     1      -1.305  -2.086   0.606  0.00  0.00    +0.201 A 
BRANCH   8  15
ATOM     14  C   UNL     1      -0.049   1.357   0.766  0.00  0.00    +0.277 C 
ATOM     15  O   UNL     1      -0.041  -0.072   0.761  0.00  0.00    -0.491 OA
ENDBRANCH   8  15
BRANCH  13  16
ATOM     16  O   UNL     1      -0.167  -2.819   0.736  0.00  0.00    -0.501 OA
ATOM     17  H   UNL     1       0.060  -3.034   1.651  0.00  0.00    +0.292 HD
ENDBRANCH  13  16
BRANCH  12  18
ATOM     18  O   UNL     1      -2.591  -4.086   0.459  0.00  0.00    -0.491 OA
ATOM     19  C   UNL     1      -3.883  -4.678   0.306  0.00  0.00    +0.277 C 
ENDBRANCH  12  18
ENDBRANCH   1  10
BRANCH   5  20
ATOM     20  C   UNL     1      -8.424   0.582  -0.225  0.00  0.00    +0.000 A 
ATOM     21  C   UNL     1      -9.141  -0.295   0.591  0.00  0.00    +0.011 A 
ATOM     22  C   UNL     1     -10.504  -0.422   0.432  0.00  0.00    +0.016 A 
ATOM     23  C   UNL     1     -11.165   0.322  -0.539  0.00  0.00    +0.013 A 
ATOM     24  C   UNL     1     -10.453   1.196  -1.353  0.00  0.00    +0.016 A 
ATOM     25  C   UNL     1      -9.091   1.331  -1.195  0.00  0.00    +0.011 A 
BRANCH  23  26
ATOM     26  S   UNL     1     -12.908   0.156  -0.739  0.00  0.00    -0.089 S 
BRANCH  26  27
ATOM     27  C   UNL     1     -13.084  -1.234  -1.807  0.00  0.00    +0.013 A 
ATOM     28  C   UNL     1     -11.959  -1.839  -2.354  0.00  0.00    +0.015 A 
ATOM     29  C   UNL     1     -12.101  -2.929  -3.191  0.00  0.00    +0.001 A 
ATOM     30  C   UNL     1     -13.361  -3.417  -3.486  0.00  0.00    +0.000 A 
ATOM     31  C   UNL     1     -14.483  -2.818  -2.943  0.00  0.00    +0.001 A 
ATOM     32  C   UNL     1     -14.348  -1.732  -2.100  0.00  0.00    +0.015 A 
ENDBRANCH  26  27
ENDBRANCH  23  26
ENDBRANCH   5  20
BRANCH   4  33
ATOM     33  C   UNL     1      -6.816   3.275  -0.051  0.00  0.00    +0.000 A 
ATOM     34  C   UNL     1      -7.934   3.615   0.715  0.00  0.00    +0.010 A 
ATOM     35  C   UNL     1      -8.451   4.892   0.644  0.00  0.00    +0.001 A 
ATOM     36  C   UNL     1      -7.866   5.835  -0.183  0.00  0.00    +0.000 A 
ATOM     37  C   UNL     1      -6.759   5.505  -0.945  0.00  0.00    +0.001 A 
ATOM     38  C   UNL     1      -6.227   4.234  -0.879  0.00  0.00    +0.010 A 
ENDBRANCH   4  33
TORSDOF 8
