REMARK  Name = ZINC08014571
REMARK  6 active torsions:
REMARK  status: ('A' for Active; 'I' for Inactive)
REMARK    1  A    between atoms: C_1  and  C_2
REMARK    2  A    between atoms: C_2  and  C_3
REMARK    3  A    between atoms: C_11  and  C_12
REMARK    4  A    between atoms: C_12  and  C_13
REMARK    5  A    between atoms: N_15  and  C_16
REMARK    6  A    between atoms: C_25  and  C_28
REMARK                            x       y       z     vdW  Elec       q    Type
REMARK                         _______ _______ _______ _____ _____    ______ ____
ROOT
ATOM      1  C   UNL     1      -1.187  -2.064  -0.099  0.00  0.00    +0.222 C 
ATOM      2  O   UNL     1      -0.131  -2.660  -0.113  0.00  0.00    -0.275 OA
ATOM      3  N   UNL     1      -1.202  -0.721   0.010  0.00  0.00    -0.285 N 
ATOM      4  H   UNL     1      -2.046  -0.250   0.098  0.00  0.00    +0.155 HD
ENDROOT
BRANCH   3   5
ATOM      5  C   UNL     1       0.002  -0.004  -0.004  0.00  0.00    +0.035 A 
ATOM      6  C   UNL     1       0.126   1.158   0.747  0.00  0.00    +0.027 A 
ATOM      7  C   UNL     1       1.312   1.869   0.736  0.00  0.00    +0.049 A 
ATOM      8  C   UNL     1       2.379   1.423  -0.023  0.00  0.00    +0.143 A 
ATOM      9  C   UNL     1       2.257   0.257  -0.778  0.00  0.00    +0.077 A 
ATOM     10  C   UNL     1       1.070  -0.455  -0.768  0.00  0.00    +0.050 A 
ATOM     11  N   UNL     1       3.347  -0.181  -1.544  0.00  0.00    -0.279 N 
ATOM     12  C   UNL     1       4.571   0.336  -1.297  0.00  0.00    +0.258 C 
ATOM     13  O   UNL     1       5.522  -0.007  -1.966  0.00  0.00    -0.271 OA
ATOM     14  C   UNL     1       4.748   1.339  -0.186  0.00  0.00    +0.256 C 
ATOM     15  O   UNL     1       3.553   2.111  -0.041  0.00  0.00    -0.478 OA
ATOM     16  C   UNL     1       5.916   2.268  -0.521  0.00  0.00    +0.062 C 
ATOM     17  H   UNL     1       3.225  -0.846  -2.240  0.00  0.00    +0.155 HD
ENDBRANCH   3   5
BRANCH   1  18
ATOM     18  C   UNL     1      -2.484  -2.825  -0.204  0.00  0.00    +0.135 C 
BRANCH  18  27
ATOM     19  C   UNL     1      -1.454  -7.456   2.353  0.00  0.00    -0.044 A 
ATOM     20  C   UNL     1      -1.678  -6.222   2.947  0.00  0.00    +0.004 A 
ATOM     21  C   UNL     1      -1.929  -5.120   2.179  0.00  0.00    +0.012 A 
ATOM     22  C   UNL     1      -1.955  -5.237   0.790  0.00  0.00    +0.024 A 
ATOM     23  C   UNL     1      -1.734  -6.484   0.183  0.00  0.00    +0.135 A 
ATOM     24  C   UNL     1      -1.480  -7.592   0.982  0.00  0.00    +0.050 A 
ATOM     25  O   UNL     1      -1.824  -6.303  -1.150  0.00  0.00    -0.463 OA
ATOM     26  C   UNL     1      -2.093  -5.018  -1.442  0.00  0.00    +0.200 A 
ATOM     27  C   UNL     1      -2.193  -4.300  -0.315  0.00  0.00    +0.007 A 
BRANCH  19  29
ATOM     28  C   UNL     1       0.329  -8.783   3.453  0.00  0.00    +0.009 C 
ATOM     29  C   UNL     1      -1.177  -8.660   3.217  0.00  0.00    +0.032 C 
ENDBRANCH  19  29
ENDBRANCH  18  27
ENDBRANCH   1  18
TORSDOF 4
