REMARK  Name = ZINC31823080
REMARK  10 active torsions:
REMARK  status: ('A' for Active; 'I' for Inactive)
REMARK    1  A    between atoms: C_1  and  C_2
REMARK    2  A    between atoms: C_4  and  N_9
REMARK    3  A    between atoms: N_9  and  C_10
REMARK    4  A    between atoms: C_10  and  C_11
REMARK    5  A    between atoms: C_11  and  C_12
REMARK    6  A    between atoms: C_14  and  C_16
REMARK    7  A    between atoms: C_16  and  S_17
REMARK    8  A    between atoms: S_17  and  C_18
REMARK    9  A    between atoms: C_22  and  C_28
REMARK   10  A    between atoms: C_23  and  C_27
REMARK                            x       y       z     vdW  Elec       q    Type
REMARK                         _______ _______ _______ _____ _____    ______ ____
ROOT
ATOM      1  C   UNL     1      -0.281  -2.927  -5.040  0.00  0.00    +0.173 C 
ENDROOT
BRANCH   1   3
ATOM      2  N   UNL     1       1.081  -3.005  -2.976  0.00  0.00    -0.270 N 
ATOM      3  C   UNL     1       0.582  -2.273  -3.992  0.00  0.00    +0.230 C 
ATOM      4  O   UNL     1       0.828  -1.087  -4.062  0.00  0.00    -0.274 OA
BRANCH   2   8
ATOM      5  C   UNL     1       5.251  -2.417  -0.439  0.00  0.00    +0.045 C 
ATOM      6  C   UNL     1       3.805  -2.074  -0.688  0.00  0.00    -0.030 A 
ATOM      7  C   UNL     1       3.115  -2.694  -1.711  0.00  0.00    +0.028 A 
ATOM      8  C   UNL     1       1.782  -2.378  -1.940  0.00  0.00    +0.037 A 
ATOM      9  C   UNL     1       1.147  -1.438  -1.139  0.00  0.00    +0.025 A 
ATOM     10  C   UNL     1       1.841  -0.820  -0.117  0.00  0.00    +0.022 A 
ATOM     11  C   UNL     1       3.168  -1.142   0.112  0.00  0.00    +0.044 A 
ATOM     12 CL   UNL     1       4.036  -0.369   1.402  0.00  0.00    -0.083 Cl
ENDBRANCH   2   8
BRANCH   2  13
ATOM     13  C   UNL     1       0.889  -4.457  -2.957  0.00  0.00    +0.128 C 
BRANCH  13  14
ATOM     14  C   UNL     1      -0.410  -4.790  -2.220  0.00  0.00    +0.138 C 
BRANCH  14  15
ATOM     15  C   UNL     1      -0.604  -6.249  -2.201  0.00  0.00    +0.064 C 
ATOM     16  N   UNL     1      -0.753  -7.375  -2.186  0.00  0.00    -0.197 NA
ENDBRANCH  14  15
ENDBRANCH  13  14
ENDBRANCH   2  13
ENDBRANCH   1   3
BRANCH   1  17
ATOM     17  S   UNL     1      -0.792  -1.688  -6.262  0.00  0.00    -0.077 S 
BRANCH  17  18
ATOM     18  C   UNL     1      -1.780  -2.597  -7.403  0.00  0.00    +0.191 A 
ATOM     19  N   UNL     1      -1.976  -3.896  -7.205  0.00  0.00    -0.207 NA
ATOM     20  C   UNL     1      -2.707  -4.629  -8.027  0.00  0.00    +0.129 A 
ATOM     21  C   UNL     1      -3.308  -4.015  -9.161  0.00  0.00    +0.050 A 
ATOM     22  C   UNL     1      -4.144  -4.598 -10.197  0.00  0.00    -0.028 A 
ATOM     23  C   UNL     1      -4.605  -3.816 -11.184  0.00  0.00    -0.008 A 
ATOM     24  S   UNL     1      -3.937  -2.211 -10.789  0.00  0.00    -0.073 S 
ATOM     25  C   UNL     1      -3.058  -2.634  -9.308  0.00  0.00    +0.115 A 
ATOM     26  N   UNL     1      -2.319  -1.970  -8.440  0.00  0.00    -0.214 NA
ATOM     27  C   UNL     1      -5.478  -4.202 -12.350  0.00  0.00    +0.052 C 
ATOM     28  C   UNL     1      -4.490  -6.064 -10.162  0.00  0.00    +0.045 C 
ATOM     29  N   UNL     1      -2.887  -5.979  -7.786  0.00  0.00    -0.343 N 
ATOM     30  H   UNL     1      -2.562  -6.372  -6.960  0.00  0.00    +0.144 HD
ATOM     31  H   UNL     1      -3.337  -6.533  -8.443  0.00  0.00    +0.144 HD
ENDBRANCH  17  18
ENDBRANCH   1  17
TORSDOF 7
