REMARK  Name = ZINC11617482
REMARK  6 active torsions:
REMARK  status: ('A' for Active; 'I' for Inactive)
REMARK    1  A    between atoms: C_1  and  O_2
REMARK    2  A    between atoms: O_2  and  C_3
REMARK    3  A    between atoms: C_6  and  C_11
REMARK    4  A    between atoms: C_8  and  O_9
REMARK    5  A    between atoms: O_9  and  C_10
REMARK    6  A    between atoms: C_16  and  C_27
REMARK                            x       y       z     vdW  Elec       q    Type
REMARK                         _______ _______ _______ _____ _____    ______ ____
ROOT
ATOM      1  C   UNL     1       2.591  -3.687  -4.530  0.00  0.00    +0.108 C 
ATOM      2  C   UNL     1       4.057  -3.223  -4.346  0.00  0.00    +0.077 C 
ATOM      3  C   UNL     1       4.468  -2.888  -5.769  0.00  0.00    +0.033 C 
ATOM      4  C   UNL     1       5.775  -2.695  -6.221  0.00  0.00    +0.063 C 
ATOM      5  C   UNL     1       6.860  -2.672  -5.313  0.00  0.00    +0.005 C 
ATOM      6  C   UNL     1       8.159  -2.473  -5.836  0.00  0.00    +0.006 A 
ATOM      7  C   UNL     1       9.274  -2.441  -4.981  0.00  0.00    +0.030 A 
ATOM      8  C   UNL     1      10.519  -2.249  -5.500  0.00  0.00    +0.042 A 
ATOM      9  C   UNL     1      10.702  -2.083  -6.872  0.00  0.00    +0.022 A 
ATOM     10  C   UNL     1       9.643  -2.109  -7.728  0.00  0.00    +0.025 A 
ATOM     11  C   UNL     1       8.342  -2.305  -7.231  0.00  0.00    +0.042 A 
ATOM     12  N   UNL     1       7.302  -2.331  -8.073  0.00  0.00    -0.281 N 
ATOM     13  C   UNL     1       6.059  -2.518  -7.655  0.00  0.00    +0.250 C 
ATOM     14  O   UNL     1       5.142  -2.539  -8.464  0.00  0.00    -0.270 OA
ATOM     15 CL   UNL     1      11.894  -2.210  -4.441  0.00  0.00    -0.084 Cl
ATOM     16  N   UNL     1       3.358  -2.809  -6.513  0.00  0.00    -0.283 N 
ATOM     17  N   UNL     1       2.217  -3.012  -5.795  0.00  0.00    -0.235 NA
ATOM     18  H   UNL     1       3.365  -2.628  -7.466  0.00  0.00    +0.166 HD
ATOM     19  H   UNL     1       1.554  -3.565  -6.317  0.00  0.00    +0.145 HD
ATOM     20  H   UNL     1       7.465  -2.212  -9.023  0.00  0.00    +0.155 HD
ENDROOT
BRANCH   1  24
ATOM     21  C   UNL     1       0.142  -2.334  -1.296  0.00  0.00    +0.162 A 
ATOM     22  C   UNL     1       0.521  -1.454  -2.298  0.00  0.00    +0.050 A 
ATOM     23  C   UNL     1       1.313  -1.894  -3.342  0.00  0.00    +0.009 A 
ATOM     24  C   UNL     1       1.728  -3.212  -3.390  0.00  0.00    -0.025 A 
ATOM     25  C   UNL     1       1.354  -4.095  -2.394  0.00  0.00    +0.054 A 
ATOM     26  C   UNL     1       0.565  -3.658  -1.342  0.00  0.00    +0.162 A 
BRANCH  21  28
ATOM     27  C   UNL     1      -1.034  -0.529  -0.287  0.00  0.00    +0.277 C 
ATOM     28  O   UNL     1      -0.637  -1.902  -0.269  0.00  0.00    -0.491 OA
ENDBRANCH  21  28
BRANCH  26  29
ATOM     29  O   UNL     1       0.201  -4.524  -0.359  0.00  0.00    -0.491 OA
ATOM     30  C   UNL     1       0.672  -5.869  -0.471  0.00  0.00    +0.277 C 
ENDBRANCH  26  29
ENDBRANCH   1  24
BRANCH   5  31
ATOM     31  C   UNL     1       6.643  -2.849  -3.864  0.00  0.00    -0.016 A 
ATOM     32  C   UNL     1       6.956  -4.065  -3.251  0.00  0.00    +0.008 A 
ATOM     33  C   UNL     1       6.750  -4.223  -1.896  0.00  0.00    +0.001 A 
ATOM     34  C   UNL     1       6.235  -3.181  -1.145  0.00  0.00    +0.000 A 
ATOM     35  C   UNL     1       5.922  -1.974  -1.746  0.00  0.00    +0.001 A 
ATOM     36  C   UNL     1       6.129  -1.799  -3.098  0.00  0.00    +0.008 A 
ENDBRANCH   5  31
TORSDOF 4
