REMARK  Name = ZINC59188496
REMARK  13 active torsions:
REMARK  status: ('A' for Active; 'I' for Inactive)
REMARK    1  A    between atoms: C_1  and  C_2
REMARK    2  A    between atoms: C_5  and  S_22
REMARK    3  A    between atoms: C_6  and  S_8
REMARK    4  A    between atoms: S_8  and  C_11
REMARK    5  A    between atoms: C_11  and  C_12
REMARK    6  A    between atoms: C_12  and  C_14
REMARK    7  A    between atoms: C_12  and  N_15
REMARK    8  A    between atoms: C_18  and  C_21
REMARK    9  A    between atoms: S_22  and  C_25
REMARK   10  A    between atoms: C_25  and  C_26
REMARK   11  A    between atoms: C_26  and  C_28
REMARK   12  A    between atoms: C_26  and  N_29
REMARK   13  A    between atoms: C_32  and  C_35
REMARK                            x       y       z     vdW  Elec       q    Type
REMARK                         _______ _______ _______ _____ _____    ______ ____
ROOT
ATOM      1  C   UNL     1      -0.664   1.312  -0.338  0.00  0.00    +0.044 C 
ATOM      2  C   UNL     1      -0.406  -0.172  -0.313  0.00  0.00    -0.049 A 
ATOM      3  C   UNL     1      -0.227  -0.863  -1.497  0.00  0.00    +0.005 A 
ATOM      4  C   UNL     1       0.010  -2.224  -1.474  0.00  0.00    +0.029 A 
ATOM      5  C   UNL     1       0.070  -2.895  -0.267  0.00  0.00    +0.113 A 
ATOM      6  C   UNL     1      -0.108  -2.205   0.917  0.00  0.00    +0.113 A 
ATOM      7  C   UNL     1      -0.341  -0.842   0.895  0.00  0.00    +0.032 A 
ENDROOT
BRANCH   6   8
ATOM      8  S   UNL     1      -0.032  -3.060   2.456  0.00  0.00    -0.003 S 
ATOM      9  O   UNL     1       1.127  -3.876   2.361  0.00  0.00    -0.169 OA
ATOM     10  O   UNL     1      -0.122  -2.041   3.442  0.00  0.00    -0.169 OA
BRANCH   8  11
ATOM     11  C   UNL     1      -1.523  -4.093   2.489  0.00  0.00    +0.156 C 
BRANCH  11  12
ATOM     12  C   UNL     1      -1.618  -4.809   3.837  0.00  0.00    -0.050 C 
ATOM     13  C   UNL     1      -0.380  -5.684   4.039  0.00  0.00    -0.012 C 
BRANCH  12  14
ATOM     14  N   UNL     1      -2.822  -5.651   3.861  0.00  0.00    +0.382 N 
ATOM     15  C   UNL     1      -2.967  -6.256   5.191  0.00  0.00    -0.078 C 
ATOM     16  C   UNL     1      -4.174  -7.197   5.197  0.00  0.00    -0.016 C 
ATOM     17  C   UNL     1      -5.437  -6.402   4.856  0.00  0.00    -0.018 C 
ATOM     18  C   UNL     1      -5.245  -5.714   3.502  0.00  0.00    -0.016 C 
ATOM     19  C   UNL     1      -3.999  -4.827   3.558  0.00  0.00    -0.078 C 
ATOM     20  C   UNL     1      -6.635  -7.350   4.783  0.00  0.00    +0.007 C 
ATOM     21  H   UNL     1      -2.735  -6.380   3.170  0.00  0.00    -0.081 HD
ENDBRANCH  12  14
ENDBRANCH  11  12
ENDBRANCH   8  11
ENDBRANCH   6   8
BRANCH   5  22
ATOM     22  S   UNL     1       0.371  -4.631  -0.237  0.00  0.00    -0.003 S 
ATOM     23  O   UNL     1       0.073  -5.029   1.094  0.00  0.00    -0.169 OA
ATOM     24  O   UNL     1      -0.375  -5.147  -1.331  0.00  0.00    -0.169 OA
BRANCH  22  25
ATOM     25  C   UNL     1       2.148  -4.801  -0.557  0.00  0.00    +0.156 C 
BRANCH  25  26
ATOM     26  C   UNL     1       2.501  -6.283  -0.702  0.00  0.00    -0.050 C 
ATOM     27  C   UNL     1       1.656  -6.902  -1.816  0.00  0.00    -0.012 C 
BRANCH  26  28
ATOM     28  N   UNL     1       2.227  -6.977   0.564  0.00  0.00    +0.382 N 
ATOM     29  C   UNL     1       2.611  -8.388   0.439  0.00  0.00    -0.078 C 
ATOM     30  C   UNL     1       2.253  -9.134   1.726  0.00  0.00    -0.016 C 
ATOM     31  C   UNL     1       3.004  -8.502   2.901  0.00  0.00    -0.018 C 
ATOM     32  C   UNL     1       2.654  -7.013   2.977  0.00  0.00    -0.016 C 
ATOM     33  C   UNL     1       2.997  -6.346   1.643  0.00  0.00    -0.078 C 
ATOM     34  C   UNL     1       2.590  -9.191   4.203  0.00  0.00    +0.007 C 
ATOM     35  H   UNL     1       1.242  -6.915   0.774  0.00  0.00    -0.081 HD
ENDBRANCH  26  28
ENDBRANCH  25  26
ENDBRANCH  22  25
ENDBRANCH   5  22
TORSDOF 8
