REMARK  Name = ZINC04155414
REMARK  6 active torsions:
REMARK  status: ('A' for Active; 'I' for Inactive)
REMARK    1  A    between atoms: C_1  and  C_2
REMARK    2  A    between atoms: C_2  and  C_4
REMARK    3  A    between atoms: C_2  and  O_19
REMARK    4  A    between atoms: N_6  and  N_7
REMARK    5  A    between atoms: C_8  and  C_9
REMARK    6  A    between atoms: O_19  and  C_20
REMARK                            x       y       z     vdW  Elec       q    Type
REMARK                         _______ _______ _______ _____ _____    ______ ____
ROOT
ATOM      1  C   UNL     1       1.280   7.808  -0.133  0.00  0.00    +0.273 C 
ATOM      2  O   UNL     1       0.106   8.039   0.071  0.00  0.00    -0.270 OA
ATOM      3  N   UNL     1       1.694   6.539  -0.318  0.00  0.00    -0.204 N 
ATOM      4  H   UNL     1       2.633   6.354  -0.481  0.00  0.00    +0.177 HD
ENDROOT
BRANCH   1   6
ATOM      5  C   UNL     1       3.259   8.803   0.982  0.00  0.00    +0.062 C 
ATOM      6  C   UNL     1       2.274   8.940  -0.180  0.00  0.00    +0.257 C 
BRANCH   6   7
ATOM      7  O   UNL     1       1.582  10.186  -0.074  0.00  0.00    -0.478 OA
BRANCH   7   8
ATOM      8  C   UNL     1       2.194  11.279  -0.603  0.00  0.00    +0.140 A 
ATOM      9  C   UNL     1       3.481  11.177  -1.109  0.00  0.00    +0.048 A 
ATOM     10  C   UNL     1       4.100  12.287  -1.650  0.00  0.00    +0.023 A 
ATOM     11  C   UNL     1       3.440  13.503  -1.678  0.00  0.00    +0.043 A 
ATOM     12  C   UNL     1       2.158  13.609  -1.170  0.00  0.00    +0.043 A 
ATOM     13  C   UNL     1       1.533  12.499  -0.632  0.00  0.00    +0.084 A 
ATOM     14 CL   UNL     1      -0.076  12.632   0.006  0.00  0.00    -0.080 Cl
ATOM     15 CL   UNL     1       4.223  14.898  -2.353  0.00  0.00    -0.083 Cl
ENDBRANCH   7   8
ENDBRANCH   6   7
ENDBRANCH   1   6
BRANCH   3  16
ATOM     16  N   UNL     1       0.771   5.487  -0.275  0.00  0.00    -0.188 NA
ATOM     17  C   UNL     1       1.170   4.264  -0.453  0.00  0.00    +0.140 C 
BRANCH  17  18
ATOM     18  C   UNL     1       0.200   3.158  -0.407  0.00  0.00    +0.020 A 
ATOM     19  C   UNL     1       0.466   1.835  -0.573  0.00  0.00    +0.093 A 
ATOM     20  N   UNL     1      -0.687   1.116  -0.462  0.00  0.00    -0.360 N 
ATOM     21  H   UNL     1      -0.749   0.152  -0.544  0.00  0.00    +0.165 HD
ATOM     22  C   UNL     1      -1.752   1.958  -0.224  0.00  0.00    +0.047 A 
ATOM     23  C   UNL     1      -1.251   3.269  -0.171  0.00  0.00    +0.008 A 
ATOM     24  C   UNL     1      -2.113   4.337   0.063  0.00  0.00    +0.010 A 
ATOM     25  C   UNL     1      -3.458   4.100   0.249  0.00  0.00    +0.001 A 
ATOM     26  C   UNL     1      -3.954   2.805   0.204  0.00  0.00    +0.002 A 
ATOM     27  C   UNL     1      -3.112   1.739  -0.028  0.00  0.00    +0.026 A 
ENDBRANCH  17  18
ENDBRANCH   3  16
TORSDOF 5
