REMARK  Name = ZINC08722329
REMARK  6 active torsions:
REMARK  status: ('A' for Active; 'I' for Inactive)
REMARK    1  A    between atoms: C_1  and  C_2
REMARK    2  A    between atoms: C_14  and  C_17
REMARK    3  A    between atoms: C_20  and  O_23
REMARK    4  A    between atoms: O_23  and  C_24
REMARK    5  A    between atoms: C_24  and  C_26
REMARK    6  A    between atoms: C_27  and  C_28
REMARK                            x       y       z     vdW  Elec       q    Type
REMARK                         _______ _______ _______ _____ _____    ______ ____
ROOT
ATOM      1  C   UNL     1      -6.380   5.585  -0.354  0.00  0.00    +0.008 C 
ATOM      2  C   UNL     1      -5.051   4.922  -0.722  0.00  0.00    -0.009 C 
ATOM      3  C   UNL     1      -3.898   5.883  -0.421  0.00  0.00    +0.008 C 
ATOM      4  C   UNL     1      -2.597   5.333  -1.009  0.00  0.00    +0.037 C 
ATOM      5  C   UNL     1      -2.405   3.901  -0.524  0.00  0.00    -0.023 A 
ATOM      6  C   UNL     1      -3.445   3.191  -0.032  0.00  0.00    -0.004 A 
ATOM      7  S   UNL     1      -2.760   1.612   0.395  0.00  0.00    -0.078 S 
ATOM      8  C   UNL     1      -1.137   1.888  -0.080  0.00  0.00    +0.080 A 
ATOM      9  C   UNL     1      -1.127   3.207  -0.552  0.00  0.00    +0.068 A 
ATOM     10  C   UNL     1       0.162   3.749  -1.040  0.00  0.00    +0.248 C 
ATOM     11  O   UNL     1       0.227   4.838  -1.581  0.00  0.00    -0.270 OA
ATOM     12  N   UNL     1       1.260   2.987  -0.860  0.00  0.00    -0.289 N 
ATOM     13  C   UNL     1       1.283   1.792  -0.022  0.00  0.00    +0.190 C 
ATOM     14  N   UNL     1      -0.017   1.097  -0.046  0.00  0.00    -0.316 N 
ATOM     15  C   UNL     1      -4.863   3.648   0.115  0.00  0.00    +0.046 C 
ATOM     16  H   UNL     1       2.078   3.246  -1.312  0.00  0.00    +0.151 HD
ATOM     17  H   UNL     1      -0.077   0.129  -0.041  0.00  0.00    +0.149 HD
ENDROOT
BRANCH  13  18
ATOM     18  C   UNL     1       1.604   2.190   1.396  0.00  0.00    -0.009 A 
ATOM     19  C   UNL     1       1.133   1.429   2.450  0.00  0.00    +0.010 A 
ATOM     20  C   UNL     1       1.430   1.789   3.750  0.00  0.00    +0.047 A 
ATOM     21  C   UNL     1       2.193   2.921   3.998  0.00  0.00    +0.132 A 
ATOM     22  C   UNL     1       2.660   3.686   2.939  0.00  0.00    +0.047 A 
ATOM     23  C   UNL     1       2.365   3.319   1.640  0.00  0.00    +0.010 A 
BRANCH  21  24
ATOM     24  O   UNL     1       2.482   3.280   5.277  0.00  0.00    -0.423 OA
BRANCH  24  25
ATOM     25  C   UNL     1       1.904   4.397   5.767  0.00  0.00    +0.337 C 
ATOM     26  O   UNL     1       1.071   4.991   5.108  0.00  0.00    -0.245 OA
BRANCH  25  27
ATOM     27  C   UNL     1       2.267   4.877   7.046  0.00  0.00    +0.095 C 
ATOM     28  C   UNL     1       1.686   6.001   7.539  0.00  0.00    +0.053 C 
BRANCH  28  29
ATOM     29  C   UNL     1       2.050   6.481   8.820  0.00  0.00    +0.128 A 
ATOM     30  C   UNL     1       1.542   7.604   9.441  0.00  0.00    +0.049 A 
ATOM     31  C   UNL     1       2.184   7.696  10.685  0.00  0.00    +0.042 A 
ATOM     32  C   UNL     1       3.037   6.651  10.773  0.00  0.00    +0.195 A 
ATOM     33  O   UNL     1       2.950   5.920   9.654  0.00  0.00    -0.464 OA
ENDBRANCH  28  29
ENDBRANCH  25  27
ENDBRANCH  24  25
ENDBRANCH  21  24
ENDBRANCH  13  18
TORSDOF 5
