REMARK  Name = ZINC04532102
REMARK  6 active torsions:
REMARK  status: ('A' for Active; 'I' for Inactive)
REMARK    1  A    between atoms: C_1  and  C_2
REMARK    2  A    between atoms: C_2  and  C_5
REMARK    3  A    between atoms: N_3  and  O_4
REMARK    4  A    between atoms: C_11  and  C_29
REMARK    5  A    between atoms: C_21  and  C_28
REMARK    6  A    between atoms: C_24  and  O_27
REMARK                            x       y       z     vdW  Elec       q    Type
REMARK                         _______ _______ _______ _____ _____    ______ ____
ROOT
ATOM      1  C   UNL     1       0.545  -0.932  -0.962  0.00  0.00    +0.043 C 
ATOM      2  C   UNL     1      -0.493  -0.533  -2.045  0.00  0.00    +0.010 C 
ATOM      3  C   UNL     1      -1.519  -1.700  -2.123  0.00  0.00    +0.005 C 
ATOM      4  C   UNL     1      -1.293  -2.425  -0.783  0.00  0.00    -0.001 C 
ATOM      5  C   UNL     1       0.248  -2.422  -0.699  0.00  0.00    -0.021 C 
ATOM      6  C   UNL     1       0.705  -2.984   0.616  0.00  0.00    +0.008 C 
ATOM      7  C   UNL     1      -0.000  -4.305   0.951  0.00  0.00    +0.005 C 
ATOM      8  C   UNL     1      -0.877  -4.831  -0.171  0.00  0.00    +0.003 C 
ATOM      9  C   UNL     1      -1.891  -3.791  -0.649  0.00  0.00    +0.000 C 
ATOM     10  C   UNL     1      -2.489  -4.303  -1.965  0.00  0.00    +0.031 C 
ATOM     11  C   UNL     1      -3.104  -5.650  -1.693  0.00  0.00    -0.027 C 
ATOM     12  C   UNL     1      -2.742  -6.416  -0.712  0.00  0.00    -0.065 C 
ATOM     13  C   UNL     1      -1.631  -6.090   0.255  0.00  0.00    -0.008 C 
ATOM     14  C   UNL     1      -2.224  -5.969   1.652  0.00  0.00    +0.014 C 
ATOM     15  C   UNL     1      -3.667  -6.473   1.662  0.00  0.00    +0.032 C 
ATOM     16  C   UNL     1      -3.811  -7.834   0.991  0.00  0.00    +0.119 C 
ATOM     17  C   UNL     1      -3.455  -7.740  -0.497  0.00  0.00    +0.062 C 
ATOM     18  C   UNL     1      -0.626  -7.247   0.245  0.00  0.00    +0.016 C 
ATOM     19  C   UNL     1       0.897  -3.183  -1.864  0.00  0.00    +0.012 C 
ENDROOT
BRANCH   1  21
ATOM     20  C   UNL     1      -0.760   0.911   0.332  0.00  0.00    +0.064 C 
ATOM     21  C   UNL     1       0.364  -0.090   0.265  0.00  0.00    +0.058 C 
ATOM     22  N   UNL     1       1.165  -0.220   1.254  0.00  0.00    -0.097 NA
BRANCH  22  23
ATOM     23  O   UNL     1       2.320  -1.029   1.128  0.00  0.00    -0.409 OA
ATOM     24  H   UNL     1       2.902  -1.007   1.900  0.00  0.00    +0.328 HD
ENDBRANCH  22  23
ENDBRANCH   1  21
BRANCH  16  25
ATOM     25  O   UNL     1      -2.965  -8.789   1.636  0.00  0.00    -0.391 OA
ATOM     26  H   UNL     1      -3.012  -9.676   1.254  0.00  0.00    +0.210 HD
ENDBRANCH  16  25
TORSDOF 3
