REMARK  Name = ZINC02970994
REMARK  11 active torsions:
REMARK  status: ('A' for Active; 'I' for Inactive)
REMARK    1  A    between atoms: C_1  and  C_2
REMARK    2  A    between atoms: C_2  and  C_3
REMARK    3  A    between atoms: C_6  and  N_9
REMARK    4  A    between atoms: C_10  and  C_12
REMARK    5  A    between atoms: C_12  and  S_13
REMARK    6  A    between atoms: S_13  and  C_14
REMARK    7  A    between atoms: N_24  and  C_25
REMARK    8  A    between atoms: C_25  and  C_26
REMARK    9  A    between atoms: C_26  and  C_27
REMARK   10  A    between atoms: C_30  and  S_33
REMARK   11  A    between atoms: S_33  and  N_36
REMARK                            x       y       z     vdW  Elec       q    Type
REMARK                         _______ _______ _______ _____ _____    ______ ____
ROOT
ATOM      1  C   UNL     1      -1.118  -2.036   0.016  0.00  0.00    +0.173 A 
ATOM      2  N   UNL     1      -1.136  -0.726   0.031  0.00  0.00    -0.223 NA
ATOM      3  C   UNL     1       0.002  -0.004   0.033  0.00  0.00    +0.079 A 
ATOM      4  C   UNL     1      -0.017   1.394   0.049  0.00  0.00    +0.028 A 
ATOM      5  C   UNL     1       1.161   2.087   0.051  0.00  0.00    +0.002 A 
ATOM      6  C   UNL     1       2.381   1.422   0.036  0.00  0.00    +0.001 A 
ATOM      7  C   UNL     1       2.432   0.056   0.019  0.00  0.00    +0.015 A 
ATOM      8  C   UNL     1       1.245  -0.676   0.018  0.00  0.00    +0.065 A 
ATOM      9  C   UNL     1       1.239  -2.145   0.001  0.00  0.00    +0.262 A 
ATOM     10  O   UNL     1       2.277  -2.781  -0.013  0.00  0.00    -0.267 OA
ATOM     11  N   UNL     1       0.036  -2.765   0.001  0.00  0.00    -0.287 N 
ENDROOT
BRANCH   1  12
ATOM     12  S   UNL     1      -2.656  -2.897   0.016  0.00  0.00    -0.078 S 
BRANCH  12  13
ATOM     13  C   UNL     1      -3.801  -1.495   0.039  0.00  0.00    +0.173 C 
BRANCH  13  15
ATOM     14  N   UNL     1      -6.248  -1.135   0.058  0.00  0.00    -0.285 N 
ATOM     15  C   UNL     1      -5.219  -2.005   0.042  0.00  0.00    +0.227 C 
ATOM     16  O   UNL     1      -5.434  -3.199   0.030  0.00  0.00    -0.275 OA
ATOM     17  H   UNL     1      -6.077  -0.183   0.135  0.00  0.00    +0.155 HD
BRANCH  14  21
ATOM     18  C   UNL     1     -10.162  -2.533  -0.224  0.00  0.00    -0.048 A 
ATOM     19  C   UNL     1      -9.213  -3.272   0.457  0.00  0.00    +0.005 A 
ATOM     20  C   UNL     1      -7.915  -2.812   0.552  0.00  0.00    +0.023 A 
ATOM     21  C   UNL     1      -7.563  -1.605  -0.037  0.00  0.00    +0.033 A 
ATOM     22  C   UNL     1      -8.520  -0.861  -0.715  0.00  0.00    +0.023 A 
ATOM     23  C   UNL     1      -9.815  -1.330  -0.812  0.00  0.00    +0.005 A 
BRANCH  18  25
ATOM     24  C   UNL     1     -12.393  -2.516   0.859  0.00  0.00    +0.009 C 
ATOM     25  C   UNL     1     -11.578  -3.038  -0.326  0.00  0.00    +0.032 C 
ENDBRANCH  18  25
ENDBRANCH  14  21
ENDBRANCH  13  15
ENDBRANCH  12  13
ENDBRANCH   1  12
BRANCH  11  26
ATOM     26  C   UNL     1      -0.028  -4.229  -0.015  0.00  0.00    +0.132 C 
BRANCH  26  27
ATOM     27  C   UNL     1      -0.042  -4.754   1.422  0.00  0.00    +0.057 C 
BRANCH  27  28
ATOM     28  C   UNL     1      -0.108  -6.260   1.405  0.00  0.00    -0.046 A 
ATOM     29  C   UNL     1      -1.334  -6.898   1.411  0.00  0.00    +0.005 A 
ATOM     30  C   UNL     1      -1.395  -8.279   1.392  0.00  0.00    +0.029 A 
ATOM     31  C   UNL     1      -0.229  -9.022   1.376  0.00  0.00    +0.105 A 
ATOM     32  C   UNL     1       0.997  -8.383   1.375  0.00  0.00    +0.029 A 
ATOM     33  C   UNL     1       1.058  -7.003   1.390  0.00  0.00    +0.005 A 
BRANCH  31  34
ATOM     34  S   UNL     1      -0.306 -10.782   1.355  0.00  0.00    +0.056 S 
ATOM     35  O   UNL     1      -1.572 -11.127   0.809  0.00  0.00    -0.153 OA
ATOM     36  O   UNL     1       0.916 -11.235   0.791  0.00  0.00    -0.153 OA
BRANCH  34  37
ATOM     37  N   UNL     1      -0.318 -11.290   2.932  0.00  0.00    -0.204 NA
ATOM     38  H   UNL     1      -0.284 -10.640   3.651  0.00  0.00    +0.144 HD
ATOM     39  H   UNL     1      -0.358 -12.237   3.135  0.00  0.00    +0.144 HD
ENDBRANCH  34  37
ENDBRANCH  31  34
ENDBRANCH  27  28
ENDBRANCH  26  27
ENDBRANCH  11  26
TORSDOF 10
