REMARK  Name = ZINC41586562
REMARK  8 active torsions:
REMARK  status: ('A' for Active; 'I' for Inactive)
REMARK    1  A    between atoms: C_1  and  C_2
REMARK    2  A    between atoms: C_2  and  O_3
REMARK    3  A    between atoms: O_3  and  C_4
REMARK    4  A    between atoms: C_4  and  C_6
REMARK    5  A    between atoms: N_11  and  C_13
REMARK    6  A    between atoms: C_13  and  C_14
REMARK    7  A    between atoms: C_15  and  O_37
REMARK    8  A    between atoms: C_24  and  C_25
REMARK                            x       y       z     vdW  Elec       q    Type
REMARK                         _______ _______ _______ _____ _____    ______ ____
ROOT
ATOM      1  C   UNL     1       2.620  -6.455  -4.920  0.00  0.00    +0.020 A 
ATOM      2  C   UNL     1       1.805  -6.653  -6.023  0.00  0.00    +0.122 A 
ATOM      3  C   UNL     1       2.328  -7.169  -7.206  0.00  0.00    +0.046 A 
ATOM      4  C   UNL     1       3.654  -7.486  -7.293  0.00  0.00    +0.016 A 
ATOM      5  C   UNL     1       4.489  -7.293  -6.191  0.00  0.00    +0.026 A 
ATOM      6  C   UNL     1       3.969  -6.767  -4.996  0.00  0.00    +0.144 A 
ATOM      7  O   UNL     1       4.780  -6.576  -3.933  0.00  0.00    -0.422 OA
ATOM      8  C   UNL     1       6.089  -6.869  -3.977  0.00  0.00    +0.338 A 
ATOM      9  O   UNL     1       6.773  -6.676  -2.986  0.00  0.00    -0.245 OA
ATOM     10  C   UNL     1       6.693  -7.391  -5.130  0.00  0.00    +0.101 A 
ATOM     11  C   UNL     1       5.922  -7.626  -6.257  0.00  0.00    +0.006 A 
ENDROOT
BRANCH  11  12
ATOM     12  C   UNL     1       6.521  -8.175  -7.488  0.00  0.00    +0.068 A 
ATOM     13  C   UNL     1       7.130  -9.421  -7.501  0.00  0.00    +0.027 A 
ATOM     14  C   UNL     1       7.711  -9.868  -8.716  0.00  0.00    +0.020 A 
ATOM     15  C   UNL     1       8.160 -11.190  -8.845  0.00  0.00    +0.031 A 
ATOM     16  C   UNL     1       8.683 -11.618 -10.044  0.00  0.00    +0.042 A 
ATOM     17  C   UNL     1       8.775 -10.747 -11.122  0.00  0.00    +0.023 A 
ATOM     18  C   UNL     1       8.356  -9.438 -11.005  0.00  0.00    +0.048 A 
ATOM     19  C   UNL     1       7.832  -8.982  -9.803  0.00  0.00    +0.139 A 
ATOM     20  O   UNL     1       7.458  -7.687  -9.667  0.00  0.00    -0.422 OA
ATOM     21  C   UNL     1       6.490  -7.422  -8.756  0.00  0.00    +0.345 A 
ATOM     22  O   UNL     1       5.628  -6.591  -8.974  0.00  0.00    -0.245 OA
ATOM     23 CL   UNL     1       9.230 -13.257 -10.210  0.00  0.00    -0.084 Cl
ENDBRANCH  11  12
BRANCH   2  24
ATOM     24  O   UNL     1       0.485  -6.342  -5.950  0.00  0.00    -0.506 OA
ATOM     25  H   UNL     1       0.280  -5.433  -6.207  0.00  0.00    +0.292 HD
ENDBRANCH   2  24
BRANCH   1  26
ATOM     26  C   UNL     1       2.043  -5.897  -3.645  0.00  0.00    -0.036 C 
BRANCH  26  31
ATOM     27  C   UNL     1       1.468  -2.353  -2.550  0.00  0.00    +0.081 C 
ATOM     28  C   UNL     1       2.919  -1.864  -2.583  0.00  0.00    +0.011 C 
ATOM     29  C   UNL     1       3.635  -2.500  -3.778  0.00  0.00    -0.018 C 
ATOM     30  C   UNL     1       3.539  -4.024  -3.670  0.00  0.00    -0.078 C 
ATOM     31  N   UNL     1       2.129  -4.430  -3.670  0.00  0.00    +0.383 N 
ATOM     32  C   UNL     1       1.452  -3.882  -2.488  0.00  0.00    -0.064 C 
ATOM     33  H   UNL     1       1.680  -4.083  -4.504  0.00  0.00    -0.081 HD
BRANCH  27  34
ATOM     34  C   UNL     1       0.775  -1.794  -1.334  0.00  0.00    +0.308 C 
ATOM     35  O   UNL     1       0.314  -2.540  -0.504  0.00  0.00    -0.251 OA
BRANCH  34  36
ATOM     36  O   UNL     1       0.671  -0.465  -1.174  0.00  0.00    -0.465 OA
BRANCH  36  38
ATOM     37  C   UNL     1      -0.019   1.526   0.010  0.00  0.00    +0.048 C 
ATOM     38  C   UNL     1       0.002  -0.004   0.002  0.00  0.00    +0.229 C 
ENDBRANCH  36  38
ENDBRANCH  34  36
ENDBRANCH  27  34
ENDBRANCH  26  31
ENDBRANCH   1  26
TORSDOF 7
