REMARK  Name = ZINC46914515
REMARK  10 active torsions:
REMARK  status: ('A' for Active; 'I' for Inactive)
REMARK    1  A    between atoms: C_1  and  C_2
REMARK    2  A    between atoms: C_5  and  C_8
REMARK    3  A    between atoms: C_10  and  C_13
REMARK    4  A    between atoms: C_14  and  N_32
REMARK    5  A    between atoms: N_15  and  C_20
REMARK    6  A    between atoms: C_17  and  S_18
REMARK    7  A    between atoms: S_18  and  C_19
REMARK    8  A    between atoms: C_20  and  C_21
REMARK    9  A    between atoms: N_23  and  C_24
REMARK   10  A    between atoms: C_24  and  C_25
REMARK                            x       y       z     vdW  Elec       q    Type
REMARK                         _______ _______ _______ _____ _____    ______ ____
ROOT
ATOM      1  C   UNL     1       0.104  -7.465   1.610  0.00  0.00    +0.112 A 
ATOM      2  C   UNL     1       0.127  -8.805   1.240  0.00  0.00    +0.129 A 
ATOM      3  N   UNL     1       0.135  -9.534   2.376  0.00  0.00    -0.240 N 
ATOM      4  N   UNL     1       0.117  -8.659   3.467  0.00  0.00    -0.162 NA
ATOM      5  C   UNL     1       0.105  -7.426   3.028  0.00  0.00    +0.133 A 
ENDROOT
BRANCH   1   8
ATOM      6  C   UNL     1       0.061  -4.256  -0.021  0.00  0.00    +0.202 A 
ATOM      7  N   UNL     1       0.071  -5.042   1.066  0.00  0.00    -0.187 NA
ATOM      8  C   UNL     1       0.088  -6.308   0.703  0.00  0.00    +0.265 A 
ATOM      9  O   UNL     1       0.088  -6.359  -0.642  0.00  0.00    -0.332 OA
ATOM     10  N   UNL     1       0.065  -5.013  -1.092  0.00  0.00    -0.056 NA
BRANCH   6  15
ATOM     11  C   UNL     1      -0.018   1.503   0.010  0.00  0.00    +0.044 C 
ATOM     12  C   UNL     1       0.002  -0.004   0.002  0.00  0.00    -0.050 A 
ATOM     13  C   UNL     1       0.006  -0.687  -1.201  0.00  0.00    +0.004 A 
ATOM     14  C   UNL     1       0.025  -2.067  -1.214  0.00  0.00    +0.012 A 
ATOM     15  C   UNL     1       0.041  -2.772  -0.013  0.00  0.00    +0.022 A 
ATOM     16  C   UNL     1       0.037  -2.080   1.196  0.00  0.00    +0.012 A 
ATOM     17  C   UNL     1       0.023  -0.700   1.198  0.00  0.00    +0.004 A 
ENDBRANCH   6  15
ENDBRANCH   1   8
BRANCH   2  18
ATOM     18  N   UNL     1       0.138  -9.300  -0.051  0.00  0.00    -0.343 N 
ATOM     19  H   UNL     1       0.130  -8.689  -0.804  0.00  0.00    +0.144 HD
ATOM     20  H   UNL     1       0.154 -10.258  -0.203  0.00  0.00    +0.144 HD
ENDBRANCH   2  18
BRANCH   5  21
ATOM     21  S   UNL     1       0.088  -5.972   4.024  0.00  0.00    -0.107 S 
ATOM     22  C   UNL     1       0.098  -6.605   5.724  0.00  0.00    +0.091 C 
ENDBRANCH   5  21
BRANCH   3  23
ATOM     23  C   UNL     1       0.158 -10.997   2.453  0.00  0.00    +0.241 C 
BRANCH  23  24
ATOM     24  C   UNL     1       1.587 -11.476   2.483  0.00  0.00    +0.235 C 
ATOM     25  O   UNL     1       2.496 -10.674   2.445  0.00  0.00    -0.274 OA
ATOM     26  N   UNL     1       1.854 -12.795   2.554  0.00  0.00    -0.310 N 
ATOM     27  H   UNL     1       1.126 -13.436   2.585  0.00  0.00    +0.149 HD
BRANCH  26  28
ATOM     28  C   UNL     1       3.242 -13.260   2.583  0.00  0.00    +0.141 C 
BRANCH  28  29
ATOM     29  C   UNL     1       3.266 -14.765   2.663  0.00  0.00    -0.012 A 
ATOM     30  C   UNL     1       3.475 -15.390   3.878  0.00  0.00    +0.006 A 
ATOM     31  C   UNL     1       3.497 -16.770   3.951  0.00  0.00    +0.000 A 
ATOM     32  C   UNL     1       3.310 -17.526   2.808  0.00  0.00    +0.001 A 
ATOM     33  C   UNL     1       3.101 -16.903   1.593  0.00  0.00    +0.020 A 
ATOM     34  C   UNL     1       3.073 -15.521   1.520  0.00  0.00    +0.046 A 
ATOM     35 CL   UNL     1       2.805 -14.737  -0.005  0.00  0.00    -0.083 Cl
ENDBRANCH  28  29
ENDBRANCH  26  28
ENDBRANCH  23  24
ENDBRANCH   3  23
TORSDOF 8
