REMARK  Name = ZINC13686117
REMARK  8 active torsions:
REMARK  status: ('A' for Active; 'I' for Inactive)
REMARK    1  A    between atoms: C_1  and  O_2
REMARK    2  A    between atoms: O_2  and  C_3
REMARK    3  A    between atoms: C_6  and  S_9
REMARK    4  A    between atoms: S_9  and  N_12
REMARK    5  A    between atoms: N_12  and  C_13
REMARK    6  A    between atoms: C_13  and  C_14
REMARK    7  A    between atoms: C_17  and  C_20
REMARK    8  A    between atoms: C_20  and  N_22
REMARK                            x       y       z     vdW  Elec       q    Type
REMARK                         _______ _______ _______ _____ _____    ______ ____
ROOT
ATOM      1  C   UNL     1      -0.226  -4.209   6.757  0.00  0.00    +0.005 C 
ATOM      2  C   UNL     1      -0.837  -2.941   7.356  0.00  0.00    +0.005 C 
ATOM      3  C   UNL     1      -1.521  -3.282   8.682  0.00  0.00    +0.013 C 
ATOM      4  C   UNL     1      -2.624  -4.314   8.437  0.00  0.00    +0.077 C 
ATOM      5  C   UNL     1      -2.012  -5.582   7.837  0.00  0.00    +0.013 C 
ATOM      6  C   UNL     1      -1.329  -5.241   6.511  0.00  0.00    +0.005 C 
ENDROOT
BRANCH   4   7
ATOM      7  C   UNL     1      -3.297  -4.650   9.742  0.00  0.00    +0.242 C 
ATOM      8  O   UNL     1      -2.930  -4.115  10.771  0.00  0.00    -0.273 OA
BRANCH   7   9
ATOM      9  N   UNL     1      -4.292  -5.531   9.770  0.00  0.00    -0.147 NA
ATOM     10  C   UNL     1      -4.817  -5.906  10.933  0.00  0.00    +0.198 A 
ATOM     11  N   UNL     1      -4.502  -5.378  12.145  0.00  0.00    -0.326 N 
ATOM     12  H   UNL     1      -3.861  -4.668  12.307  0.00  0.00    +0.169 HD
ATOM     13  C   UNL     1      -5.258  -6.029  13.115  0.00  0.00    +0.065 A 
ATOM     14  C   UNL     1      -5.344  -5.901  14.493  0.00  0.00    +0.028 A 
ATOM     15  C   UNL     1      -6.207  -6.708  15.207  0.00  0.00    +0.002 A 
ATOM     16  C   UNL     1      -6.989  -7.645  14.553  0.00  0.00    +0.002 A 
ATOM     17  C   UNL     1      -6.911  -7.781  13.181  0.00  0.00    +0.028 A 
ATOM     18  C   UNL     1      -6.046  -6.975  12.454  0.00  0.00    +0.065 A 
ATOM     19  N   UNL     1      -5.756  -6.874  11.098  0.00  0.00    -0.326 N 
ATOM     20  H   UNL     1      -6.155  -7.405  10.390  0.00  0.00    +0.169 HD
ENDBRANCH   7   9
ENDBRANCH   4   7
BRANCH   1  21
ATOM     21  C   UNL     1       0.458  -3.868   5.431  0.00  0.00    +0.109 C 
BRANCH  21  22
ATOM     22  N   UNL     1       1.590  -2.972   5.682  0.00  0.00    -0.190 NA
ATOM     23  H   UNL     1       1.671  -2.520   6.536  0.00  0.00    +0.148 HD
BRANCH  22  24
ATOM     24  S   UNL     1       2.731  -2.731   4.506  0.00  0.00    +0.058 S 
ATOM     25  O   UNL     1       3.111  -4.019   4.040  0.00  0.00    -0.153 OA
ATOM     26  O   UNL     1       3.670  -1.805   5.035  0.00  0.00    -0.153 OA
BRANCH  24  30
ATOM     27  C   UNL     1       0.673  -0.657   1.046  0.00  0.00    +0.120 A 
ATOM     28  C   UNL     1       1.258   0.092   2.057  0.00  0.00    +0.047 A 
ATOM     29  C   UNL     1       1.885  -0.543   3.112  0.00  0.00    +0.032 A 
ATOM     30  C   UNL     1       1.930  -1.924   3.160  0.00  0.00    +0.105 A 
ATOM     31  C   UNL     1       1.348  -2.673   2.154  0.00  0.00    +0.032 A 
ATOM     32  C   UNL     1       0.715  -2.043   1.100  0.00  0.00    +0.047 A 
BRANCH  27  34
ATOM     33  C   UNL     1       0.051   1.394   0.018  0.00  0.00    +0.277 C 
ATOM     34  O   UNL     1       0.055  -0.035   0.008  0.00  0.00    -0.495 OA
ENDBRANCH  27  34
ENDBRANCH  24  30
ENDBRANCH  22  24
ENDBRANCH  21  22
ENDBRANCH   1  21
TORSDOF 7
