REMARK  Name = ZINC09671780
REMARK  4 active torsions:
REMARK  status: ('A' for Active; 'I' for Inactive)
REMARK    1  A    between atoms: C_3  and  S_19
REMARK    2  A    between atoms: C_6  and  N_7
REMARK    3  A    between atoms: C_8  and  C_10
REMARK    4  A    between atoms: S_19  and  N_22
REMARK                            x       y       z     vdW  Elec       q    Type
REMARK                         _______ _______ _______ _____ _____    ______ ____
ROOT
ATOM      1  C   UNL     1      -0.013   1.374   0.194  0.00  0.00    +0.025 A 
ATOM      2  C   UNL     1       1.174   2.082   0.191  0.00  0.00    +0.031 A 
ATOM      3  C   UNL     1       2.374   1.421   0.003  0.00  0.00    +0.113 A 
ATOM      4  C   UNL     1       2.391   0.051  -0.183  0.00  0.00    +0.031 A 
ATOM      5  C   UNL     1       1.208  -0.662  -0.182  0.00  0.00    +0.025 A 
ATOM      6  C   UNL     1       0.001  -0.002   0.007  0.00  0.00    +0.034 A 
ENDROOT
BRANCH   6   7
ATOM      7  N   UNL     1      -1.198  -0.721   0.010  0.00  0.00    -0.281 N 
ATOM      8  C   UNL     1      -2.324  -0.156  -0.469  0.00  0.00    +0.255 C 
ATOM      9  O   UNL     1      -2.279   0.942  -0.992  0.00  0.00    -0.269 OA
ATOM     10  H   UNL     1      -1.220  -1.627   0.357  0.00  0.00    +0.155 HD
BRANCH   8  11
ATOM     11  C   UNL     1      -3.603  -0.864  -0.361  0.00  0.00    +0.075 A 
ATOM     12  C   UNL     1      -4.857  -0.469  -0.788  0.00  0.00    +0.024 A 
ATOM     13  C   UNL     1      -5.904  -1.347  -0.553  0.00  0.00    -0.036 A 
ATOM     14  C   UNL     1      -5.593  -2.516   0.078  0.00  0.00    -0.006 A 
ATOM     15  S   UNL     1      -3.946  -2.463   0.348  0.00  0.00    -0.088 S 
ATOM     16  C   UNL     1      -6.542  -3.619   0.443  0.00  0.00    +0.043 C 
ATOM     17  C   UNL     1      -7.976  -3.080   0.342  0.00  0.00    +0.005 C 
ATOM     18  C   UNL     1      -8.134  -2.350  -0.995  0.00  0.00    +0.005 C 
ATOM     19  C   UNL     1      -7.341  -1.043  -0.970  0.00  0.00    +0.036 C 
ENDBRANCH   8  11
ENDBRANCH   6   7
BRANCH   3  20
ATOM     20  S   UNL     1       3.885   2.327  -0.001  0.00  0.00    +0.100 S 
ATOM     21  O   UNL     1       4.821   1.554  -0.740  0.00  0.00    -0.146 OA
ATOM     22  O   UNL     1       3.556   3.664  -0.352  0.00  0.00    -0.146 OA
BRANCH  20  23
ATOM     23  N   UNL     1       4.434   2.369   1.561  0.00  0.00    -0.118 NA
ATOM     24  C   UNL     1       5.539   2.980   1.841  0.00  0.00    +0.117 C 
ATOM     25  C   UNL     1       6.051   3.014   3.280  0.00  0.00    +0.073 C 
ATOM     26  C   UNL     1       7.292   2.149   3.336  0.00  0.00    +0.008 C 
ATOM     27  C   UNL     1       8.579   2.908   3.009  0.00  0.00    +0.002 C 
ATOM     28  C   UNL     1       8.431   3.855   1.818  0.00  0.00    +0.019 C 
ATOM     29  C   UNL     1       7.656   3.249   0.667  0.00  0.00    +0.102 C 
ATOM     30  N   UNL     1       6.230   3.569   0.886  0.00  0.00    -0.331 N 
ATOM     31  H   UNL     1       5.797   4.225   0.316  0.00  0.00    +0.147 HD
ENDBRANCH  20  23
ENDBRANCH   3  20
TORSDOF 4
