REMARK  Name = ZINC58849716
REMARK  8 active torsions:
REMARK  status: ('A' for Active; 'I' for Inactive)
REMARK    1  A    between atoms: C_1  and  C_2
REMARK    2  A    between atoms: C_6  and  C_8
REMARK    3  A    between atoms: C_19  and  S_24
REMARK    4  A    between atoms: S_24  and  N_27
REMARK    5  A    between atoms: N_27  and  C_28
REMARK    6  A    between atoms: C_30  and  C_36
REMARK    7  A    between atoms: C_33  and  O_34
REMARK    8  A    between atoms: O_34  and  C_35
REMARK                            x       y       z     vdW  Elec       q    Type
REMARK                         _______ _______ _______ _____ _____    ______ ____
ROOT
ATOM      1  C   UNL     1      -0.025  -3.133   2.029  0.00  0.00    +0.105 C 
ATOM      2  C   UNL     1       1.398  -3.488   2.344  0.00  0.00    +0.029 C 
ATOM      3  C   UNL     1       2.144  -4.057   1.119  0.00  0.00    +0.033 C 
ATOM      4  C   UNL     1       3.199  -4.958   1.726  0.00  0.00    -0.030 C 
ATOM      5  C   UNL     1       2.908  -5.249   2.967  0.00  0.00    -0.023 C 
ATOM      6  C   UNL     1       1.600  -4.609   3.360  0.00  0.00    +0.049 C 
ATOM      7  C   UNL     1       0.530  -5.663   3.298  0.00  0.00    -0.018 A 
ATOM      8  C   UNL     1       0.756  -6.870   3.945  0.00  0.00    +0.034 A 
ATOM      9  C   UNL     1      -0.191  -7.873   3.906  0.00  0.00    +0.109 A 
ATOM     10  C   UNL     1      -1.377  -7.682   3.221  0.00  0.00    +0.030 A 
ATOM     11  C   UNL     1      -1.613  -6.484   2.579  0.00  0.00    +0.025 A 
ATOM     12  C   UNL     1      -0.660  -5.469   2.621  0.00  0.00    +0.031 A 
ATOM     13  N   UNL     1      -0.935  -4.259   2.012  0.00  0.00    -0.336 N 
ATOM     14  H   UNL     1      -1.770  -4.174   1.527  0.00  0.00    +0.147 HD
ENDROOT
BRANCH   1  20
ATOM     15  C   UNL     1      -0.148   1.024  -0.755  0.00  0.00    +0.044 C 
ATOM     16  C   UNL     1      -0.122  -0.480  -0.654  0.00  0.00    -0.050 A 
ATOM     17  C   UNL     1      -0.133  -1.249  -1.803  0.00  0.00    +0.003 A 
ATOM     18  C   UNL     1      -0.109  -2.628  -1.711  0.00  0.00    +0.001 A 
ATOM     19  C   UNL     1      -0.074  -3.238  -0.471  0.00  0.00    +0.005 A 
ATOM     20  C   UNL     1      -0.062  -2.469   0.677  0.00  0.00    -0.027 A 
ATOM     21  C   UNL     1      -0.082  -1.089   0.585  0.00  0.00    +0.008 A 
ENDBRANCH   1  20
BRANCH   9  22
ATOM     22  S   UNL     1       0.111  -9.399   4.733  0.00  0.00    +0.072 S 
ATOM     23  O   UNL     1      -0.697 -10.376   4.090  0.00  0.00    -0.150 OA
ATOM     24  O   UNL     1       1.522  -9.530   4.842  0.00  0.00    -0.150 OA
BRANCH  22  25
ATOM     25  N   UNL     1      -0.471  -9.245   6.275  0.00  0.00    -0.213 N 
ATOM     26  H   UNL     1       0.129  -9.338   7.032  0.00  0.00    +0.174 HD
BRANCH  25  27
ATOM     27  C   UNL     1      -1.829  -8.979   6.488  0.00  0.00    +0.090 A 
ATOM     28  C   UNL     1      -2.785  -9.531   5.648  0.00  0.00    +0.031 A 
ATOM     29  C   UNL     1      -4.125  -9.267   5.861  0.00  0.00    -0.048 A 
ATOM     30  C   UNL     1      -4.516  -8.455   6.909  0.00  0.00    +0.007 A 
ATOM     31  C   UNL     1      -3.568  -7.902   7.750  0.00  0.00    +0.048 A 
ATOM     32  C   UNL     1      -2.224  -8.165   7.547  0.00  0.00    +0.142 A 
ATOM     33  C   UNL     1      -5.163  -9.867   4.947  0.00  0.00    +0.044 C 
BRANCH  32  34
ATOM     34  O   UNL     1      -1.291  -7.625   8.377  0.00  0.00    -0.493 OA
ATOM     35  C   UNL     1      -1.769  -6.801   9.442  0.00  0.00    +0.277 C 
ENDBRANCH  32  34
ENDBRANCH  25  27
ENDBRANCH  22  25
ENDBRANCH   9  22
TORSDOF 5
