REMARK  Name = ZINC05587135
REMARK  5 active torsions:
REMARK  status: ('A' for Active; 'I' for Inactive)
REMARK    1  A    between atoms: C_1  and  C_2
REMARK    2  A    between atoms: C_2  and  O_31
REMARK    3  A    between atoms: C_4  and  C_24
REMARK    4  A    between atoms: C_4  and  O_30
REMARK    5  A    between atoms: N_11  and  C_18
REMARK                            x       y       z     vdW  Elec       q    Type
REMARK                         _______ _______ _______ _____ _____    ______ ____
ROOT
ATOM      1  C   UNL     1      -1.007  -0.524   1.028  0.00  0.00    +0.046 C 
ATOM      2  C   UNL     1       0.002  -0.004   0.002  0.00  0.00    +0.093 C 
ATOM      3  C   UNL     1      -0.018   1.495   0.010  0.00  0.00    +0.084 C 
ATOM      4  C   UNL     1       1.323   2.166   0.001  0.00  0.00    +0.120 C 
ATOM      5  C   UNL     1       1.644   2.730  -1.353  0.00  0.00    +0.010 A 
ATOM      6  C   UNL     1       1.808   4.088  -1.526  0.00  0.00    +0.008 A 
ATOM      7  C   UNL     1       2.080   4.602  -2.780  0.00  0.00    +0.000 A 
ATOM      8  C   UNL     1       2.188   3.750  -3.864  0.00  0.00    +0.002 A 
ATOM      9  C   UNL     1       2.031   2.390  -3.697  0.00  0.00    +0.024 A 
ATOM     10  C   UNL     1       1.760   1.863  -2.436  0.00  0.00    +0.045 A 
ATOM     11  N   UNL     1       1.616   0.502  -2.274  0.00  0.00    -0.268 N 
ATOM     12  C   UNL     1       0.478  -0.260  -2.434  0.00  0.00    +0.045 A 
ATOM     13  C   UNL     1      -0.348  -0.550  -1.352  0.00  0.00    +0.005 A 
ATOM     14  C   UNL     1      -1.474  -1.328  -1.522  0.00  0.00    +0.008 A 
ATOM     15  C   UNL     1      -1.795  -1.822  -2.774  0.00  0.00    +0.000 A 
ATOM     16  C   UNL     1      -0.983  -1.535  -3.856  0.00  0.00    +0.002 A 
ATOM     17  C   UNL     1       0.145  -0.759  -3.691  0.00  0.00    +0.024 A 
ENDROOT
BRANCH  11  18
ATOM     18  C   UNL     1       2.769  -0.194  -1.901  0.00  0.00    +0.039 A 
ATOM     19  C   UNL     1       3.967   0.487  -1.722  0.00  0.00    +0.024 A 
ATOM     20  C   UNL     1       5.103  -0.203  -1.348  0.00  0.00    +0.002 A 
ATOM     21  C   UNL     1       5.052  -1.572  -1.162  0.00  0.00    +0.000 A 
ATOM     22  C   UNL     1       3.864  -2.255  -1.345  0.00  0.00    +0.002 A 
ATOM     23  C   UNL     1       2.722  -1.570  -1.714  0.00  0.00    +0.024 A 
ENDBRANCH  11  18
BRANCH   4  24
ATOM     24  C   UNL     1       1.323   3.283   1.013  0.00  0.00    -0.012 A 
ATOM     25  C   UNL     1       0.149   3.955   1.300  0.00  0.00    +0.007 A 
ATOM     26  C   UNL     1       0.148   4.976   2.232  0.00  0.00    +0.000 A 
ATOM     27  C   UNL     1       1.322   5.333   2.868  0.00  0.00    +0.000 A 
ATOM     28  C   UNL     1       2.497   4.665   2.576  0.00  0.00    +0.000 A 
ATOM     29  C   UNL     1       2.497   3.640   1.649  0.00  0.00    +0.007 A 
ENDBRANCH   4  24
BRANCH   4  30
ATOM     30  O   UNL     1       2.325   1.213   0.360  0.00  0.00    -0.379 OA
ATOM     31  H   UNL     1       3.223   1.573   0.376  0.00  0.00    +0.211 HD
ENDBRANCH   4  30
BRANCH   2  32
ATOM     32  O   UNL     1       1.309  -0.456   0.362  0.00  0.00    -0.384 OA
ATOM     33  H   UNL     1       1.402  -1.418   0.380  0.00  0.00    +0.211 HD
ENDBRANCH   2  32
TORSDOF 4
