REMARK  Name = ZINC16856623
REMARK  11 active torsions:
REMARK  status: ('A' for Active; 'I' for Inactive)
REMARK    1  A    between atoms: C_1  and  C_2
REMARK    2  A    between atoms: C_2  and  C_3
REMARK    3  A    between atoms: C_3  and  C_4
REMARK    4  A    between atoms: C_4  and  O_5
REMARK    5  A    between atoms: O_5  and  C_6
REMARK    6  A    between atoms: C_6  and  C_8
REMARK    7  A    between atoms: C_11  and  N_14
REMARK    8  A    between atoms: C_17  and  C_19
REMARK    9  A    between atoms: C_20  and  C_28
REMARK   10  A    between atoms: C_22  and  C_26
REMARK   11  A    between atoms: C_23  and  N_25
REMARK                            x       y       z     vdW  Elec       q    Type
REMARK                         _______ _______ _______ _____ _____    ______ ____
ROOT
ATOM      1  N   UNL     1       4.885   2.360   2.387  0.00  0.00    -0.200 N 
ATOM      2  C   UNL     1       4.404   2.223   1.131  0.00  0.00    +0.230 A 
ATOM      3  C   UNL     1       3.298   1.423   1.200  0.00  0.00    +0.050 A 
ATOM      4  C   UNL     1       3.106   1.067   2.528  0.00  0.00    +0.068 A 
ATOM      5  N   UNL     1       4.053   1.624   3.245  0.00  0.00    -0.168 NA
ATOM      6  C   UNL     1       1.999   0.191   3.056  0.00  0.00    +0.068 C 
ATOM      7  C   UNL     1       2.490   1.047  -0.016  0.00  0.00    +0.101 C 
ATOM      8  C   UNL     1       3.276   1.436  -1.243  0.00  0.00    +0.098 C 
ATOM      9  C   UNL     1       4.370   2.229  -1.182  0.00  0.00    +0.200 C 
ATOM     10  O   UNL     1       4.864   2.739  -0.035  0.00  0.00    -0.423 OA
ENDROOT
BRANCH   7  11
ATOM     11  C   UNL     1       1.175   1.783   0.000  0.00  0.00    -0.034 A 
ATOM     12  C   UNL     1      -0.013   1.076   0.008  0.00  0.00    +0.005 A 
ATOM     13  C   UNL     1      -1.219   1.750   0.017  0.00  0.00    +0.015 A 
ATOM     14  C   UNL     1      -1.238   3.134   0.030  0.00  0.00    +0.018 A 
ATOM     15  C   UNL     1      -0.049   3.841   0.023  0.00  0.00    +0.015 A 
ATOM     16  C   UNL     1       1.157   3.165   0.008  0.00  0.00    +0.005 A 
ATOM     17 BR   UNL     1      -2.888   4.057   0.050  0.00  0.00    -0.050 Br
ENDBRANCH   7  11
BRANCH   1  21
ATOM     18  C   UNL     1       8.236   4.571   3.509  0.00  0.00    +0.059 A 
ATOM     19  C   UNL     1       7.128   4.499   4.358  0.00  0.00    +0.017 A 
ATOM     20  C   UNL     1       6.023   3.768   3.983  0.00  0.00    +0.029 A 
ATOM     21  C   UNL     1       6.009   3.101   2.763  0.00  0.00    +0.069 A 
ATOM     22  C   UNL     1       7.112   3.166   1.919  0.00  0.00    +0.029 A 
ATOM     23  C   UNL     1       8.219   3.899   2.284  0.00  0.00    +0.017 A 
BRANCH  18  24
ATOM     24  C   UNL     1       9.422   5.353   3.907  0.00  0.00    +0.339 C 
ATOM     25  O   UNL     1       9.436   5.936   4.973  0.00  0.00    -0.245 OA
BRANCH  24  26
ATOM     26  O   UNL     1      10.490   5.420   3.088  0.00  0.00    -0.461 OA
BRANCH  26  27
ATOM     27  C   UNL     1      11.621   6.208   3.543  0.00  0.00    +0.232 C 
BRANCH  27  28
ATOM     28  C   UNL     1      12.729   6.167   2.489  0.00  0.00    +0.041 C 
BRANCH  28  30
ATOM     29  C   UNL     1      15.029   6.957   1.914  0.00  0.00    +0.004 C 
ATOM     30  C   UNL     1      13.921   6.997   2.969  0.00  0.00    -0.000 C 
ENDBRANCH  28  30
ENDBRANCH  27  28
ENDBRANCH  26  27
ENDBRANCH  24  26
ENDBRANCH  18  24
ENDBRANCH   1  21
BRANCH   9  31
ATOM     31  N   UNL     1       5.015   2.531  -2.355  0.00  0.00    -0.328 N 
ATOM     32  H   UNL     1       5.803   3.096  -2.344  0.00  0.00    +0.145 HD
ATOM     33  H   UNL     1       4.683   2.179  -3.196  0.00  0.00    +0.145 HD
ENDBRANCH   9  31
BRANCH   8  34
ATOM     34  C   UNL     1       2.847   0.947  -2.519  0.00  0.00    +0.101 C 
ATOM     35  N   UNL     1       2.507   0.560  -3.531  0.00  0.00    -0.191 NA
ENDBRANCH   8  34
TORSDOF 9
