REMARK  Name = ZINC16614595
REMARK  15 active torsions:
REMARK  status: ('A' for Active; 'I' for Inactive)
REMARK    1  A    between atoms: C_1  and  C_2
REMARK    2  A    between atoms: C_2  and  C_3
REMARK    3  A    between atoms: C_2  and  C_4
REMARK    4  A    between atoms: C_8  and  C_35
REMARK    5  A    between atoms: C_9  and  N_10
REMARK    6  A    between atoms: N_13  and  C_14
REMARK    7  A    between atoms: C_14  and  C_16
REMARK    8  A    between atoms: C_14  and  C_19
REMARK    9  A    between atoms: C_16  and  C_17
REMARK   10  A    between atoms: C_16  and  C_18
REMARK   11  A    between atoms: C_25  and  C_27
REMARK   12  A    between atoms: C_30  and  O_33
REMARK   13  A    between atoms: O_33  and  C_34
REMARK   14  A    between atoms: C_35  and  C_36
REMARK   15  A    between atoms: C_35  and  C_37
REMARK                            x       y       z     vdW  Elec       q    Type
REMARK                         _______ _______ _______ _____ _____    ______ ____
ROOT
ATOM      1  C   UNL     1      -3.309   0.956   1.363  0.00  0.00    +0.163 C 
ENDROOT
BRANCH   1   2
ATOM      2  C   UNL     1      -4.471   0.327   0.637  0.00  0.00    +0.239 C 
ATOM      3  O   UNL     1      -4.273  -0.541  -0.187  0.00  0.00    -0.273 OA
ATOM      4  N   UNL     1      -5.729   0.728   0.905  0.00  0.00    -0.262 N 
ATOM      5  C   UNL     1      -6.806   0.077   0.314  0.00  0.00    +0.188 A 
ATOM      6  N   UNL     1      -6.825  -0.942  -0.535  0.00  0.00    -0.125 NA
ATOM      7  N   UNL     1      -7.904  -1.421  -0.977  0.00  0.00    -0.140 NA
ATOM      8  C   UNL     1      -9.086  -0.927  -0.629  0.00  0.00    +0.134 A 
ATOM      9  S   UNL     1      -8.563   0.382   0.476  0.00  0.00    -0.030 S 
ATOM     10  H   UNL     1      -5.883   1.471   1.509  0.00  0.00    +0.157 HD
BRANCH   8  11
ATOM     11  C   UNL     1     -10.446  -1.338  -1.037  0.00  0.00    +0.009 A 
ATOM     12  C   UNL     1     -11.561  -0.667  -0.533  0.00  0.00    +0.014 A 
ATOM     13  C   UNL     1     -12.827  -1.050  -0.920  0.00  0.00    +0.046 A 
ATOM     14  C   UNL     1     -12.995  -2.110  -1.802  0.00  0.00    +0.120 A 
ATOM     15  C   UNL     1     -11.888  -2.784  -2.301  0.00  0.00    +0.046 A 
ATOM     16  C   UNL     1     -10.618  -2.403  -1.923  0.00  0.00    +0.014 A 
BRANCH  14  17
ATOM     17  O   UNL     1     -14.244  -2.489  -2.176  0.00  0.00    -0.495 OA
ATOM     18  C   UNL     1     -15.338  -1.752  -1.625  0.00  0.00    +0.277 C 
ENDBRANCH  14  17
ENDBRANCH   8  11
ENDBRANCH   1   2
BRANCH   1  22
ATOM     19  N   UNL     1      -0.016   1.718  -0.084  0.00  0.00    -0.269 N 
ATOM     20  C   UNL     1      -1.117   1.780   0.691  0.00  0.00    +0.304 C 
ATOM     21  O   UNL     1      -1.211   2.641   1.544  0.00  0.00    -0.252 OA
ATOM     22  N   UNL     1      -2.112   0.888   0.520  0.00  0.00    -0.288 N 
ATOM     23  H   UNL     1       0.033   1.072  -0.807  0.00  0.00    +0.156 HD
ATOM     24  H   UNL     1      -2.037   0.201  -0.161  0.00  0.00    +0.151 HD
BRANCH  19  30
ATOM     25  C   UNL     1       0.859   3.962   0.096  0.00  0.00    -0.023 A 
ATOM     26  C   UNL     1       1.916   4.819   0.332  0.00  0.00    +0.006 A 
ATOM     27  C   UNL     1       3.171   4.309   0.611  0.00  0.00    +0.001 A 
ATOM     28  C   UNL     1       3.371   2.942   0.659  0.00  0.00    +0.006 A 
ATOM     29  C   UNL     1       2.316   2.080   0.429  0.00  0.00    -0.023 A 
ATOM     30  C   UNL     1       1.054   2.588   0.149  0.00  0.00    +0.042 A 
BRANCH  25  32
ATOM     31  C   UNL     1      -0.915   5.508   0.879  0.00  0.00    +0.012 C 
ATOM     32  C   UNL     1      -0.508   4.518  -0.213  0.00  0.00    +0.015 C 
ATOM     33  C   UNL     1      -0.472   5.235  -1.564  0.00  0.00    +0.012 C 
ENDBRANCH  25  32
BRANCH  29  34
ATOM     34  C   UNL     1       2.535   0.590   0.481  0.00  0.00    +0.015 C 
ATOM     35  C   UNL     1       3.575   0.190  -0.568  0.00  0.00    +0.012 C 
ATOM     36  C   UNL     1       3.036   0.196   1.872  0.00  0.00    +0.012 C 
ENDBRANCH  29  34
ENDBRANCH  19  30
ENDBRANCH   1  22
BRANCH   1  37
ATOM     37  C   UNL     1      -3.055   0.202   2.670  0.00  0.00    +0.012 C 
ATOM     38  C   UNL     1      -1.915   0.877   3.435  0.00  0.00    +0.009 C 
ATOM     39  C   UNL     1      -4.325   0.221   3.524  0.00  0.00    +0.009 C 
ENDBRANCH   1  37
TORSDOF 8
