REMARK  Name = ZINC41026000
REMARK  5 active torsions:
REMARK  status: ('A' for Active; 'I' for Inactive)
REMARK    1  A    between atoms: C_1  and  C_2
REMARK    2  A    between atoms: C_5  and  C_38
REMARK    3  A    between atoms: N_16  and  C_19
REMARK    4  A    between atoms: N_25  and  C_26
REMARK    5  A    between atoms: C_27  and  C_35
REMARK                            x       y       z     vdW  Elec       q    Type
REMARK                         _______ _______ _______ _____ _____    ______ ____
ROOT
ATOM      1  C   UNL     1      -0.019   1.526   0.010  0.00  0.00    +0.009 C 
ATOM      2  C   UNL     1       0.002  -0.004   0.002  0.00  0.00    +0.004 C 
ATOM      3  C   UNL     1       0.720  -0.498  -1.256  0.00  0.00    +0.009 C 
ATOM      4  C   UNL     1       2.145   0.059  -1.285  0.00  0.00    +0.004 C 
ATOM      5  C   UNL     1       2.912  -0.448  -0.060  0.00  0.00    +0.111 C 
ATOM      6  N   UNL     1       2.153  -0.103   1.150  0.00  0.00    -0.299 N 
ATOM      7  C   UNL     1       0.744  -0.512   1.242  0.00  0.00    +0.111 C 
ATOM      8  C   UNL     1       2.753   0.595   2.184  0.00  0.00    +0.221 A 
ATOM      9  N   UNL     1       4.027   0.951   2.060  0.00  0.00    -0.198 NA
ATOM     10  C   UNL     1       4.648   1.621   3.022  0.00  0.00    +0.139 A 
ATOM     11  C   UNL     1       3.926   1.950   4.186  0.00  0.00    +0.079 A 
ATOM     12  C   UNL     1       4.234   2.632   5.384  0.00  0.00    +0.148 A 
ATOM     13  N   UNL     1       3.170   2.650   6.136  0.00  0.00    -0.172 NA
ATOM     14  N   UNL     1       2.120   1.990   5.484  0.00  0.00    -0.214 N 
ATOM     15  C   UNL     1       2.578   1.552   4.274  0.00  0.00    +0.170 A 
ATOM     16  N   UNL     1       2.036   0.886   3.256  0.00  0.00    -0.194 NA
ATOM     17  N   UNL     1       5.974   1.988   2.885  0.00  0.00    -0.293 N 
ATOM     18  C   UNL     1       2.850  -0.408  -2.559  0.00  0.00    +0.009 C 
ATOM     19  H   UNL     1       6.418   2.478   3.596  0.00  0.00    +0.154 HD
ENDROOT
BRANCH  17  20
ATOM     20  C   UNL     1       6.669   1.656   1.735  0.00  0.00    +0.083 A 
ATOM     21  C   UNL     1       7.993   1.933   1.429  0.00  0.00    +0.068 A 
ATOM     22  C   UNL     1       8.487   1.471   0.143  0.00  0.00    -0.023 A 
ATOM     23  C   UNL     1       7.568   0.819  -0.600  0.00  0.00    -0.004 A 
ATOM     24  S   UNL     1       6.105   0.819   0.393  0.00  0.00    -0.077 S 
ATOM     25  C   UNL     1       7.767   0.228  -1.962  0.00  0.00    +0.043 C 
ATOM     26  C   UNL     1       9.064   0.801  -2.552  0.00  0.00    +0.005 C 
ATOM     27  C   UNL     1      10.174   0.697  -1.502  0.00  0.00    +0.005 C 
ATOM     28  C   UNL     1       9.907   1.682  -0.362  0.00  0.00    +0.037 C 
BRANCH  21  29
ATOM     29  C   UNL     1       8.857   2.660   2.362  0.00  0.00    +0.244 C 
ATOM     30  O   UNL     1       9.509   2.050   3.190  0.00  0.00    -0.270 OA
ATOM     31  N   UNL     1       8.930   4.005   2.304  0.00  0.00    -0.325 N 
ATOM     32  H   UNL     1       8.411   4.491   1.645  0.00  0.00    +0.145 HD
ATOM     33  H   UNL     1       9.502   4.487   2.922  0.00  0.00    +0.145 HD
ENDBRANCH  21  29
ENDBRANCH  17  20
BRANCH  14  34
ATOM     34  C   UNL     1       0.826   1.810   5.986  0.00  0.00    +0.068 A 
ATOM     35  C   UNL     1      -0.264   1.829   5.125  0.00  0.00    +0.028 A 
ATOM     36  C   UNL     1      -1.539   1.651   5.624  0.00  0.00    +0.002 A 
ATOM     37  C   UNL     1      -1.732   1.454   6.979  0.00  0.00    +0.000 A 
ATOM     38  C   UNL     1      -0.650   1.435   7.839  0.00  0.00    +0.002 A 
ATOM     39  C   UNL     1       0.629   1.607   7.346  0.00  0.00    +0.028 A 
ENDBRANCH  14  34
TORSDOF 3
