REMARK  Name = ZINC08895119
REMARK  7 active torsions:
REMARK  status: ('A' for Active; 'I' for Inactive)
REMARK    1  A    between atoms: C_1  and  C_2
REMARK    2  A    between atoms: C_4  and  N_27
REMARK    3  A    between atoms: C_7  and  N_8
REMARK    4  A    between atoms: N_8  and  C_9
REMARK    5  A    between atoms: C_9  and  N_11
REMARK    6  A    between atoms: C_12  and  C_14
REMARK    7  A    between atoms: C_17  and  C_19
REMARK                            x       y       z     vdW  Elec       q    Type
REMARK                         _______ _______ _______ _____ _____    ______ ____
ROOT
ATOM      1  N   UNL     1      -1.107   3.585   0.412  0.00  0.00    -0.261 N 
ATOM      2  C   UNL     1      -1.222   2.298   0.795  0.00  0.00    +0.285 C 
ATOM      3  O   UNL     1      -2.301   1.864   1.153  0.00  0.00    -0.266 OA
ATOM      4  H   UNL     1      -0.247   3.931   0.127  0.00  0.00    +0.157 HD
ENDROOT
BRANCH   2   5
ATOM      5  C   UNL     1      -0.050   1.422   0.780  0.00  0.00    +0.190 A 
ATOM      6  C   UNL     1      -0.027   0.093   1.144  0.00  0.00    +0.055 A 
ATOM      7  C   UNL     1       1.287  -0.351   0.972  0.00  0.00    +0.050 A 
ATOM      8  C   UNL     1       2.013   0.711   0.513  0.00  0.00    +0.136 A 
ATOM      9  O   UNL     1       1.198   1.773   0.402  0.00  0.00    -0.450 OA
BRANCH   8  10
ATOM     10  C   UNL     1       3.454   0.695   0.194  0.00  0.00    +0.017 A 
ATOM     11  C   UNL     1       4.196  -0.477   0.359  0.00  0.00    +0.012 A 
ATOM     12  C   UNL     1       5.541  -0.486   0.054  0.00  0.00    +0.016 A 
ATOM     13  C   UNL     1       6.159   0.665  -0.405  0.00  0.00    +0.018 A 
ATOM     14  C   UNL     1       5.430   1.832  -0.566  0.00  0.00    +0.016 A 
ATOM     15  C   UNL     1       4.083   1.853  -0.270  0.00  0.00    +0.012 A 
ATOM     16 BR   UNL     1       8.005   0.645  -0.814  0.00  0.00    -0.050 Br
ENDBRANCH   8  10
ENDBRANCH   2   5
BRANCH   1  17
ATOM     17  C   UNL     1      -2.186   4.392   0.426  0.00  0.00    +0.141 C 
ATOM     18  S   UNL     1      -3.704   3.781   0.929  0.00  0.00    -0.018 S 
BRANCH  17  19
ATOM     19  N   UNL     1      -2.071   5.679   0.043  0.00  0.00    -0.296 N 
ATOM     20  H   UNL     1      -1.198   6.046  -0.166  0.00  0.00    +0.154 HD
BRANCH  19  27
ATOM     21  C   UNL     1      -1.942   8.317   1.100  0.00  0.00    +0.046 C 
ATOM     22  C   UNL     1      -3.191   7.779   0.450  0.00  0.00    -0.027 A 
ATOM     23  C   UNL     1      -4.317   8.573   0.355  0.00  0.00    +0.039 A 
ATOM     24  C   UNL     1      -5.463   8.081  -0.240  0.00  0.00    +0.145 A 
ATOM     25  C   UNL     1      -5.487   6.791  -0.743  0.00  0.00    +0.073 A 
ATOM     26  C   UNL     1      -4.361   5.994  -0.656  0.00  0.00    +0.045 A 
ATOM     27  C   UNL     1      -3.210   6.485  -0.052  0.00  0.00    +0.037 A 
ATOM     28 CL   UNL     1      -6.928   6.177  -1.490  0.00  0.00    -0.081 Cl
BRANCH  24  29
ATOM     29  N   UNL     1      -6.669   8.934  -0.340  0.00  0.00    +0.058 N 
ATOM     30  O   UNL     1      -6.650  10.069   0.102  0.00  0.00    -0.126 OA
ATOM     31  O   UNL     1      -7.679   8.502  -0.864  0.00  0.00    -0.126 OA
ENDBRANCH  24  29
ENDBRANCH  19  27
ENDBRANCH  17  19
ENDBRANCH   1  17
TORSDOF 6
