REMARK  Name = ZINC46892409
REMARK  5 active torsions:
REMARK  status: ('A' for Active; 'I' for Inactive)
REMARK    1  A    between atoms: C_1  and  C_2
REMARK    2  A    between atoms: C_7  and  C_10
REMARK    3  A    between atoms: C_14  and  C_17
REMARK    4  A    between atoms: C_17  and  N_18
REMARK    5  A    between atoms: C_19  and  C_21
REMARK                            x       y       z     vdW  Elec       q    Type
REMARK                         _______ _______ _______ _____ _____    ______ ____
ROOT
ATOM      1  N   UNL     1      -3.369  -5.796  -4.369  0.00  0.00    -0.310 N 
ATOM      2  C   UNL     1      -3.827  -6.645  -5.310  0.00  0.00    +0.225 C 
ATOM      3  O   UNL     1      -4.914  -7.167  -5.179  0.00  0.00    -0.275 OA
ATOM      4  H   UNL     1      -2.500  -5.378  -4.474  0.00  0.00    +0.149 HD
ENDROOT
BRANCH   2   5
ATOM      5  C   UNL     1      -2.989  -6.946  -6.526  0.00  0.00    +0.142 C 
ATOM      6  C   UNL     1      -2.707  -5.666  -7.265  0.00  0.00    +0.011 A 
ATOM      7  C   UNL     1      -1.733  -4.807  -6.788  0.00  0.00    +0.008 A 
ATOM      8  C   UNL     1      -1.460  -3.627  -7.454  0.00  0.00    +0.001 A 
ATOM      9  C   UNL     1      -2.160  -3.301  -8.601  0.00  0.00    +0.004 A 
ATOM     10  C   UNL     1      -3.133  -4.155  -9.081  0.00  0.00    +0.046 A 
ATOM     11  C   UNL     1      -3.410  -5.342  -8.414  0.00  0.00    +0.133 A 
ATOM     12  O   UNL     1      -4.368  -6.168  -8.901  0.00  0.00    -0.455 OA
ATOM     13  C   UNL     1      -4.377  -7.476  -8.552  0.00  0.00    +0.133 A 
ATOM     14  C   UNL     1      -3.725  -7.915  -7.411  0.00  0.00    +0.011 A 
ATOM     15  C   UNL     1      -3.749  -9.257  -7.076  0.00  0.00    +0.008 A 
ATOM     16  C   UNL     1      -4.419 -10.162  -7.876  0.00  0.00    +0.001 A 
ATOM     17  C   UNL     1      -5.070  -9.728  -9.016  0.00  0.00    +0.004 A 
ATOM     18  C   UNL     1      -5.051  -8.389  -9.355  0.00  0.00    +0.046 A 
ENDBRANCH   2   5
BRANCH   1  19
ATOM     19  C   UNL     1      -4.185  -5.503  -3.188  0.00  0.00    +0.141 C 
BRANCH  19  31
ATOM     20  C   UNL     1       0.024   1.508  -0.007  0.00  0.00    +0.039 C 
ATOM     21  C   UNL     1       0.027  -0.022  -0.001  0.00  0.00    +0.133 C 
ATOM     22  C   UNL     1      -1.417  -0.537   0.001  0.00  0.00    +0.137 C 
ATOM     23  N   UNL     1      -1.389  -1.995   0.196  0.00  0.00    -0.312 N 
ATOM     24  C   UNL     1      -0.598  -2.529   1.316  0.00  0.00    +0.137 C 
ATOM     25  C   UNL     1       0.806  -1.917   1.250  0.00  0.00    +0.133 C 
ATOM     26  O   UNL     1       0.698  -0.493   1.171  0.00  0.00    -0.371 OA
ATOM     27  C   UNL     1       1.591  -2.301   2.506  0.00  0.00    +0.039 C 
ATOM     28  C   UNL     1      -2.091  -2.844  -0.652  0.00  0.00    +0.099 A 
ATOM     29  C   UNL     1      -2.927  -2.308  -1.627  0.00  0.00    +0.042 A 
ATOM     30  C   UNL     1      -3.619  -3.164  -2.464  0.00  0.00    +0.010 A 
ATOM     31  C   UNL     1      -3.451  -4.533  -2.299  0.00  0.00    -0.014 A 
ATOM     32  C   UNL     1      -2.604  -4.995  -1.311  0.00  0.00    +0.089 A 
ATOM     33  N   UNL     1      -1.953  -4.155  -0.530  0.00  0.00    -0.349 N 
ATOM     34  H   UNL     1      -1.361  -4.507   0.154  0.00  0.00    +0.167 HD
ENDBRANCH  19  31
ENDBRANCH   1  19
TORSDOF 3
