REMARK  Name = ZINC32105400
REMARK  3 active torsions:
REMARK  status: ('A' for Active; 'I' for Inactive)
REMARK    1  A    between atoms: C_1  and  C_2
REMARK    2  A    between atoms: C_5  and  S_8
REMARK    3  A    between atoms: S_8  and  N_11
REMARK                            x       y       z     vdW  Elec       q    Type
REMARK                         _______ _______ _______ _____ _____    ______ ____
ROOT
ATOM      1  N   UNL     1       4.477   9.626   0.013  0.00  0.00    -0.256 N 
ATOM      2  C   UNL     1       3.202  10.155   0.183  0.00  0.00    +0.069 C 
ATOM      3  C   UNL     1       3.019  11.530   0.246  0.00  0.00    +0.027 C 
ATOM      4  C   UNL     1       1.753  12.052   0.414  0.00  0.00    +0.002 C 
ATOM      5  C   UNL     1       0.656  11.212   0.521  0.00  0.00    +0.001 C 
ATOM      6  C   UNL     1       0.817   9.845   0.454  0.00  0.00    +0.015 C 
ATOM      7  C   UNL     1       2.093   9.301   0.290  0.00  0.00    +0.057 C 
ATOM      8  C   UNL     1       2.273   7.840   0.225  0.00  0.00    +0.204 C 
ATOM      9  N   UNL     1       1.210   7.089   0.330  0.00  0.00    -0.284 N 
ATOM     10  C   UNL     1       1.295   5.734   0.278  0.00  0.00    +0.048 A 
ATOM     11  C   UNL     1       0.173   4.931   0.389  0.00  0.00    +0.032 A 
ATOM     12  C   UNL     1       0.313   3.539   0.330  0.00  0.00    -0.016 A 
ATOM     13  C   UNL     1      -0.806   2.690   0.440  0.00  0.00    +0.008 A 
ATOM     14  C   UNL     1      -0.636   1.343   0.374  0.00  0.00    +0.001 A 
ATOM     15  C   UNL     1       0.625   0.773   0.210  0.00  0.00    +0.001 A 
ATOM     16  C   UNL     1       1.744   1.536   0.098  0.00  0.00    +0.008 A 
ATOM     17  C   UNL     1       1.637   2.939   0.153  0.00  0.00    -0.017 A 
ATOM     18  C   UNL     1       2.768   3.758   0.041  0.00  0.00    +0.025 A 
ATOM     19  C   UNL     1       2.620   5.129   0.101  0.00  0.00    +0.081 A 
ATOM     20  C   UNL     1       3.771   6.042  -0.010  0.00  0.00    +0.347 C 
ATOM     21  O   UNL     1       4.902   5.620  -0.158  0.00  0.00    -0.244 OA
ATOM     22  O   UNL     1       3.520   7.368   0.061  0.00  0.00    -0.407 OA
ATOM     23  H   UNL     1       4.620   8.719  -0.592  0.00  0.00    +0.188 HD
ATOM     24  H   UNL     1       0.221   7.551   0.462  0.00  0.00    +0.155 HD
ENDROOT
BRANCH   1  25
ATOM     25  S   UNL     1       5.780  10.363   0.722  0.00  0.00    +0.078 S 
ATOM     26  O   UNL     1       6.905   9.534   0.464  0.00  0.00    -0.148 OA
ATOM     27  O   UNL     1       5.734  11.729   0.334  0.00  0.00    -0.148 OA
BRANCH  25  32
ATOM     28  C   UNL     1       4.876  10.234   6.686  0.00  0.00    +0.044 C 
ATOM     29  C   UNL     1       5.102  10.266   5.197  0.00  0.00    -0.050 A 
ATOM     30  C   UNL     1       5.767   9.226   4.576  0.00  0.00    +0.005 A 
ATOM     31  C   UNL     1       5.974   9.255   3.209  0.00  0.00    +0.029 A 
ATOM     32  C   UNL     1       5.516  10.325   2.464  0.00  0.00    +0.110 A 
ATOM     33  C   UNL     1       4.854  11.368   3.085  0.00  0.00    +0.029 A 
ATOM     34  C   UNL     1       4.643  11.336   4.451  0.00  0.00    +0.005 A 
ENDBRANCH  25  32
ENDBRANCH   1  25
TORSDOF 2
