REMARK  Name = ZINC08718759
REMARK  12 active torsions:
REMARK  status: ('A' for Active; 'I' for Inactive)
REMARK    1  A    between atoms: C_1  and  C_2
REMARK    2  A    between atoms: C_4  and  C_11
REMARK    3  A    between atoms: C_5  and  C_10
REMARK    4  A    between atoms: N_6  and  C_7
REMARK    5  A    between atoms: N_12  and  C_13
REMARK    6  A    between atoms: C_13  and  C_14
REMARK    7  A    between atoms: C_14  and  C_16
REMARK    8  A    between atoms: C_14  and  C_26
REMARK    9  A    between atoms: C_20  and  O_24
REMARK   10  A    between atoms: C_21  and  O_22
REMARK   11  A    between atoms: O_22  and  C_23
REMARK   12  A    between atoms: O_24  and  C_25
REMARK                            x       y       z     vdW  Elec       q    Type
REMARK                         _______ _______ _______ _____ _____    ______ ____
ROOT
ATOM      1  C   UNL     1       1.822  -6.388  -1.263  0.00  0.00    +0.074 C 
ENDROOT
BRANCH   1   2
ATOM      2  C   UNL     1       2.014  -7.682  -2.012  0.00  0.00    -0.013 A 
ATOM      3  C   UNL     1       2.135  -9.019  -1.425  0.00  0.00    +0.003 A 
ATOM      4  C   UNL     1       2.116  -9.510  -0.118  0.00  0.00    +0.010 A 
ATOM      5  C   UNL     1       2.258 -10.851   0.104  0.00  0.00    +0.001 A 
ATOM      6  C   UNL     1       2.420 -11.729  -0.959  0.00  0.00    +0.002 A 
ATOM      7  C   UNL     1       2.441 -11.265  -2.256  0.00  0.00    +0.026 A 
ATOM      8  C   UNL     1       2.298  -9.904  -2.506  0.00  0.00    +0.047 A 
ATOM      9  N   UNL     1       2.277  -9.149  -3.657  0.00  0.00    -0.360 N 
ATOM     10  C   UNL     1       2.101  -7.829  -3.343  0.00  0.00    +0.088 A 
ATOM     11  H   UNL     1       2.369  -9.501  -4.556  0.00  0.00    +0.165 HD
ENDBRANCH   1   2
BRANCH   1  12
ATOM     12  C   UNL     1       2.972  -5.461  -1.559  0.00  0.00    +0.007 A 
ATOM     13  C   UNL     1       3.218  -5.056  -2.858  0.00  0.00    +0.008 A 
ATOM     14  C   UNL     1       4.272  -4.206  -3.133  0.00  0.00    +0.004 A 
ATOM     15  C   UNL     1       5.087  -3.757  -2.110  0.00  0.00    +0.049 A 
ATOM     16  C   UNL     1       4.846  -4.158  -0.806  0.00  0.00    +0.162 A 
ATOM     17  C   UNL     1       3.781  -5.010  -0.528  0.00  0.00    +0.165 A 
BRANCH  17  18
ATOM     18  O   UNL     1       3.537  -5.402   0.751  0.00  0.00    -0.491 OA
ATOM     19  C   UNL     1       4.188  -6.593   1.199  0.00  0.00    +0.277 C 
ENDBRANCH  17  18
BRANCH  16  20
ATOM     20  O   UNL     1       5.646  -3.717   0.201  0.00  0.00    -0.491 OA
ATOM     21  C   UNL     1       6.717  -2.841  -0.157  0.00  0.00    +0.277 C 
ENDBRANCH  16  20
ENDBRANCH   1  12
BRANCH   1  22
ATOM     22  C   UNL     1       0.512  -5.733  -1.705  0.00  0.00    +0.125 C 
BRANCH  22  24
ATOM     23  C   UNL     1       0.264  -3.368  -1.448  0.00  0.00    +0.088 C 
ATOM     24  N   UNL     1       0.265  -4.538  -0.893  0.00  0.00    -0.389 N 
ATOM     25  H   UNL     1       0.103  -4.624   0.059  0.00  0.00    +0.159 HD
BRANCH  23  29
ATOM     26  C   UNL     1      -0.132  -0.245   2.567  0.00  0.00    +0.063 C 
ATOM     27  C   UNL     1      -0.046  -0.798   1.168  0.00  0.00    +0.017 A 
ATOM     28  C   UNL     1       0.088  -2.098   0.847  0.00  0.00    +0.032 A 
ATOM     29  C   UNL     1       0.128  -2.160  -0.617  0.00  0.00    +0.011 A 
ATOM     30  C   UNL     1       0.013  -0.870  -1.056  0.00  0.00    +0.025 A 
ATOM     31  N   UNL     1      -0.096  -0.063   0.020  0.00  0.00    -0.345 N 
ATOM     32  C   UNL     1       0.003  -0.425  -2.496  0.00  0.00    +0.064 C 
BRANCH  31  33
ATOM     33  C   UNL     1      -0.243   1.393  -0.037  0.00  0.00    +0.087 C 
ATOM     34  C   UNL     1      -1.338   2.026   0.824  0.00  0.00    +0.027 C 
ATOM     35  C   UNL     1      -1.507   1.950  -0.695  0.00  0.00    +0.027 C 
ENDBRANCH  31  33
ENDBRANCH  23  29
ENDBRANCH  22  24
ENDBRANCH   1  22
TORSDOF 8
