REMARK  Name = ZINC01212116
REMARK  8 active torsions:
REMARK  status: ('A' for Active; 'I' for Inactive)
REMARK    1  A    between atoms: C_1  and  O_2
REMARK    2  A    between atoms: O_2  and  C_3
REMARK    3  A    between atoms: C_5  and  N_28
REMARK    4  A    between atoms: C_8  and  C_9
REMARK    5  A    between atoms: C_12  and  C_14
REMARK    6  A    between atoms: C_15  and  C_16
REMARK    7  A    between atoms: C_15  and  C_18
REMARK    8  A    between atoms: N_20  and  C_21
REMARK                            x       y       z     vdW  Elec       q    Type
REMARK                         _______ _______ _______ _____ _____    ______ ____
ROOT
ATOM      1  C   UNL     1       1.246   1.810   0.028  0.00  0.00    +0.139 A 
ATOM      2  C   UNL     1       2.110   0.734   0.007  0.00  0.00    +0.050 A 
ATOM      3  C   UNL     1       1.327  -0.418  -0.002  0.00  0.00    +0.050 A 
ATOM      4  C   UNL     1       0.002  -0.004   0.014  0.00  0.00    +0.130 A 
ATOM      5  O   UNL     1      -0.016   1.347   0.032  0.00  0.00    -0.455 OA
ENDROOT
BRANCH   1  11
ATOM      6  C   UNL     1       1.071   4.130  -0.870  0.00  0.00    +0.133 A 
ATOM      7  C   UNL     1       1.449   5.463  -0.847  0.00  0.00    +0.079 A 
ATOM      8  C   UNL     1       2.383   5.902   0.071  0.00  0.00    +0.130 A 
ATOM      9  C   UNL     1       2.948   5.017   0.975  0.00  0.00    +0.033 A 
ATOM     10  C   UNL     1       2.580   3.689   0.970  0.00  0.00    +0.017 A 
ATOM     11  C   UNL     1       1.640   3.230   0.042  0.00  0.00    +0.059 A 
BRANCH   8  12
ATOM     12  N   UNL     1       2.783   7.328   0.090  0.00  0.00    +0.057 N 
ATOM     13  O   UNL     1       2.288   8.109  -0.702  0.00  0.00    -0.126 OA
ATOM     14  O   UNL     1       3.606   7.719   0.898  0.00  0.00    -0.126 OA
ENDBRANCH   8  12
BRANCH   6  16
ATOM     15  C   UNL     1      -0.383   4.671  -2.670  0.00  0.00    +0.277 C 
ATOM     16  O   UNL     1       0.153   3.697  -1.772  0.00  0.00    -0.494 OA
ENDBRANCH   6  16
ENDBRANCH   1  11
BRANCH   4  17
ATOM     17  C   UNL     1      -1.123  -0.842   0.012  0.00  0.00    +0.070 C 
ATOM     18  C   UNL     1      -2.398  -0.293   0.029  0.00  0.00    +0.117 C 
BRANCH  18  19
ATOM     19  C   UNL     1      -3.575  -1.169   0.027  0.00  0.00    +0.259 C 
ATOM     20  O   UNL     1      -3.433  -2.378   0.010  0.00  0.00    -0.269 OA
ATOM     21  N   UNL     1      -4.812  -0.636   0.044  0.00  0.00    -0.281 N 
ATOM     22  H   UNL     1      -4.926   0.323   0.125  0.00  0.00    +0.155 HD
BRANCH  21  23
ATOM     23  C   UNL     1      -5.933  -1.467  -0.056  0.00  0.00    +0.035 A 
ATOM     24  C   UNL     1      -7.064  -1.032  -0.735  0.00  0.00    +0.023 A 
ATOM     25  C   UNL     1      -8.167  -1.856  -0.836  0.00  0.00    +0.003 A 
ATOM     26  C   UNL     1      -8.151  -3.111  -0.254  0.00  0.00    +0.015 A 
ATOM     27  C   UNL     1      -7.028  -3.546   0.427  0.00  0.00    +0.020 A 
ATOM     28  C   UNL     1      -5.919  -2.727   0.528  0.00  0.00    +0.038 A 
ATOM     29 BR   UNL     1      -7.011  -5.261   1.222  0.00  0.00    -0.050 Br
ENDBRANCH  21  23
ENDBRANCH  18  19
BRANCH  18  30
ATOM     30  C   UNL     1      -2.566   1.129   0.050  0.00  0.00    +0.104 C 
ATOM     31  N   UNL     1      -2.698   2.257   0.065  0.00  0.00    -0.191 NA
ENDBRANCH  18  30
ENDBRANCH   4  17
TORSDOF 7
