REMARK  Name = ZINC35745785
REMARK  13 active torsions:
REMARK  status: ('A' for Active; 'I' for Inactive)
REMARK    1  A    between atoms: C_1  and  C_2
REMARK    2  A    between atoms: C_7  and  C_8
REMARK    3  A    between atoms: C_17  and  C_19
REMARK    4  A    between atoms: C_19  and  N_20
REMARK    5  A    between atoms: N_20  and  C_21
REMARK    6  A    between atoms: N_20  and  C_25
REMARK    7  A    between atoms: C_21  and  C_22
REMARK    8  A    between atoms: C_22  and  C_23
REMARK    9  A    between atoms: C_22  and  C_24
REMARK   10  A    between atoms: C_25  and  C_26
REMARK   11  A    between atoms: C_26  and  C_27
REMARK   12  A    between atoms: C_26  and  C_28
REMARK   13  A    between atoms: C_26  and  O_29
REMARK                            x       y       z     vdW  Elec       q    Type
REMARK                         _______ _______ _______ _____ _____    ______ ____
ROOT
ATOM      1  C   UNL     1      -0.324  -0.759   2.535  0.00  0.00    +0.004 A 
ATOM      2  C   UNL     1       0.612  -1.100   3.454  0.00  0.00    +0.056 A 
ATOM      3  S   UNL     1       0.312   0.042   4.790  0.00  0.00    -0.076 S 
ATOM      4  C   UNL     1      -1.048   0.941   4.090  0.00  0.00    +0.116 A 
ATOM      5  C   UNL     1      -1.235   0.338   2.835  0.00  0.00    +0.080 A 
ATOM      6  C   UNL     1      -2.291   0.883   2.037  0.00  0.00    +0.260 A 
ATOM      7  O   UNL     1      -2.533   0.424   0.934  0.00  0.00    -0.267 OA
ATOM      8  N   UNL     1      -3.013   1.909   2.523  0.00  0.00    -0.312 N 
ATOM      9  H   UNL     1      -3.730   2.283   1.987  0.00  0.00    +0.170 HD
ATOM     10  C   UNL     1      -2.758   2.433   3.750  0.00  0.00    +0.094 A 
ATOM     11  N   UNL     1      -1.807   1.952   4.505  0.00  0.00    -0.229 NA
ENDROOT
BRANCH   1  18
ATOM     12  C   UNL     1       0.244   0.633   0.063  0.00  0.00    +0.044 C 
ATOM     13  C   UNL     1      -0.143  -0.824   0.049  0.00  0.00    -0.043 A 
ATOM     14  C   UNL     1      -0.224  -1.506  -1.148  0.00  0.00    +0.004 A 
ATOM     15  C   UNL     1      -0.580  -2.843  -1.162  0.00  0.00    +0.000 A 
ATOM     16  C   UNL     1      -0.856  -3.503   0.022  0.00  0.00    +0.001 A 
ATOM     17  C   UNL     1      -0.779  -2.831   1.225  0.00  0.00    +0.009 A 
ATOM     18  C   UNL     1      -0.415  -1.485   1.246  0.00  0.00    -0.014 A 
ENDBRANCH   1  18
BRANCH  10  19
ATOM     19  C   UNL     1      -3.593   3.582   4.253  0.00  0.00    -0.003 C 
BRANCH  19  20
ATOM     20  N   UNL     1      -3.132   3.973   5.592  0.00  0.00    +0.386 N 
ATOM     21  H   UNL     1      -3.107   3.160   6.189  0.00  0.00    -0.081 HD
BRANCH  20  22
ATOM     22  C   UNL     1      -1.786   4.552   5.497  0.00  0.00    -0.075 C 
BRANCH  22  23
ATOM     23  C   UNL     1      -1.233   4.790   6.904  0.00  0.00    -0.034 C 
ATOM     24  C   UNL     1      -1.068   3.448   7.620  0.00  0.00    +0.005 C 
ATOM     25  C   UNL     1       0.126   5.486   6.806  0.00  0.00    +0.005 C 
ENDBRANCH  22  23
ENDBRANCH  20  22
BRANCH  20  26
ATOM     26  C   UNL     1      -4.055   4.967   6.157  0.00  0.00    -0.044 C 
BRANCH  26  27
ATOM     27  C   UNL     1      -5.199   4.250   6.876  0.00  0.00    +0.046 C 
ATOM     28  C   UNL     1      -6.186   5.284   7.421  0.00  0.00    +0.039 C 
ATOM     29  C   UNL     1      -5.920   3.326   5.893  0.00  0.00    +0.039 C 
BRANCH  27  30
ATOM     30  O   UNL     1      -4.673   3.478   7.957  0.00  0.00    -0.391 OA
ATOM     31  H   UNL     1      -5.333   2.936   8.411  0.00  0.00    +0.210 HD
ENDBRANCH  27  30
ENDBRANCH  26  27
ENDBRANCH  20  26
ENDBRANCH  19  20
ENDBRANCH  10  19
TORSDOF 8
