REMARK  Name = ZINC57327124
REMARK  3 active torsions:
REMARK  status: ('A' for Active; 'I' for Inactive)
REMARK    1  A    between atoms: C_3  and  C_8
REMARK    2  A    between atoms: C_12  and  N_17
REMARK    3  A    between atoms: C_19  and  C_24
REMARK                            x       y       z     vdW  Elec       q    Type
REMARK                         _______ _______ _______ _____ _____    ______ ____
ROOT
ATOM      1  C   UNL     1       3.656   2.162  -0.042  0.00  0.00    +0.228 A 
ATOM      2  N   UNL     1       4.848   1.623  -0.069  0.00  0.00    -0.209 NA
ATOM      3  C   UNL     1       5.777   2.614  -0.059  0.00  0.00    +0.112 A 
ATOM      4  C   UNL     1       7.173   2.626  -0.076  0.00  0.00    +0.055 A 
ATOM      5  C   UNL     1       7.848   3.833  -0.058  0.00  0.00    +0.039 A 
ATOM      6  C   UNL     1       7.140   5.032  -0.024  0.00  0.00    +0.027 A 
ATOM      7  C   UNL     1       5.762   5.030  -0.007  0.00  0.00    +0.050 A 
ATOM      8  C   UNL     1       5.071   3.828  -0.025  0.00  0.00    +0.156 A 
ATOM      9  O   UNL     1       3.757   3.505  -0.020  0.00  0.00    -0.435 OA
ENDROOT
BRANCH   1  12
ATOM     10  C   UNL     1      -0.017   1.379  -0.020  0.00  0.00    +0.002 A 
ATOM     11  C   UNL     1       1.167   2.089  -0.019  0.00  0.00    +0.013 A 
ATOM     12  C   UNL     1       2.385   1.408  -0.043  0.00  0.00    +0.038 A 
ATOM     13  C   UNL     1       2.398   0.013  -0.068  0.00  0.00    +0.033 A 
ATOM     14  C   UNL     1       1.207  -0.685  -0.069  0.00  0.00    +0.042 A 
ATOM     15  C   UNL     1       0.002  -0.003  -0.045  0.00  0.00    +0.020 A 
ATOM     16 CL   UNL     1       1.220  -2.421  -0.101  0.00  0.00    -0.084 Cl
ENDBRANCH   1  12
BRANCH   5  17
ATOM     17  N   UNL     1       9.248   3.849  -0.074  0.00  0.00    -0.271 N 
ATOM     18  C   UNL     1      10.061   5.068  -0.172  0.00  0.00    +0.127 C 
ATOM     19  C   UNL     1      11.479   4.655   0.280  0.00  0.00    +0.101 C 
ATOM     20  C   UNL     1      11.482   3.141  -0.036  0.00  0.00    +0.110 C 
ATOM     21  C   UNL     1      10.021   2.752   0.004  0.00  0.00    +0.221 C 
ATOM     22  O   UNL     1       9.606   1.616   0.091  0.00  0.00    -0.275 OA
BRANCH  19  23
ATOM     23  C   UNL     1      12.532   5.375  -0.522  0.00  0.00    +0.216 C 
ATOM     24  O   UNL     1      12.204   6.159  -1.388  0.00  0.00    -0.276 OA
ATOM     25  N   UNL     1      13.838   5.150  -0.277  0.00  0.00    -0.329 N 
ATOM     26  H   UNL     1      14.100   4.523   0.416  0.00  0.00    +0.145 HD
ATOM     27  H   UNL     1      14.516   5.614  -0.793  0.00  0.00    +0.145 HD
ENDBRANCH  19  23
ENDBRANCH   5  17
TORSDOF 3
