REMARK  Name = ZINC65801015
REMARK  3 active torsions:
REMARK  status: ('A' for Active; 'I' for Inactive)
REMARK    1  A    between atoms: C_9  and  N_12
REMARK    2  A    between atoms: N_15  and  C_16
REMARK    3  A    between atoms: C_16  and  C_17
REMARK                            x       y       z     vdW  Elec       q    Type
REMARK                         _______ _______ _______ _____ _____    ______ ____
ROOT
ATOM      1  N   UNL     1      -2.320  -2.866   0.008  0.00  0.00    -0.269 N 
ATOM      2  C   UNL     1      -2.275  -4.208  -0.102  0.00  0.00    +0.304 C 
ATOM      3  O   UNL     1      -1.202  -4.781  -0.116  0.00  0.00    -0.252 OA
ATOM      4  N   UNL     1      -3.417  -4.916  -0.196  0.00  0.00    -0.295 N 
ATOM      5  H   UNL     1      -3.175  -2.415   0.097  0.00  0.00    +0.156 HD
ATOM      6  H   UNL     1      -4.273  -4.459  -0.185  0.00  0.00    +0.151 HD
ENDROOT
BRANCH   1  15
ATOM      7  C   UNL     1       2.273  -2.219  -1.576  0.00  0.00    +0.018 A 
ATOM      8  C   UNL     1       3.391  -1.450  -1.543  0.00  0.00    +0.092 A 
ATOM      9  C   UNL     1       3.414  -0.280  -0.754  0.00  0.00    +0.337 A 
ATOM     10  O   UNL     1       4.423   0.402  -0.733  0.00  0.00    -0.245 OA
ATOM     11  O   UNL     1       2.353   0.101  -0.027  0.00  0.00    -0.422 OA
ATOM     12  C   UNL     1       1.210  -0.620  -0.015  0.00  0.00    +0.139 A 
ATOM     13  C   UNL     1       1.118  -1.797  -0.779  0.00  0.00    +0.019 A 
ATOM     14  C   UNL     1      -0.062  -2.546  -0.769  0.00  0.00    +0.035 A 
ATOM     15  C   UNL     1      -1.134  -2.121  -0.006  0.00  0.00    +0.036 A 
ATOM     16  C   UNL     1      -1.038  -0.954   0.749  0.00  0.00    +0.027 A 
ATOM     17  C   UNL     1       0.122  -0.209   0.745  0.00  0.00    +0.049 A 
ENDBRANCH   1  15
BRANCH   4  18
ATOM     18  C   UNL     1      -3.368  -6.375  -0.316  0.00  0.00    +0.148 C 
BRANCH  18  19
ATOM     19  C   UNL     1      -4.770  -6.920  -0.405  0.00  0.00    +0.008 A 
ATOM     20  C   UNL     1      -5.529  -7.147  -1.505  0.00  0.00    +0.028 A 
ATOM     21  C   UNL     1      -6.804  -7.658  -1.345  0.00  0.00    +0.025 A 
ATOM     22  C   UNL     1      -7.257  -7.917  -0.094  0.00  0.00    +0.060 A 
ATOM     23  S   UNL     1      -5.859  -7.441   0.910  0.00  0.00    -0.099 S 
ATOM     24 BR   UNL     1      -7.900  -7.990  -2.850  0.00  0.00    -0.050 Br
ENDBRANCH  18  19
ENDBRANCH   4  18
TORSDOF 3
