REMARK  Name = ZINC49741163
REMARK  4 active torsions:
REMARK  status: ('A' for Active; 'I' for Inactive)
REMARK    1  A    between atoms: C_6  and  C_7
REMARK    2  A    between atoms: C_7  and  S_8
REMARK    3  A    between atoms: S_8  and  N_11
REMARK    4  A    between atoms: N_11  and  C_12
REMARK                            x       y       z     vdW  Elec       q    Type
REMARK                         _______ _______ _______ _____ _____    ______ ____
ROOT
ATOM      1  C   UNL     1      -4.356  -1.131  -0.902  0.00  0.00    +0.048 A 
ATOM      2  C   UNL     1      -4.145  -0.216   0.122  0.00  0.00    +0.026 A 
ATOM      3  C   UNL     1      -5.206   0.481   0.660  0.00  0.00    +0.025 A 
ATOM      4  C   UNL     1      -6.498   0.274   0.181  0.00  0.00    +0.038 A 
ATOM      5  C   UNL     1      -6.700  -0.642  -0.846  0.00  0.00    -0.009 A 
ATOM      6  C   UNL     1      -5.642  -1.336  -1.388  0.00  0.00    +0.031 A 
ATOM      7  C   UNL     1      -8.177  -0.627  -1.129  0.00  0.00    +0.074 C 
ATOM      8  C   UNL     1      -8.796  -2.015  -0.914  0.00  0.00    +0.021 C 
ATOM      9  C   UNL     1      -9.895  -2.109  -2.003  0.00  0.00    +0.001 C 
ATOM     10  C   UNL     1      -9.246  -1.388  -3.212  0.00  0.00    +0.001 C 
ATOM     11  C   UNL     1      -8.460  -0.219  -2.578  0.00  0.00    +0.021 C 
ATOM     12  C   UNL     1      -8.748   0.375  -0.160  0.00  0.00    +0.228 C 
ATOM     13  O   UNL     1      -9.913   0.693  -0.050  0.00  0.00    -0.274 OA
ATOM     14  N   UNL     1      -7.715   0.851   0.560  0.00  0.00    -0.284 N 
ATOM     15  H   UNL     1      -7.804   1.515   1.261  0.00  0.00    +0.155 HD
ENDROOT
BRANCH   1  16
ATOM     16  N   UNL     1      -3.278  -1.837  -1.446  0.00  0.00    -0.220 N 
ATOM     17  H   UNL     1      -3.150  -2.773  -1.224  0.00  0.00    +0.173 HD
BRANCH  16  18
ATOM     18  S   UNL     1      -2.221  -1.077  -2.470  0.00  0.00    +0.047 S 
ATOM     19  O   UNL     1      -1.277  -2.078  -2.825  0.00  0.00    -0.155 OA
ATOM     20  O   UNL     1      -1.811   0.088  -1.767  0.00  0.00    -0.155 OA
BRANCH  18  21
ATOM     21  C   UNL     1      -3.219  -0.618  -3.913  0.00  0.00    +0.223 C 
BRANCH  21  27
ATOM     22  C   UNL     1      -1.655  -0.450  -5.861  0.00  0.00    +0.007 A 
ATOM     23  C   UNL     1      -0.884   0.289  -6.738  0.00  0.00    +0.020 A 
ATOM     24  C   UNL     1      -0.835   1.667  -6.624  0.00  0.00    +0.041 A 
ATOM     25  C   UNL     1      -1.558   2.304  -5.632  0.00  0.00    +0.020 A 
ATOM     26  C   UNL     1      -2.329   1.565  -4.755  0.00  0.00    +0.007 A 
ATOM     27  C   UNL     1      -2.377   0.188  -4.870  0.00  0.00    -0.025 A 
ATOM     28 CL   UNL     1       0.134   2.595  -7.726  0.00  0.00    -0.084 Cl
ENDBRANCH  21  27
ENDBRANCH  18  21
ENDBRANCH  16  18
ENDBRANCH   1  16
TORSDOF 4
