REMARK  Name = ZINC09434047
REMARK  2 active torsions:
REMARK  status: ('A' for Active; 'I' for Inactive)
REMARK    1  A    between atoms: C_9  and  C_11
REMARK    2  A    between atoms: N_21  and  C_22
REMARK                            x       y       z     vdW  Elec       q    Type
REMARK                         _______ _______ _______ _____ _____    ______ ____
ROOT
ATOM      1  C   UNL     1       3.745  -3.300  -0.054  0.00  0.00    +0.078 A 
ATOM      2  C   UNL     1       3.149  -4.541  -0.061  0.00  0.00    +0.028 A 
ATOM      3  C   UNL     1       4.028  -5.713  -0.077  0.00  0.00    +0.019 A 
ATOM      4  C   UNL     1       3.518  -6.987  -0.352  0.00  0.00    +0.026 A 
ATOM      5  C   UNL     1       4.366  -8.073  -0.362  0.00  0.00    +0.019 A 
ATOM      6  C   UNL     1       5.720  -7.908  -0.103  0.00  0.00    +0.019 A 
ATOM      7  C   UNL     1       6.236  -6.657   0.171  0.00  0.00    +0.048 A 
ATOM      8  C   UNL     1       5.400  -5.552   0.189  0.00  0.00    +0.137 A 
ATOM      9  O   UNL     1       5.891  -4.317   0.463  0.00  0.00    -0.439 OA
ATOM     10  C   UNL     1       5.221  -3.260  -0.069  0.00  0.00    +0.210 A 
ATOM     11  N   UNL     1       5.865  -2.231  -0.576  0.00  0.00    -0.325 N 
ATOM     12 BR   UNL     1       3.683  -9.797  -0.732  0.00  0.00    -0.050 Br
ATOM     13  H   UNL     1       5.370  -1.484  -0.948  0.00  0.00    +0.169 HD
ENDROOT
BRANCH   1  22
ATOM     14  C   UNL     1      -0.017   1.375   0.010  0.00  0.00    +0.002 A 
ATOM     15  C   UNL     1       1.170   2.095   0.002  0.00  0.00    +0.002 A 
ATOM     16  C   UNL     1       2.375   1.452  -0.013  0.00  0.00    +0.030 A 
ATOM     17  C   UNL     1       2.419   0.054  -0.021  0.00  0.00    +0.089 A 
ATOM     18  C   UNL     1       1.216  -0.676  -0.013  0.00  0.00    +0.066 A 
ATOM     19  C   UNL     1       0.002  -0.004   0.002  0.00  0.00    +0.028 A 
ATOM     20  N   UNL     1       1.574  -2.010  -0.024  0.00  0.00    -0.338 N 
ATOM     21  H   UNL     1       0.969  -2.768  -0.023  0.00  0.00    +0.167 HD
ATOM     22  C   UNL     1       2.943  -2.062  -0.038  0.00  0.00    +0.144 A 
ATOM     23  N   UNL     1       3.433  -0.845  -0.037  0.00  0.00    -0.228 NA
ENDBRANCH   1  22
BRANCH  11  24
ATOM     24  C   UNL     1       7.232  -2.215  -0.579  0.00  0.00    +0.045 A 
ATOM     25  C   UNL     1       7.941  -2.598   0.562  0.00  0.00    +0.026 A 
ATOM     26  C   UNL     1       9.320  -2.580   0.553  0.00  0.00    +0.005 A 
ATOM     27  C   UNL     1      10.003  -2.184  -0.583  0.00  0.00    +0.038 A 
ATOM     28  C   UNL     1       9.308  -1.802  -1.719  0.00  0.00    +0.125 A 
ATOM     29  C   UNL     1       7.926  -1.821  -1.725  0.00  0.00    +0.064 A 
ATOM     30  F   UNL     1       9.982  -1.415  -2.824  0.00  0.00    -0.205 F 
ENDBRANCH  11  24
TORSDOF 2
