REMARK  Name = ZINC39665797
REMARK  11 active torsions:
REMARK  status: ('A' for Active; 'I' for Inactive)
REMARK    1  A    between atoms: C_1  and  C_2
REMARK    2  A    between atoms: C_4  and  C_11
REMARK    3  A    between atoms: C_5  and  C_7
REMARK    4  A    between atoms: C_15  and  C_24
REMARK    5  A    between atoms: N_26  and  C_27
REMARK    6  A    between atoms: C_27  and  C_28
REMARK    7  A    between atoms: C_28  and  C_30
REMARK    8  A    between atoms: C_28  and  O_31
REMARK    9  A    between atoms: O_31  and  C_32
REMARK   10  A    between atoms: C_35  and  O_38
REMARK   11  A    between atoms: O_38  and  C_39
REMARK                            x       y       z     vdW  Elec       q    Type
REMARK                         _______ _______ _______ _____ _____    ______ ____
ROOT
ATOM      1  C   UNL     1      -1.325  -3.590  -0.129  0.00  0.00    +0.250 C 
ATOM      2  O   UNL     1      -0.780  -4.666  -0.279  0.00  0.00    -0.270 OA
ATOM      3  N   UNL     1      -2.665  -3.525  -0.003  0.00  0.00    -0.296 N 
ATOM      4  C   UNL     1      -3.514  -2.311   0.063  0.00  0.00    +0.121 C 
ATOM      5  C   UNL     1      -4.768  -2.666  -0.766  0.00  0.00    +0.100 C 
ATOM      6  C   UNL     1      -4.836  -4.202  -0.736  0.00  0.00    -0.004 C 
ATOM      7  C   UNL     1      -3.624  -4.651   0.093  0.00  0.00    +0.115 C 
ATOM      8  C   UNL     1      -6.131  -4.661  -0.073  0.00  0.00    -0.010 C 
ATOM      9  C   UNL     1      -6.203  -6.191  -0.108  0.00  0.00    -0.082 C 
ATOM     10  N   UNL     1      -6.152  -6.653  -1.500  0.00  0.00    +0.379 N 
ATOM     11  C   UNL     1      -4.864  -6.288  -2.103  0.00  0.00    -0.082 C 
ATOM     12  C   UNL     1      -4.736  -4.763  -2.152  0.00  0.00    -0.010 C 
ATOM     13  H   UNL     1      -6.261  -7.656  -1.524  0.00  0.00    -0.086 HD
ATOM     14  H   UNL     1      -6.900  -6.224  -2.024  0.00  0.00    -0.086 HD
ENDROOT
BRANCH   1  18
ATOM     15  C   UNL     1       0.255   1.166   0.828  0.00  0.00    +0.086 C 
ATOM     16  C   UNL     1       0.159  -0.258   0.346  0.00  0.00    +0.103 A 
ATOM     17  C   UNL     1      -0.871  -1.088   0.571  0.00  0.00    +0.058 A 
ATOM     18  C   UNL     1      -0.520  -2.356  -0.086  0.00  0.00    +0.087 A 
ATOM     19  C   UNL     1       0.706  -2.151  -0.647  0.00  0.00    +0.220 A 
ATOM     20  O   UNL     1       1.087  -0.898  -0.383  0.00  0.00    -0.455 OA
BRANCH  19  21
ATOM     21  C   UNL     1       1.495  -3.164  -1.437  0.00  0.00    +0.451 C 
ATOM     22  F   UNL     1       1.161  -3.062  -2.791  0.00  0.00    -0.163 F 
ATOM     23  F   UNL     1       2.863  -2.920  -1.274  0.00  0.00    -0.163 F 
ATOM     24  F   UNL     1       1.192  -4.451  -0.978  0.00  0.00    -0.163 F 
ENDBRANCH  19  21
ENDBRANCH   1  18
BRANCH   5  25
ATOM     25  C   UNL     1      -4.619  -2.172  -2.182  0.00  0.00    +0.218 C 
ATOM     26  O   UNL     1      -3.529  -2.177  -2.714  0.00  0.00    -0.275 OA
ATOM     27  N   UNL     1      -5.696  -1.724  -2.856  0.00  0.00    -0.312 N 
ATOM     28  H   UNL     1      -6.567  -1.720  -2.431  0.00  0.00    +0.149 HD
BRANCH  27  29
ATOM     29  C   UNL     1      -5.550  -1.244  -4.233  0.00  0.00    +0.148 C 
BRANCH  29  30
ATOM     30  C   UNL     1      -6.914  -0.796  -4.763  0.00  0.00    +0.187 C 
ATOM     31  C   UNL     1      -6.762  -0.295  -6.201  0.00  0.00    +0.053 C 
BRANCH  30  32
ATOM     32  O   UNL     1      -7.821  -1.900  -4.737  0.00  0.00    -0.488 OA
BRANCH  32  33
ATOM     33  C   UNL     1      -9.126  -1.621  -4.475  0.00  0.00    +0.121 A 
ATOM     34  C   UNL     1     -10.035  -2.655  -4.306  0.00  0.00    +0.049 A 
ATOM     35  C   UNL     1     -11.361  -2.371  -4.039  0.00  0.00    +0.049 A 
ATOM     36  C   UNL     1     -11.782  -1.053  -3.940  0.00  0.00    +0.120 A 
ATOM     37  C   UNL     1     -10.872  -0.020  -4.107  0.00  0.00    +0.049 A 
ATOM     38  C   UNL     1      -9.546  -0.304  -4.370  0.00  0.00    +0.049 A 
BRANCH  36  39
ATOM     39  O   UNL     1     -13.086  -0.774  -3.678  0.00  0.00    -0.495 OA
ATOM     40  C   UNL     1     -13.450   0.605  -3.589  0.00  0.00    +0.277 C 
ENDBRANCH  36  39
ENDBRANCH  32  33
ENDBRANCH  30  32
ENDBRANCH  29  30
ENDBRANCH  27  29
ENDBRANCH   5  25
TORSDOF 8
