REMARK  Name = ZINC14477385
REMARK  4 active torsions:
REMARK  status: ('A' for Active; 'I' for Inactive)
REMARK    1  A    between atoms: C_6  and  S_7
REMARK    2  A    between atoms: S_7  and  N_10
REMARK    3  A    between atoms: N_10  and  C_11
REMARK    4  A    between atoms: C_24  and  C_27
REMARK                            x       y       z     vdW  Elec       q    Type
REMARK                         _______ _______ _______ _____ _____    ______ ____
ROOT
ATOM      1  C   UNL     1       2.396   0.016  -0.051  0.00  0.00    +0.030 A 
ATOM      2  C   UNL     1       2.389   1.396  -0.037  0.00  0.00    +0.025 A 
ATOM      3  C   UNL     1       1.186   2.090   0.002  0.00  0.00    +0.031 A 
ATOM      4  C   UNL     1      -0.017   1.373   0.010  0.00  0.00    -0.018 A 
ATOM      5  C   UNL     1       0.002  -0.004   0.002  0.00  0.00    +0.034 A 
ATOM      6  C   UNL     1       1.205  -0.686  -0.029  0.00  0.00    +0.106 A 
ATOM      7  C   UNL     1      -1.274   2.151   0.004  0.00  0.00    +0.049 C 
ATOM      8  C   UNL     1      -2.565   1.623   0.541  0.00  0.00    -0.023 C 
ATOM      9  C   UNL     1      -3.272   2.627   1.044  0.00  0.00    -0.030 C 
ATOM     10  C   UNL     1      -2.498   3.939   0.894  0.00  0.00    +0.033 C 
ATOM     11  C   UNL     1      -1.048   3.438   0.851  0.00  0.00    +0.029 C 
ATOM     12  C   UNL     1      -0.052   4.272   0.065  0.00  0.00    +0.106 C 
ATOM     13  N   UNL     1       1.203   3.489   0.052  0.00  0.00    -0.336 N 
ATOM     14  H   UNL     1       2.054   3.954   0.080  0.00  0.00    +0.147 HD
ENDROOT
BRANCH  12  15
ATOM     15  C   UNL     1      -0.547   4.483  -1.343  0.00  0.00    -0.009 A 
ATOM     16  C   UNL     1      -0.191   3.595  -2.341  0.00  0.00    +0.008 A 
ATOM     17  C   UNL     1      -0.645   3.788  -3.632  0.00  0.00    +0.020 A 
ATOM     18  C   UNL     1      -1.457   4.870  -3.926  0.00  0.00    +0.042 A 
ATOM     19  C   UNL     1      -1.813   5.759  -2.928  0.00  0.00    +0.040 A 
ATOM     20  C   UNL     1      -1.362   5.562  -1.634  0.00  0.00    +0.047 A 
ATOM     21 CL   UNL     1      -1.814   6.673  -0.379  0.00  0.00    -0.083 Cl
ATOM     22 CL   UNL     1      -2.026   5.113  -5.548  0.00  0.00    -0.083 Cl
ENDBRANCH  12  15
BRANCH   6  23
ATOM     23  S   UNL     1       1.220  -2.448  -0.039  0.00  0.00    +0.059 S 
ATOM     24  O   UNL     1       2.480  -2.846   0.482  0.00  0.00    -0.153 OA
ATOM     25  O   UNL     1      -0.010  -2.867   0.537  0.00  0.00    -0.153 OA
BRANCH  23  26
ATOM     26  N   UNL     1       1.188  -2.928  -1.623  0.00  0.00    -0.187 NA
ATOM     27  H   UNL     1       0.423  -3.415  -1.967  0.00  0.00    +0.148 HD
BRANCH  26  28
ATOM     28  C   UNL     1       2.317  -2.618  -2.505  0.00  0.00    +0.077 C 
ATOM     29  C   UNL     1       2.025  -1.327  -3.272  0.00  0.00    +0.020 C 
ATOM     30  C   UNL     1       3.203  -1.003  -4.192  0.00  0.00    +0.002 C 
ATOM     31  C   UNL     1       3.405  -2.150  -5.184  0.00  0.00    +0.000 C 
ATOM     32  C   UNL     1       3.697  -3.442  -4.418  0.00  0.00    +0.002 C 
ATOM     33  C   UNL     1       2.519  -3.765  -3.497  0.00  0.00    +0.020 C 
ENDBRANCH  26  28
ENDBRANCH  23  26
ENDBRANCH   6  23
TORSDOF 4
