REMARK  Name = ZINC13408565
REMARK  13 active torsions:
REMARK  status: ('A' for Active; 'I' for Inactive)
REMARK    1  A    between atoms: C_1  and  C_2
REMARK    2  A    between atoms: C_2  and  O_3
REMARK    3  A    between atoms: O_3  and  C_4
REMARK    4  A    between atoms: C_4  and  C_6
REMARK    5  A    between atoms: C_6  and  C_7
REMARK    6  A    between atoms: C_6  and  C_8
REMARK    7  A    between atoms: C_6  and  C_9
REMARK    8  A    between atoms: C_9  and  O_41
REMARK    9  A    between atoms: C_12  and  C_40
REMARK   10  A    between atoms: C_24  and  C_39
REMARK   11  A    between atoms: C_29  and  O_31
REMARK   12  A    between atoms: O_31  and  C_32
REMARK   13  A    between atoms: C_32  and  C_33
REMARK                            x       y       z     vdW  Elec       q    Type
REMARK                         _______ _______ _______ _____ _____    ______ ____
ROOT
ATOM      1  C   UNL     1      -1.393  -2.116  -0.027  0.00  0.00    +0.082 C 
ATOM      2  C   UNL     1      -0.671  -2.599  -1.286  0.00  0.00    +0.036 C 
ATOM      3  C   UNL     1       0.761  -2.060  -1.292  0.00  0.00    +0.010 C 
ATOM      4  C   UNL     1       0.732  -0.531  -1.275  0.00  0.00    -0.026 C 
ATOM      5  C   UNL     1       0.007  -0.048  -0.017  0.00  0.00    -0.002 C 
ATOM      6  C   UNL     1      -1.424  -0.589  -0.011  0.00  0.00    +0.040 C 
ATOM      7  C   UNL     1      -0.024   1.481  -0.000  0.00  0.00    +0.004 C 
ATOM      8  C   UNL     1       1.407   2.022  -0.004  0.00  0.00    +0.004 C 
ATOM      9  C   UNL     1       2.128   1.544  -1.265  0.00  0.00    -0.004 C 
ATOM     10  C   UNL     1       2.163   0.007  -1.274  0.00  0.00    -0.001 C 
ATOM     11  C   UNL     1       2.923  -0.528  -2.483  0.00  0.00    +0.005 C 
ATOM     12  C   UNL     1       4.341   0.064  -2.560  0.00  0.00    +0.010 C 
ATOM     13  C   UNL     1       4.198   1.573  -2.609  0.00  0.00    -0.003 C 
ATOM     14  C   UNL     1       3.567   2.024  -1.264  0.00  0.00    +0.001 C 
ATOM     15  C   UNL     1       3.766   3.543  -1.323  0.00  0.00    +0.007 C 
ATOM     16  C   UNL     1       5.204   3.683  -1.894  0.00  0.00    +0.032 C 
ATOM     17  C   UNL     1       5.492   2.377  -2.677  0.00  0.00    +0.125 C 
ATOM     18  C   UNL     1       3.282   1.968  -3.769  0.00  0.00    +0.014 C 
ATOM     19  C   UNL     1      -0.005  -0.021  -2.516  0.00  0.00    +0.012 C 
ENDROOT
BRANCH   1  20
ATOM     20  C   UNL     1      -2.825  -2.656  -0.021  0.00  0.00    +0.091 C 
ATOM     21  C   UNL     1      -2.794  -4.186  -0.037  0.00  0.00    +0.025 C 
ATOM     22  C   UNL     1      -3.547  -2.173   1.238  0.00  0.00    +0.025 C 
BRANCH  20  23
ATOM     23  C   UNL     1      -3.555  -2.156  -1.242  0.00  0.00    +0.316 C 
ATOM     24  O   UNL     1      -2.988  -1.442  -2.034  0.00  0.00    -0.250 OA
BRANCH  23  25
ATOM     25  O   UNL     1      -4.835  -2.505  -1.448  0.00  0.00    -0.464 OA
BRANCH  25  27
ATOM     26  C   UNL     1      -6.919  -2.487  -2.707  0.00  0.00    +0.048 C 
ATOM     27  C   UNL     1      -5.474  -1.986  -2.644  0.00  0.00    +0.229 C 
ENDBRANCH  25  27
ENDBRANCH  23  25
ENDBRANCH  20  23
ENDBRANCH   1  20
BRANCH   1  28
ATOM     28  O   UNL     1      -0.701  -2.590   1.130  0.00  0.00    -0.387 OA
ATOM     29  H   UNL     1       0.215  -2.286   1.192  0.00  0.00    +0.210 HD
ENDBRANCH   1  28
BRANCH  17  30
ATOM     30  O   UNL     1       5.819   2.677  -4.035  0.00  0.00    -0.371 OA
BRANCH  30  31
ATOM     31  C   UNL     1       7.221   2.793  -4.284  0.00  0.00    +0.195 C 
BRANCH  31  32
ATOM     32  C   UNL     1       7.449   3.108  -5.740  0.00  0.00    -0.022 A 
ATOM     33  C   UNL     1       7.612   2.082  -6.652  0.00  0.00    +0.006 A 
ATOM     34  C   UNL     1       7.816   2.371  -7.988  0.00  0.00    +0.000 A 
ATOM     35  C   UNL     1       7.867   3.686  -8.411  0.00  0.00    +0.000 A 
ATOM     36  C   UNL     1       7.709   4.712  -7.498  0.00  0.00    +0.000 A 
ATOM     37  C   UNL     1       7.499   4.423  -6.163  0.00  0.00    +0.006 A 
ENDBRANCH  31  32
ENDBRANCH  30  31
ENDBRANCH  17  30
TORSDOF 8
