REMARK  Name = ZINC38734412
REMARK  14 active torsions:
REMARK  status: ('A' for Active; 'I' for Inactive)
REMARK    1  A    between atoms: C_1  and  C_2
REMARK    2  A    between atoms: C_2  and  O_3
REMARK    3  A    between atoms: O_3  and  C_4
REMARK    4  A    between atoms: C_4  and  C_6
REMARK    5  A    between atoms: C_8  and  C_40
REMARK    6  A    between atoms: N_11  and  C_15
REMARK    7  A    between atoms: C_12  and  C_14
REMARK    8  A    between atoms: C_18  and  C_21
REMARK    9  A    between atoms: N_23  and  C_24
REMARK   10  A    between atoms: C_24  and  C_26
REMARK   11  A    between atoms: C_24  and  C_36
REMARK   12  A    between atoms: C_26  and  C_27
REMARK   13  A    between atoms: C_36  and  O_38
REMARK   14  A    between atoms: O_38  and  C_39
REMARK                            x       y       z     vdW  Elec       q    Type
REMARK                         _______ _______ _______ _____ _____    ______ ____
ROOT
ATOM      1  C   UNL     1       0.869  -9.929  -5.048  0.00  0.00    +0.245 C 
ATOM      2  O   UNL     1       0.920 -10.754  -4.157  0.00  0.00    -0.270 OA
ATOM      3  N   UNL     1       0.726 -10.328  -6.328  0.00  0.00    -0.298 N 
ATOM      4  H   UNL     1       0.685  -9.670  -7.039  0.00  0.00    +0.150 HD
ENDROOT
BRANCH   1   8
ATOM      5  C   UNL     1       1.146  -5.792  -4.131  0.00  0.00    +0.045 A 
ATOM      6  C   UNL     1       1.204  -6.736  -3.109  0.00  0.00    +0.025 A 
ATOM      7  C   UNL     1       1.114  -8.077  -3.403  0.00  0.00    +0.015 A 
ATOM      8  C   UNL     1       0.965  -8.492  -4.730  0.00  0.00    +0.037 A 
ATOM      9  C   UNL     1       0.907  -7.542  -5.754  0.00  0.00    +0.015 A 
ATOM     10  C   UNL     1       0.992  -6.202  -5.453  0.00  0.00    +0.025 A 
BRANCH   5  14
ATOM     11  C   UNL     1       1.255  -2.333  -2.672  0.00  0.00    +0.137 C 
ATOM     12  C   UNL     1       0.796  -2.204  -4.150  0.00  0.00    +0.085 C 
ATOM     13  N   UNL     1       1.371  -3.433  -4.755  0.00  0.00    -0.236 NA
ATOM     14  N   UNL     1       1.237  -4.438  -3.831  0.00  0.00    -0.263 N 
ATOM     15  C   UNL     1       1.203  -3.868  -2.474  0.00  0.00    +0.103 C 
ATOM     16  C   UNL     1      -0.093  -4.267  -1.764  0.00  0.00    +0.030 C 
ATOM     17  C   UNL     1       1.383  -0.948  -4.797  0.00  0.00    +0.026 C 
ATOM     18  H   UNL     1       2.340  -3.296  -5.001  0.00  0.00    +0.145 HD
BRANCH  11  19
ATOM     19  C   UNL     1       0.295  -1.634  -1.744  0.00  0.00    +0.314 C 
ATOM     20  O   UNL     1      -0.837  -1.410  -2.102  0.00  0.00    -0.250 OA
BRANCH  19  21
ATOM     21  O   UNL     1       0.698  -1.261  -0.519  0.00  0.00    -0.465 OA
BRANCH  21  23
ATOM     22  C   UNL     1       0.373  -0.257   1.655  0.00  0.00    +0.048 C 
ATOM     23  C   UNL     1      -0.264  -0.603   0.308  0.00  0.00    +0.229 C 
ENDBRANCH  21  23
ENDBRANCH  19  21
ENDBRANCH  11  19
ENDBRANCH   5  14
ENDBRANCH   1   8
BRANCH   3  24
ATOM     24  C   UNL     1       0.630 -11.755  -6.644  0.00  0.00    +0.186 C 
BRANCH  24  25
ATOM     25  C   UNL     1       2.015 -12.335  -6.771  0.00  0.00    +0.328 C 
ATOM     26  O   UNL     1       2.983 -11.629  -6.613  0.00  0.00    -0.249 OA
BRANCH  25  27
ATOM     27  O   UNL     1       2.175 -13.636  -7.059  0.00  0.00    -0.467 OA
ATOM     28  C   UNL     1       3.516 -14.118  -7.164  0.00  0.00    +0.280 C 
ENDBRANCH  25  27
ENDBRANCH  24  25
BRANCH  24  29
ATOM     29  C   UNL     1      -0.121 -11.936  -7.965  0.00  0.00    +0.071 C 
BRANCH  29  30
ATOM     30  C   UNL     1      -1.544 -11.468  -7.801  0.00  0.00    -0.020 A 
ATOM     31  C   UNL     1      -2.030 -10.093  -7.937  0.00  0.00    +0.003 A 
ATOM     32  C   UNL     1      -1.420  -8.873  -8.232  0.00  0.00    +0.010 A 
ATOM     33  C   UNL     1      -2.173  -7.733  -8.287  0.00  0.00    +0.001 A 
ATOM     34  C   UNL     1      -3.540  -7.779  -8.051  0.00  0.00    +0.002 A 
ATOM     35  C   UNL     1      -4.162  -8.973  -7.758  0.00  0.00    +0.026 A 
ATOM     36  C   UNL     1      -3.416 -10.145  -7.697  0.00  0.00    +0.047 A 
ATOM     37  N   UNL     1      -3.734 -11.459  -7.437  0.00  0.00    -0.360 N 
ATOM     38  C   UNL     1      -2.608 -12.233  -7.509  0.00  0.00    +0.087 A 
ATOM     39  H   UNL     1      -4.624 -11.788  -7.236  0.00  0.00    +0.165 HD
ENDBRANCH  29  30
ENDBRANCH  24  29
ENDBRANCH   3  24
TORSDOF 10
