REMARK  Name = ZINC33626772
REMARK  13 active torsions:
REMARK  status: ('A' for Active; 'I' for Inactive)
REMARK    1  A    between atoms: C_1  and  C_2
REMARK    2  A    between atoms: C_2  and  C_3
REMARK    3  A    between atoms: C_2  and  C_4
REMARK    4  A    between atoms: C_14  and  C_40
REMARK    5  A    between atoms: C_18  and  C_19
REMARK    6  A    between atoms: C_18  and  C_20
REMARK    7  A    between atoms: C_20  and  N_21
REMARK    8  A    between atoms: C_22  and  C_24
REMARK    9  A    between atoms: C_27  and  C_29
REMARK   10  A    between atoms: C_29  and  C_31
REMARK   11  A    between atoms: C_29  and  N_39
REMARK   12  A    between atoms: C_31  and  C_32
REMARK   13  A    between atoms: C_35  and  O_38
REMARK                            x       y       z     vdW  Elec       q    Type
REMARK                         _______ _______ _______ _____ _____    ______ ____
ROOT
ATOM      1  N   UNL     1       1.401   1.492  -0.889  0.00  0.00    -0.309 N 
ATOM      2  C   UNL     1       0.295   0.733  -1.019  0.00  0.00    +0.266 C 
ATOM      3  O   UNL     1       0.349  -0.463  -0.802  0.00  0.00    -0.268 OA
ATOM      4  H   UNL     1       1.352   2.573  -1.085  0.00  0.00    +0.149 HD
ENDROOT
BRANCH   2   5
ATOM      5  C   UNL     1      -0.979   1.350  -1.429  0.00  0.00    +0.163 A 
ATOM      6  C   UNL     1      -2.167   0.710  -1.610  0.00  0.00    +0.230 A 
ATOM      7  O   UNL     1      -3.061   1.642  -1.977  0.00  0.00    -0.449 OA
ATOM      8  C   UNL     1      -2.436   2.826  -2.029  0.00  0.00    +0.182 A 
ATOM      9  N   UNL     1      -1.188   2.667  -1.703  0.00  0.00    -0.210 NA
BRANCH   8  10
ATOM     10  C   UNL     1      -3.079   4.136  -2.405  0.00  0.00    +0.017 C 
BRANCH  10  11
ATOM     11  N   UNL     1      -3.919   3.946  -3.594  0.00  0.00    +0.386 N 
ATOM     12  H   UNL     1      -4.388   4.902  -3.869  0.00  0.00    -0.089 HD
ATOM     13  H   UNL     1      -4.701   3.204  -3.376  0.00  0.00    -0.089 HD
ATOM     14  H   UNL     1      -3.298   3.590  -4.429  0.00  0.00    -0.089 HD
ENDBRANCH  10  11
BRANCH  10  15
ATOM     15  C   UNL     1      -3.943   4.632  -1.244  0.00  0.00    +0.028 C 
BRANCH  15  16
ATOM     16  C   UNL     1      -4.487   5.999  -1.570  0.00  0.00    -0.048 A 
ATOM     17  C   UNL     1      -3.775   7.129  -1.213  0.00  0.00    +0.007 A 
ATOM     18  C   UNL     1      -4.269   8.383  -1.516  0.00  0.00    +0.045 A 
ATOM     19  C   UNL     1      -5.485   8.508  -2.171  0.00  0.00    +0.117 A 
ATOM     20  C   UNL     1      -6.201   7.373  -2.523  0.00  0.00    +0.045 A 
ATOM     21  C   UNL     1      -5.700   6.121  -2.222  0.00  0.00    +0.007 A 
BRANCH  19  22
ATOM     22  O   UNL     1      -5.976   9.741  -2.465  0.00  0.00    -0.507 OA
ATOM     23  H   UNL     1      -6.941   9.839  -2.984  0.00  0.00    +0.292 HD
ENDBRANCH  19  22
ENDBRANCH  15  16
ENDBRANCH  10  15
ENDBRANCH   8  10
ENDBRANCH   2   5
BRANCH   1  24
ATOM     24  C   UNL     1       2.668   0.877  -0.487  0.00  0.00    +0.111 C 
BRANCH  24  38
ATOM     25  C   UNL     1       9.562   0.020   1.679  0.00  0.00    -0.045 A 
ATOM     26  C   UNL     1       8.830   0.427   2.779  0.00  0.00    +0.004 A 
ATOM     27  C   UNL     1       7.490   0.729   2.634  0.00  0.00    +0.005 A 
ATOM     28  C   UNL     1       6.880   0.627   1.395  0.00  0.00    -0.038 A 
ATOM     29  C   UNL     1       7.602   0.218   0.295  0.00  0.00    -0.043 A 
ATOM     30  C   UNL     1       8.952  -0.083   0.448  0.00  0.00    +0.007 A 
ATOM     31  C   UNL     1       7.017   0.075  -1.083  0.00  0.00    +0.036 C 
ATOM     32  C   UNL     1       5.494   0.220  -1.084  0.00  0.00    +0.009 C 
ATOM     33  C   UNL     1       5.127   1.373  -0.152  0.00  0.00    +0.007 C 
ATOM     34  C   UNL     1       5.409   0.969   1.283  0.00  0.00    -0.003 C 
ATOM     35  C   UNL     1       5.062   2.104   2.242  0.00  0.00    +0.011 C 
ATOM     36  C   UNL     1       3.599   2.508   2.047  0.00  0.00    +0.001 C 
ATOM     37  C   UNL     1       3.382   3.008   0.625  0.00  0.00    +0.008 C 
ATOM     38  C   UNL     1       3.755   1.949  -0.416  0.00  0.00    -0.013 C 
ATOM     39  C   UNL     1       3.784   2.667  -1.787  0.00  0.00    +0.013 C 
ATOM     40  C   UNL     1       4.635  -0.282   1.699  0.00  0.00    +0.016 C 
BRANCH  25  42
ATOM     41  C   UNL     1      11.778   0.920   2.337  0.00  0.00    +0.012 C 
ATOM     42  C   UNL     1      11.025  -0.311   1.827  0.00  0.00    +0.013 C 
ATOM     43  C   UNL     1      11.190  -1.458   2.826  0.00  0.00    +0.012 C 
ENDBRANCH  25  42
ENDBRANCH  24  38
ENDBRANCH   1  24
TORSDOF 9
