REMARK  Name = ZINC49548269
REMARK  7 active torsions:
REMARK  status: ('A' for Active; 'I' for Inactive)
REMARK    1  A    between atoms: C_1  and  C_2
REMARK    2  A    between atoms: C_2  and  C_3
REMARK    3  A    between atoms: C_3  and  C_4
REMARK    4  A    between atoms: C_7  and  N_10
REMARK    5  A    between atoms: N_10  and  S_11
REMARK    6  A    between atoms: S_11  and  C_14
REMARK    7  A    between atoms: N_20  and  N_21
REMARK                            x       y       z     vdW  Elec       q    Type
REMARK                         _______ _______ _______ _____ _____    ______ ____
ROOT
ATOM      1  S   UNL     1       4.740  -4.979  -2.275  0.00  0.00    +0.059 S 
ATOM      2  O   UNL     1       5.934  -4.210  -2.273  0.00  0.00    -0.153 OA
ATOM      3  O   UNL     1       4.661  -6.266  -1.679  0.00  0.00    -0.153 OA
ENDROOT
BRANCH   1   4
ATOM      4  C   UNL     1       4.271  -5.176  -3.962  0.00  0.00    +0.110 A 
ATOM      5  C   UNL     1       3.467  -6.238  -4.356  0.00  0.00    +0.048 A 
ATOM      6  C   UNL     1       3.117  -6.364  -5.685  0.00  0.00    +0.115 A 
ATOM      7  N   UNL     1       3.536  -5.490  -6.581  0.00  0.00    -0.239 NA
ATOM      8  C   UNL     1       4.304  -4.465  -6.245  0.00  0.00    +0.134 A 
ATOM      9  C   UNL     1       4.690  -4.274  -4.923  0.00  0.00    +0.073 A 
ATOM     10  N   UNL     1       4.723  -3.569  -7.222  0.00  0.00    -0.267 N 
ATOM     11  H   UNL     1       5.285  -2.817  -6.981  0.00  0.00    +0.167 HD
BRANCH  10  12
ATOM     12  N   UNL     1       4.342  -3.749  -8.522  0.00  0.00    -0.255 NA
ATOM     13  H   UNL     1       3.337  -3.792  -8.602  0.00  0.00    +0.140 HD
ATOM     14  H   UNL     1       4.721  -3.023  -9.113  0.00  0.00    +0.140 HD
ENDBRANCH  10  12
ENDBRANCH   1   4
BRANCH   1  15
ATOM     15  N   UNL     1       3.577  -4.049  -1.549  0.00  0.00    -0.187 NA
ATOM     16  H   UNL     1       3.802  -3.168  -1.211  0.00  0.00    +0.148 HD
BRANCH  15  20
ATOM     17  C   UNL     1       0.739  -2.027  -1.265  0.00  0.00    -0.011 C 
ATOM     18  C   UNL     1       1.584  -2.532  -0.094  0.00  0.00    +0.005 C 
ATOM     19  C   UNL     1       1.605  -4.062  -0.103  0.00  0.00    +0.020 C 
ATOM     20  C   UNL     1       2.209  -4.557  -1.419  0.00  0.00    +0.077 C 
ATOM     21  C   UNL     1       1.364  -4.052  -2.590  0.00  0.00    +0.020 C 
ATOM     22  C   UNL     1       1.343  -2.522  -2.581  0.00  0.00    +0.005 C 
BRANCH  17  23
ATOM     23  C   UNL     1       0.718  -0.497  -1.257  0.00  0.00    +0.003 C 
BRANCH  23  25
ATOM     24  C   UNL     1      -0.019   1.526   0.010  0.00  0.00    +0.004 C 
ATOM     25  C   UNL     1       0.002  -0.004   0.002  0.00  0.00    -0.003 C 
ENDBRANCH  23  25
ENDBRANCH  17  23
ENDBRANCH  15  20
ENDBRANCH   1  15
TORSDOF 6
