REMARK  Name = ZINC20883207
REMARK  11 active torsions:
REMARK  status: ('A' for Active; 'I' for Inactive)
REMARK    1  A    between atoms: C_1  and  C_2
REMARK    2  A    between atoms: C_2  and  O_3
REMARK    3  A    between atoms: O_3  and  C_4
REMARK    4  A    between atoms: C_7  and  C_10
REMARK    5  A    between atoms: C_15  and  C_25
REMARK    6  A    between atoms: C_28  and  O_34
REMARK    7  A    between atoms: C_29  and  O_31
REMARK    8  A    between atoms: O_31  and  C_32
REMARK    9  A    between atoms: C_32  and  C_33
REMARK   10  A    between atoms: O_34  and  C_35
REMARK   11  A    between atoms: C_35  and  C_37
REMARK                            x       y       z     vdW  Elec       q    Type
REMARK                         _______ _______ _______ _____ _____    ______ ____
ROOT
ATOM      1  C   UNL     1      -0.807   1.633  -1.274  0.00  0.00    +0.032 C 
ATOM      2  C   UNL     1      -2.252   1.147  -1.167  0.00  0.00    +0.059 C 
ATOM      3  C   UNL     1      -2.883   1.676   0.110  0.00  0.00    +0.017 C 
ATOM      4  C   UNL     1      -2.137   1.865   1.212  0.00  0.00    +0.036 C 
ATOM      5  C   UNL     1      -2.634   2.378   2.542  0.00  0.00    +0.136 C 
ATOM      6  N   UNL     1      -4.076   2.428   2.666  0.00  0.00    -0.331 N 
ATOM      7  C   UNL     1      -4.836   3.280   1.866  0.00  0.00    +0.049 A 
ATOM      8  C   UNL     1      -5.557   4.332   2.408  0.00  0.00    +0.025 A 
ATOM      9  C   UNL     1      -6.259   5.179   1.568  0.00  0.00    +0.002 A 
ATOM     10  C   UNL     1      -6.240   4.982   0.200  0.00  0.00    +0.002 A 
ATOM     11  C   UNL     1      -5.535   3.921  -0.344  0.00  0.00    +0.025 A 
ATOM     12  C   UNL     1      -4.851   3.061   0.497  0.00  0.00    +0.052 A 
ATOM     13  N   UNL     1      -4.217   1.914   0.030  0.00  0.00    -0.316 N 
ATOM     14  C   UNL     1      -0.745   1.589   1.190  0.00  0.00    +0.163 C 
ATOM     15  O   UNL     1      -0.096   1.745   2.205  0.00  0.00    -0.292 OA
ATOM     16  C   UNL     1      -0.048   1.111  -0.048  0.00  0.00    +0.088 C 
ATOM     17  H   UNL     1      -4.587   1.788   3.400  0.00  0.00    +0.147 HD
ATOM     18  H   UNL     1      -4.882   1.169  -0.432  0.00  0.00    +0.152 HD
ENDROOT
BRANCH   1  22
ATOM     19  C   UNL     1       0.977   0.104  -4.843  0.00  0.00    +0.121 A 
ATOM     20  C   UNL     1       0.911   1.473  -4.631  0.00  0.00    +0.046 A 
ATOM     21  C   UNL     1       0.333   1.965  -3.476  0.00  0.00    +0.007 A 
ATOM     22  C   UNL     1      -0.178   1.093  -2.532  0.00  0.00    -0.043 A 
ATOM     23  C   UNL     1      -0.108  -0.272  -2.739  0.00  0.00    +0.007 A 
ATOM     24  C   UNL     1       0.464  -0.768  -3.894  0.00  0.00    +0.046 A 
BRANCH  19  25
ATOM     25  O   UNL     1       1.545  -0.382  -5.978  0.00  0.00    -0.492 OA
BRANCH  25  27
ATOM     26  C   UNL     1       2.249  -2.158  -7.458  0.00  0.00    +0.048 C 
ATOM     27  C   UNL     1       1.579  -1.803  -6.130  0.00  0.00    +0.225 C 
ENDBRANCH  25  27
ENDBRANCH  19  25
ENDBRANCH   1  22
BRANCH   5  28
ATOM     28  C   UNL     1      -2.088   3.767   2.752  0.00  0.00    -0.019 A 
ATOM     29  C   UNL     1      -2.454   4.789   1.896  0.00  0.00    +0.009 A 
ATOM     30  C   UNL     1      -1.961   6.066   2.088  0.00  0.00    +0.050 A 
ATOM     31  C   UNL     1      -1.088   6.321   3.133  0.00  0.00    +0.173 A 
ATOM     32  C   UNL     1      -0.715   5.291   3.992  0.00  0.00    +0.163 A 
ATOM     33  C   UNL     1      -1.218   4.015   3.797  0.00  0.00    +0.055 A 
BRANCH  32  34
ATOM     34  O   UNL     1       0.141   5.537   5.019  0.00  0.00    -0.489 OA
BRANCH  34  35
ATOM     35  C   UNL     1       0.479   4.432   5.860  0.00  0.00    +0.226 C 
ATOM     36  C   UNL     1       1.445   4.899   6.951  0.00  0.00    +0.048 C 
ENDBRANCH  34  35
ENDBRANCH  32  34
BRANCH  31  37
ATOM     37  O   UNL     1      -0.597   7.576   3.321  0.00  0.00    -0.422 OA
BRANCH  37  38
ATOM     38  C   UNL     1       0.638   7.822   2.858  0.00  0.00    +0.309 C 
ATOM     39  O   UNL     1       1.228   6.975   2.230  0.00  0.00    -0.251 OA
ATOM     40  C   UNL     1       1.290   9.155   3.121  0.00  0.00    +0.136 C 
ENDBRANCH  37  38
ENDBRANCH  31  37
ENDBRANCH   5  28
TORSDOF 8
