REMARK  Name = ZINC38733159
REMARK  9 active torsions:
REMARK  status: ('A' for Active; 'I' for Inactive)
REMARK    1  A    between atoms: C_1  and  C_2
REMARK    2  A    between atoms: C_2  and  C_3
REMARK    3  A    between atoms: C_2  and  C_10
REMARK    4  A    between atoms: C_2  and  N_14
REMARK    5  A    between atoms: C_3  and  C_4
REMARK    6  A    between atoms: C_10  and  O_12
REMARK    7  A    between atoms: O_12  and  C_13
REMARK    8  A    between atoms: C_15  and  C_17
REMARK    9  A    between atoms: C_23  and  C_25
REMARK                            x       y       z     vdW  Elec       q    Type
REMARK                         _______ _______ _______ _____ _____    ______ ____
ROOT
ATOM      1  C   UNL     1      -3.612  -0.716  -0.956  0.00  0.00    +0.091 C 
ATOM      2  C   UNL     1      -3.588  -2.241  -1.084  0.00  0.00    +0.040 C 
ATOM      3  C   UNL     1      -3.171  -2.637  -2.470  0.00  0.00    -0.030 C 
ATOM      4  C   UNL     1      -3.184  -1.838  -3.487  0.00  0.00    -0.030 C 
ATOM      5  C   UNL     1      -3.609  -0.400  -3.422  0.00  0.00    +0.040 C 
ATOM      6  C   UNL     1      -4.404  -0.139  -2.136  0.00  0.00    +0.091 C 
ENDROOT
BRANCH   6   7
ATOM      7  C   UNL     1      -4.594   1.343  -1.941  0.00  0.00    +0.220 C 
ATOM      8  O   UNL     1      -3.821   2.126  -2.451  0.00  0.00    -0.275 OA
ATOM      9  N   UNL     1      -5.624   1.799  -1.200  0.00  0.00    -0.298 N 
ATOM     10  C   UNL     1      -6.496   0.864  -0.477  0.00  0.00    +0.126 C 
ATOM     11  C   UNL     1      -6.515   1.258   1.005  0.00  0.00    +0.125 C 
ATOM     12  N   UNL     1      -6.785   2.699   1.104  0.00  0.00    -0.314 N 
ATOM     13  C   UNL     1      -5.913   3.635   0.381  0.00  0.00    +0.125 C 
ATOM     14  C   UNL     1      -5.891   3.241  -1.097  0.00  0.00    +0.126 C 
ATOM     15  C   UNL     1      -7.847   3.169   1.869  0.00  0.00    +0.099 A 
ATOM     16  C   UNL     1      -8.734   2.265   2.446  0.00  0.00    +0.042 A 
ATOM     17  C   UNL     1      -9.786   2.747   3.204  0.00  0.00    +0.005 A 
ATOM     18  C   UNL     1      -9.917   4.121   3.360  0.00  0.00    +0.018 A 
ATOM     19  C   UNL     1      -9.000   4.959   2.758  0.00  0.00    +0.084 A 
ATOM     20  N   UNL     1      -8.002   4.472   2.045  0.00  0.00    -0.350 N 
ATOM     21  H   UNL     1      -7.370   5.083   1.637  0.00  0.00    +0.166 HD
ENDBRANCH   6   7
BRANCH   1  23
ATOM     22  N   UNL     1      -1.922   1.007  -0.416  0.00  0.00    -0.300 N 
ATOM     23  C   UNL     1      -2.203  -0.184  -0.982  0.00  0.00    +0.218 C 
ATOM     24  O   UNL     1      -1.321  -0.826  -1.512  0.00  0.00    -0.275 OA
ATOM     25  H   UNL     1      -2.627   1.521   0.008  0.00  0.00    +0.150 HD
BRANCH  22  27
ATOM     26  C   UNL     1      -0.095   1.688  -1.893  0.00  0.00    +0.044 C 
ATOM     27  C   UNL     1      -0.552   1.525  -0.442  0.00  0.00    +0.133 C 
BRANCH  27  28
ATOM     28  C   UNL     1       0.363   0.560   0.267  0.00  0.00    +0.331 C 
ATOM     29  O   UNL     1       1.495   0.402  -0.125  0.00  0.00    -0.248 OA
BRANCH  28  30
ATOM     30  O   UNL     1      -0.079  -0.124   1.334  0.00  0.00    -0.466 OA
ATOM     31  C   UNL     1       0.842  -1.021   1.957  0.00  0.00    +0.280 C 
ENDBRANCH  28  30
ENDBRANCH  27  28
BRANCH  27  32
ATOM     32  C   UNL     1      -0.506   2.882   0.263  0.00  0.00    +0.072 C 
BRANCH  32  33
ATOM     33  C   UNL     1       0.903   3.415   0.237  0.00  0.00    -0.045 A 
ATOM     34  C   UNL     1       1.777   3.107   1.262  0.00  0.00    +0.004 A 
ATOM     35  C   UNL     1       3.070   3.596   1.238  0.00  0.00    +0.000 A 
ATOM     36  C   UNL     1       3.489   4.392   0.189  0.00  0.00    +0.000 A 
ATOM     37  C   UNL     1       2.615   4.699  -0.837  0.00  0.00    +0.000 A 
ATOM     38  C   UNL     1       1.323   4.207  -0.815  0.00  0.00    +0.004 A 
ENDBRANCH  32  33
ENDBRANCH  27  32
ENDBRANCH  22  27
ENDBRANCH   1  23
TORSDOF 7
