REMARK  Name = ZINC05073103
REMARK  6 active torsions:
REMARK  status: ('A' for Active; 'I' for Inactive)
REMARK    1  A    between atoms: C_1  and  C_2
REMARK    2  A    between atoms: C_2  and  C_3
REMARK    3  A    between atoms: C_3  and  C_5
REMARK    4  A    between atoms: C_3  and  N_6
REMARK    5  A    between atoms: C_12  and  C_19
REMARK    6  A    between atoms: N_17  and  C_18
REMARK                            x       y       z     vdW  Elec       q    Type
REMARK                         _______ _______ _______ _____ _____    ______ ____
ROOT
ATOM      1  N   UNL     1      -0.016   1.341   0.009  0.00  0.00    -0.289 N 
ATOM      2  C   UNL     1       1.382   1.796  -0.002  0.00  0.00    +0.159 C 
ATOM      3  C   UNL     1       2.204   0.526  -0.016  0.00  0.00    +0.042 C 
ATOM      4  C   UNL     1       1.323  -0.495  -0.013  0.00  0.00    +0.058 C 
ATOM      5  C   UNL     1       0.002  -0.004   0.002  0.00  0.00    +0.247 C 
ATOM      6  O   UNL     1      -0.993  -0.706   0.008  0.00  0.00    -0.270 OA
ATOM      7  C   UNL     1       1.880  -1.905  -0.026  0.00  0.00    +0.144 C 
ATOM      8  N   UNL     1       3.346  -2.043  -0.041  0.00  0.00    -0.288 N 
ATOM      9  C   UNL     1       4.096  -0.923  -0.042  0.00  0.00    +0.307 C 
ATOM     10  O   UNL     1       5.307  -1.027  -0.054  0.00  0.00    -0.252 OA
ATOM     11  N   UNL     1       3.550   0.300  -0.030  0.00  0.00    -0.260 N 
ATOM     12  C   UNL     1       4.447   1.459  -0.032  0.00  0.00    +0.139 C 
ATOM     13  H   UNL     1       3.762  -2.919  -0.049  0.00  0.00    +0.151 HD
ENDROOT
BRANCH   7  14
ATOM     14  C   UNL     1       1.358  -2.622   1.192  0.00  0.00    +0.016 A 
ATOM     15  C   UNL     1       2.119  -2.667   2.346  0.00  0.00    +0.050 A 
ATOM     16  C   UNL     1       1.641  -3.325   3.465  0.00  0.00    +0.159 A 
ATOM     17  C   UNL     1       0.398  -3.939   3.430  0.00  0.00    +0.161 A 
ATOM     18  C   UNL     1      -0.363  -3.892   2.275  0.00  0.00    +0.080 A 
ATOM     19  C   UNL     1       0.115  -3.229   1.158  0.00  0.00    +0.132 A 
ATOM     20  F   UNL     1      -0.631  -3.178   0.032  0.00  0.00    -0.205 F 
ATOM     21  F   UNL     1      -0.070  -4.581   4.522  0.00  0.00    -0.202 F 
ATOM     22  F   UNL     1       2.385  -3.369   4.592  0.00  0.00    -0.202 F 
ENDBRANCH   7  14
BRANCH   1  23
ATOM     23  C   UNL     1      -1.207   2.194   0.020  0.00  0.00    +0.073 C 
ATOM     24  C   UNL     1      -2.035   1.898   1.272  0.00  0.00    +0.028 C 
BRANCH  23  26
ATOM     25  C   UNL     1      -1.266   2.324  -2.474  0.00  0.00    +0.005 C 
ATOM     26  C   UNL     1      -2.048   1.911  -1.226  0.00  0.00    +0.019 C 
ENDBRANCH  23  26
ENDBRANCH   1  23
TORSDOF 3
