REMARK  Name = ZINC02251226
REMARK  5 active torsions:
REMARK  status: ('A' for Active; 'I' for Inactive)
REMARK    1  A    between atoms: C_5  and  C_7
REMARK    2  A    between atoms: C_8  and  C_9
REMARK    3  A    between atoms: N_11  and  C_12
REMARK    4  A    between atoms: C_15  and  C_29
REMARK    5  A    between atoms: C_18  and  C_22
REMARK                            x       y       z     vdW  Elec       q    Type
REMARK                         _______ _______ _______ _____ _____    ______ ____
ROOT
ATOM      1  C   UNL     1      -0.975  -6.308  -0.025  0.00  0.00    +0.241 C 
ATOM      2  N   UNL     1       0.104  -7.048  -0.035  0.00  0.00    -0.140 NA
ATOM      3  N   UNL     1      -0.283  -8.389  -0.040  0.00  0.00    -0.180 N 
ATOM      4  C   UNL     1       0.466  -9.653  -0.052  0.00  0.00    +0.156 C 
ATOM      5  C   UNL     1      -0.359 -10.927  -0.055  0.00  0.00    +0.030 C 
ATOM      6  C   UNL     1      -1.700 -10.796  -0.047  0.00  0.00    +0.073 C 
ATOM      7  N   UNL     1      -2.295  -9.577  -0.037  0.00  0.00    -0.217 NA
ATOM      8  C   UNL     1      -1.647  -8.435  -0.033  0.00  0.00    +0.211 C 
ATOM      9  N   UNL     1      -2.084  -7.134  -0.018  0.00  0.00    -0.254 N 
ATOM     10  H   UNL     1      -3.009  -6.844  -0.008  0.00  0.00    +0.158 HD
ENDROOT
BRANCH   6  11
ATOM     11  C   UNL     1      -2.546 -12.015  -0.050  0.00  0.00    +0.000 A 
ATOM     12  C   UNL     1      -1.954 -13.277  -0.056  0.00  0.00    +0.011 A 
ATOM     13  C   UNL     1      -2.745 -14.407  -0.058  0.00  0.00    +0.020 A 
ATOM     14  C   UNL     1      -4.125 -14.290  -0.055  0.00  0.00    +0.041 A 
ATOM     15  C   UNL     1      -4.717 -13.038  -0.050  0.00  0.00    +0.020 A 
ATOM     16  C   UNL     1      -3.935 -11.902  -0.042  0.00  0.00    +0.011 A 
ATOM     17 CL   UNL     1      -5.114 -15.716  -0.059  0.00  0.00    -0.084 Cl
ENDBRANCH   6  11
BRANCH   4  18
ATOM     18  C   UNL     1       1.345  -9.664  -1.276  0.00  0.00    -0.021 A 
ATOM     19  C   UNL     1       0.868  -9.167  -2.474  0.00  0.00    +0.008 A 
ATOM     20  C   UNL     1       1.673  -9.176  -3.597  0.00  0.00    +0.038 A 
ATOM     21  C   UNL     1       2.960  -9.682  -3.521  0.00  0.00    +0.123 A 
ATOM     22  C   UNL     1       3.437 -10.179  -2.320  0.00  0.00    +0.038 A 
ATOM     23  C   UNL     1       2.631 -10.165  -1.198  0.00  0.00    +0.008 A 
ATOM     24  F   UNL     1       3.748  -9.692  -4.618  0.00  0.00    -0.205 F 
ENDBRANCH   4  18
BRANCH   1  27
ATOM     25  C   UNL     1       0.126  -4.270  -0.024  0.00  0.00    +0.273 C 
ATOM     26  O   UNL     1       1.311  -4.923  -0.040  0.00  0.00    -0.266 OA
ATOM     27  N   UNL     1      -1.002  -4.951  -0.017  0.00  0.00    -0.174 NA
BRANCH  25  29
ATOM     28  C   UNL     1       1.254  -2.154  -0.023  0.00  0.00    +0.015 C 
ATOM     29  C   UNL     1       0.098  -2.852  -0.015  0.00  0.00    +0.073 C 
BRANCH  28  34
ATOM     30  C   UNL     1      -0.017   1.374   0.010  0.00  0.00    +0.001 A 
ATOM     31  C   UNL     1       1.170   2.087   0.002  0.00  0.00    +0.001 A 
ATOM     32  C   UNL     1       2.384   1.424  -0.013  0.00  0.00    +0.020 A 
ATOM     33  C   UNL     1       2.421   0.044  -0.022  0.00  0.00    +0.048 A 
ATOM     34  C   UNL     1       1.225  -0.683  -0.014  0.00  0.00    -0.007 A 
ATOM     35  C   UNL     1       0.002  -0.004   0.002  0.00  0.00    +0.009 A 
ATOM     36 CL   UNL     1       3.945  -0.787  -0.043  0.00  0.00    -0.083 Cl
ENDBRANCH  28  34
ENDBRANCH  25  29
ENDBRANCH   1  27
TORSDOF 5
