REMARK  Name = ZINC28912450
REMARK  7 active torsions:
REMARK  status: ('A' for Active; 'I' for Inactive)
REMARK    1  A    between atoms: C_1  and  C_2
REMARK    2  A    between atoms: C_2  and  C_4
REMARK    3  A    between atoms: C_2  and  N_10
REMARK    4  A    between atoms: N_10  and  C_11
REMARK    5  A    between atoms: C_14  and  C_17
REMARK    6  A    between atoms: C_17  and  O_18
REMARK    7  A    between atoms: O_18  and  C_19
REMARK                            x       y       z     vdW  Elec       q    Type
REMARK                         _______ _______ _______ _____ _____    ______ ____
ROOT
ATOM      1  C   UNL     1      -1.756   3.733   0.594  0.00  0.00    +0.028 A 
ATOM      2  C   UNL     1      -2.736   3.030  -0.095  0.00  0.00    +0.023 A 
ATOM      3  C   UNL     1      -3.732   3.714  -0.763  0.00  0.00    +0.009 A 
ATOM      4  C   UNL     1      -3.749   5.097  -0.755  0.00  0.00    -0.010 A 
ATOM      5  C   UNL     1      -2.772   5.799  -0.073  0.00  0.00    +0.009 A 
ATOM      6  C   UNL     1      -1.776   5.122   0.601  0.00  0.00    +0.023 A 
ENDROOT
BRANCH   1   7
ATOM      7  N   UNL     1      -0.749   3.044   1.275  0.00  0.00    -0.333 N 
ATOM      8  H   UNL     1       0.029   3.602   1.817  0.00  0.00    +0.147 HD
BRANCH   7  10
ATOM      9  C   UNL     1      -0.013   1.086   0.008  0.00  0.00    +0.038 C 
ATOM     10  C   UNL     1      -0.729   1.579   1.267  0.00  0.00    +0.154 C 
BRANCH  10  11
ATOM     11  C   UNL     1       0.000   1.080   2.488  0.00  0.00    +0.240 C 
ATOM     12  O   UNL     1       0.458   1.870   3.286  0.00  0.00    -0.273 OA
ATOM     13  N   UNL     1       0.143  -0.244   2.692  0.00  0.00    -0.239 N 
ATOM     14  C   UNL     1       0.795  -0.691   3.784  0.00  0.00    +0.303 C 
ATOM     15  O   UNL     1       1.254   0.101   4.584  0.00  0.00    -0.253 OA
ATOM     16  N   UNL     1       0.938  -2.015   3.989  0.00  0.00    -0.313 N 
ATOM     17  H   UNL     1      -0.272  -0.961   1.968  0.00  0.00    +0.159 HD
ATOM     18  H   UNL     1       1.470  -2.380   4.880  0.00  0.00    +0.146 HD
ATOM     19  H   UNL     1       0.523  -2.732   3.265  0.00  0.00    +0.146 HD
ENDBRANCH  10  11
ENDBRANCH   7  10
ENDBRANCH   1   7
BRANCH   4  20
ATOM     20  C   UNL     1      -4.836   5.840  -1.489  0.00  0.00    +0.264 C 
BRANCH  20  21
ATOM     21  O   UNL     1      -4.417   6.091  -2.832  0.00  0.00    -0.487 OA
BRANCH  21  22
ATOM     22  C   UNL     1      -5.287   6.758  -3.635  0.00  0.00    +0.121 A 
ATOM     23  C   UNL     1      -6.521   7.156  -3.143  0.00  0.00    +0.047 A 
ATOM     24  C   UNL     1      -7.402   7.839  -3.959  0.00  0.00    +0.019 A 
ATOM     25  C   UNL     1      -7.059   8.115  -5.270  0.00  0.00    +0.018 A 
ATOM     26  C   UNL     1      -5.831   7.713  -5.765  0.00  0.00    +0.019 A 
ATOM     27  C   UNL     1      -4.945   7.036  -4.950  0.00  0.00    +0.047 A 
ATOM     28 BR   UNL     1      -8.270   9.043  -6.388  0.00  0.00    -0.050 Br
ENDBRANCH  21  22
ENDBRANCH  20  21
ENDBRANCH   4  20
TORSDOF 6
