REMARK  Name = ZINC12933910
REMARK  9 active torsions:
REMARK  status: ('A' for Active; 'I' for Inactive)
REMARK    1  A    between atoms: C_1  and  C_2
REMARK    2  A    between atoms: C_2  and  O_3
REMARK    3  A    between atoms: O_3  and  C_4
REMARK    4  A    between atoms: C_4  and  C_6
REMARK    5  A    between atoms: C_7  and  C_25
REMARK    6  A    between atoms: C_8  and  C_13
REMARK    7  A    between atoms: C_11  and  C_12
REMARK    8  A    between atoms: C_13  and  C_15
REMARK    9  A    between atoms: C_16  and  C_24
REMARK                            x       y       z     vdW  Elec       q    Type
REMARK                         _______ _______ _______ _____ _____    ______ ____
ROOT
ATOM      1  C   UNL     1       3.415   2.500  -0.017  0.00  0.00    +0.083 A 
ATOM      2  C   UNL     1       2.500   1.423  -0.009  0.00  0.00    -0.008 A 
ATOM      3  C   UNL     1       1.246   1.965   0.001  0.00  0.00    +0.094 A 
ATOM      4  N   UNL     1       1.368   3.337   0.007  0.00  0.00    -0.355 N 
ATOM      5  H   UNL     1       0.630   3.967   0.018  0.00  0.00    +0.166 HD
ATOM      6  C   UNL     1       2.670   3.666  -0.003  0.00  0.00    +0.028 A 
ATOM      7  C   UNL     1       3.226   5.067  -0.000  0.00  0.00    +0.064 C 
ATOM      8  C   UNL     1       2.842  -0.044  -0.012  0.00  0.00    +0.047 C 
ENDROOT
BRANCH   1   9
ATOM      9  C   UNL     1       4.884   2.400  -0.032  0.00  0.00    +0.341 C 
ATOM     10  O   UNL     1       5.500   2.353   1.015  0.00  0.00    -0.245 OA
BRANCH   9  11
ATOM     11  O   UNL     1       5.545   2.361  -1.205  0.00  0.00    -0.461 OA
BRANCH  11  13
ATOM     12  C   UNL     1       7.563   2.230  -2.562  0.00  0.00    +0.048 C 
ATOM     13  C   UNL     1       6.993   2.262  -1.143  0.00  0.00    +0.229 C 
ENDBRANCH  11  13
ENDBRANCH   9  11
ENDBRANCH   1   9
BRANCH   3  14
ATOM     14  C   UNL     1      -0.014   1.214   0.009  0.00  0.00    +0.244 C 
ATOM     15  O   UNL     1       0.002  -0.004   0.002  0.00  0.00    -0.282 OA
BRANCH  14  16
ATOM     16  C   UNL     1      -1.297   1.931   0.019  0.00  0.00    +0.181 A 
ATOM     17  C   UNL     1      -2.523   1.343   0.016  0.00  0.00    +0.006 A 
ATOM     18  C   UNL     1      -3.495   2.435   0.031  0.00  0.00    +0.024 A 
ATOM     19  C   UNL     1      -4.891   2.495   0.037  0.00  0.00    +0.012 A 
ATOM     20  C   UNL     1      -5.517   3.710   0.046  0.00  0.00    +0.001 A 
ATOM     21  C   UNL     1      -4.774   4.883   0.050  0.00  0.00    +0.004 A 
ATOM     22  C   UNL     1      -3.397   4.845   0.043  0.00  0.00    +0.047 A 
ATOM     23  C   UNL     1      -2.738   3.621   0.034  0.00  0.00    +0.136 A 
ATOM     24  O   UNL     1      -1.436   3.273   0.026  0.00  0.00    -0.451 OA
ATOM     25  C   UNL     1      -2.819  -0.134   0.003  0.00  0.00    +0.048 C 
ENDBRANCH  14  16
ENDBRANCH   3  14
TORSDOF 5
