REMARK  Name = ZINC03044286
REMARK  9 active torsions:
REMARK  status: ('A' for Active; 'I' for Inactive)
REMARK    1  A    between atoms: C_1  and  C_2
REMARK    2  A    between atoms: C_6  and  C_8
REMARK    3  A    between atoms: C_8  and  N_9
REMARK    4  A    between atoms: N_17  and  N_18
REMARK    5  A    between atoms: N_18  and  C_19
REMARK    6  A    between atoms: C_19  and  N_21
REMARK    7  A    between atoms: N_21  and  C_22
REMARK    8  A    between atoms: C_24  and  C_29
REMARK    9  A    between atoms: C_26  and  C_28
REMARK                            x       y       z     vdW  Elec       q    Type
REMARK                         _______ _______ _______ _____ _____    ______ ____
ROOT
ATOM      1  N   UNL     1       1.299  -3.140   3.190  0.00  0.00    -0.261 N 
ATOM      2  C   UNL     1       2.128  -3.982   2.456  0.00  0.00    +0.046 A 
ATOM      3  C   UNL     1       1.853  -4.907   1.455  0.00  0.00    +0.025 A 
ATOM      4  C   UNL     1       2.878  -5.628   0.877  0.00  0.00    +0.017 A 
ATOM      5  C   UNL     1       4.189  -5.442   1.285  0.00  0.00    +0.019 A 
ATOM      6  C   UNL     1       4.481  -4.527   2.278  0.00  0.00    +0.027 A 
ATOM      7  C   UNL     1       3.455  -3.796   2.866  0.00  0.00    +0.029 A 
ATOM      8  C   UNL     1       3.424  -2.764   3.928  0.00  0.00    +0.153 C 
ATOM      9  N   UNL     1       4.441  -2.277   4.599  0.00  0.00    -0.175 NA
ATOM     10  C   UNL     1       2.001  -2.399   4.064  0.00  0.00    +0.272 C 
ATOM     11  O   UNL     1       1.544  -1.574   4.833  0.00  0.00    -0.268 OA
ATOM     12 BR   UNL     1       5.580  -6.441   0.482  0.00  0.00    -0.050 Br
ENDROOT
BRANCH   9  13
ATOM     13  N   UNL     1       4.231  -1.298   5.578  0.00  0.00    -0.217 N 
ATOM     14  H   UNL     1       3.333  -0.979   5.760  0.00  0.00    +0.176 HD
BRANCH  13  15
ATOM     15  C   UNL     1       5.276  -0.798   6.266  0.00  0.00    +0.154 C 
ATOM     16  S   UNL     1       5.018   0.400   7.463  0.00  0.00    -0.017 S 
BRANCH  15  17
ATOM     17  N   UNL     1       6.523  -1.240   6.013  0.00  0.00    -0.296 N 
ATOM     18  H   UNL     1       6.663  -1.962   5.380  0.00  0.00    +0.154 HD
BRANCH  17  19
ATOM     19  C   UNL     1       7.617  -0.659   6.664  0.00  0.00    +0.033 A 
ATOM     20  C   UNL     1       7.567  -0.422   8.031  0.00  0.00    +0.026 A 
ATOM     21  C   UNL     1       8.649   0.152   8.671  0.00  0.00    -0.048 A 
ATOM     22  C   UNL     1       9.780   0.491   7.950  0.00  0.00    +0.006 A 
ATOM     23  C   UNL     1       9.832   0.256   6.589  0.00  0.00    -0.048 A 
ATOM     24  C   UNL     1       8.757  -0.323   5.944  0.00  0.00    +0.026 A 
ATOM     25  C   UNL     1      11.066   0.627   5.808  0.00  0.00    +0.044 C 
ATOM     26  C   UNL     1       8.596   0.410  10.154  0.00  0.00    +0.044 C 
ENDBRANCH  17  19
ENDBRANCH  15  17
ENDBRANCH  13  15
ENDBRANCH   9  13
BRANCH   1  27
ATOM     27  C   UNL     1      -0.155  -3.067   3.027  0.00  0.00    +0.149 C 
BRANCH  27  33
ATOM     28  C   UNL     1      -1.240   1.664   1.812  0.00  0.00    +0.044 C 
ATOM     29  C   UNL     1      -1.012   0.232   1.404  0.00  0.00    -0.050 A 
ATOM     30  C   UNL     1      -1.112  -0.133   0.074  0.00  0.00    +0.003 A 
ATOM     31  C   UNL     1      -0.903  -1.447  -0.299  0.00  0.00    +0.001 A 
ATOM     32  C   UNL     1      -0.594  -2.397   0.656  0.00  0.00    +0.005 A 
ATOM     33  C   UNL     1      -0.492  -2.032   1.986  0.00  0.00    -0.029 A 
ATOM     34  C   UNL     1      -0.697  -0.717   2.359  0.00  0.00    +0.008 A 
ENDBRANCH  27  33
ENDBRANCH   1  27
TORSDOF 6
