REMARK  Name = ZINC22324469
REMARK  14 active torsions:
REMARK  status: ('A' for Active; 'I' for Inactive)
REMARK    1  A    between atoms: C_1  and  C_2
REMARK    2  A    between atoms: C_2  and  C_3
REMARK    3  A    between atoms: N_9  and  C_10
REMARK    4  A    between atoms: C_10  and  C_11
REMARK    5  A    between atoms: C_11  and  C_12
REMARK    6  A    between atoms: C_12  and  N_13
REMARK    7  A    between atoms: C_14  and  C_16
REMARK    8  A    between atoms: C_16  and  N_17
REMARK    9  A    between atoms: N_17  and  C_18
REMARK   10  A    between atoms: N_17  and  S_27
REMARK   11  A    between atoms: C_23  and  O_24
REMARK   12  A    between atoms: O_24  and  C_25
REMARK   13  A    between atoms: S_27  and  C_30
REMARK   14  A    between atoms: C_33  and  C_36
REMARK                            x       y       z     vdW  Elec       q    Type
REMARK                         _______ _______ _______ _____ _____    ______ ____
ROOT
ATOM      1  N   UNL     1      -1.772   0.921   5.147  0.00  0.00    -0.191 N 
ENDROOT
BRANCH   1   2
ATOM      2  C   UNL     1      -1.008   1.875   4.467  0.00  0.00    +0.095 A 
ATOM      3  C   UNL     1      -0.974   3.188   4.916  0.00  0.00    +0.048 A 
ATOM      4  C   UNL     1      -0.217   4.129   4.243  0.00  0.00    +0.043 A 
ATOM      5  C   UNL     1       0.508   3.765   3.122  0.00  0.00    +0.024 A 
ATOM      6  C   UNL     1       0.482   2.458   2.672  0.00  0.00    +0.049 A 
ATOM      7  C   UNL     1      -0.277   1.511   3.338  0.00  0.00    +0.143 A 
ATOM      8 CL   UNL     1      -0.176   5.771   4.805  0.00  0.00    -0.083 Cl
BRANCH   7   9
ATOM      9  O   UNL     1      -0.306   0.225   2.894  0.00  0.00    -0.493 OA
ATOM     10  C   UNL     1       0.467  -0.077   1.731  0.00  0.00    +0.277 C 
ENDBRANCH   7   9
ENDBRANCH   1   2
BRANCH   1  11
ATOM     11  S   UNL     1      -1.066  -0.042   6.294  0.00  0.00    +0.075 S 
ATOM     12  O   UNL     1      -1.864  -1.214   6.388  0.00  0.00    -0.150 OA
ATOM     13  O   UNL     1       0.321  -0.088   5.987  0.00  0.00    -0.150 OA
BRANCH  11  14
ATOM     14  C   UNL     1      -1.213   0.793   7.838  0.00  0.00    +0.109 A 
ATOM     15  C   UNL     1      -0.218   1.658   8.254  0.00  0.00    +0.029 A 
ATOM     16  C   UNL     1      -0.335   2.316   9.463  0.00  0.00    +0.005 A 
ATOM     17  C   UNL     1      -1.444   2.103  10.262  0.00  0.00    -0.050 A 
ATOM     18  C   UNL     1      -2.437   1.235   9.848  0.00  0.00    +0.005 A 
ATOM     19  C   UNL     1      -2.321   0.580   8.637  0.00  0.00    +0.029 A 
ATOM     20  C   UNL     1      -1.569   2.818  11.582  0.00  0.00    +0.044 C 
ENDBRANCH  11  14
ENDBRANCH   1  11
BRANCH   1  21
ATOM     21  C   UNL     1      -3.198   0.773   4.844  0.00  0.00    +0.227 C 
BRANCH  21  23
ATOM     22  N   UNL     1      -4.602  -0.428   3.199  0.00  0.00    -0.314 N 
ATOM     23  C   UNL     1      -3.368  -0.145   3.660  0.00  0.00    +0.232 C 
ATOM     24  O   UNL     1      -2.393  -0.628   3.123  0.00  0.00    -0.274 OA
ATOM     25  H   UNL     1      -5.485   0.010   3.686  0.00  0.00    +0.149 HD
BRANCH  22  26
ATOM     26  C   UNL     1      -4.766  -1.320   2.049  0.00  0.00    +0.102 C 
BRANCH  26  27
ATOM     27  C   UNL     1      -6.255  -1.474   1.732  0.00  0.00    +0.000 C 
BRANCH  27  28
ATOM     28  C   UNL     1      -6.428  -2.406   0.530  0.00  0.00    -0.077 C 
BRANCH  28  34
ATOM     29  C   UNL     1      -8.057  -3.361  -0.984  0.00  0.00    -0.069 C 
ATOM     30  C   UNL     1      -9.552  -3.616  -1.188  0.00  0.00    -0.015 C 
ATOM     31  C   UNL     1     -10.280  -2.275  -1.319  0.00  0.00    -0.003 C 
ATOM     32  C   UNL     1     -10.016  -1.435  -0.067  0.00  0.00    -0.019 C 
ATOM     33  C   UNL     1      -8.508  -1.243   0.104  0.00  0.00    -0.078 C 
ATOM     34  N   UNL     1      -7.857  -2.554   0.227  0.00  0.00    +0.382 N 
ATOM     35  H   UNL     1      -8.329  -3.086   1.066  0.00  0.00    -0.081 HD
BRANCH  29  37
ATOM     36  C   UNL     1      -7.425  -5.484  -2.141  0.00  0.00    +0.002 C 
ATOM     37  C   UNL     1      -7.328  -4.698  -0.832  0.00  0.00    -0.019 C 
ENDBRANCH  29  37
ENDBRANCH  28  34
ENDBRANCH  27  28
ENDBRANCH  26  27
ENDBRANCH  22  26
ENDBRANCH  21  23
ENDBRANCH   1  21
TORSDOF 11
