REMARK  Name = ZINC17138712
REMARK  5 active torsions:
REMARK  status: ('A' for Active; 'I' for Inactive)
REMARK    1  A    between atoms: C_1  and  C_2
REMARK    2  A    between atoms: C_13  and  O_15
REMARK    3  A    between atoms: C_20  and  C_35
REMARK    4  A    between atoms: C_28  and  C_32
REMARK    5  A    between atoms: C_29  and  C_30
REMARK                            x       y       z     vdW  Elec       q    Type
REMARK                         _______ _______ _______ _____ _____    ______ ____
ROOT
ATOM      1  C   UNL     1      -3.173   1.467  -0.505  0.00  0.00    +0.014 C 
ATOM      2  C   UNL     1      -1.974   2.405  -0.656  0.00  0.00    -0.003 C 
ATOM      3  C   UNL     1      -2.381   3.554  -1.550  0.00  0.00    +0.010 C 
ATOM      4  C   UNL     1      -1.330   4.644  -1.611  0.00  0.00    +0.005 C 
ATOM      5  C   UNL     1      -1.033   5.149  -0.194  0.00  0.00    -0.001 C 
ATOM      6  C   UNL     1      -0.486   3.987   0.634  0.00  0.00    -0.004 C 
ATOM      7  C   UNL     1      -1.519   2.862   0.742  0.00  0.00    +0.001 C 
ATOM      8  C   UNL     1      -0.765   1.599   1.255  0.00  0.00    +0.007 C 
ATOM      9  C   UNL     1      -0.013   1.086   0.008  0.00  0.00    +0.032 C 
ATOM     10  C   UNL     1      -0.788   1.611  -1.218  0.00  0.00    +0.121 C 
ATOM     11  C   UNL     1      -0.140   4.489   2.037  0.00  0.00    +0.004 C 
ATOM     12  C   UNL     1       0.895   5.612   1.951  0.00  0.00    +0.005 C 
ATOM     13  C   UNL     1       0.302   6.769   1.131  0.00  0.00    +0.001 C 
ATOM     14  C   UNL     1       0.027   6.246  -0.285  0.00  0.00    -0.022 C 
ATOM     15  C   UNL     1      -0.458   7.397  -1.155  0.00  0.00    +0.045 C 
ATOM     16  C   UNL     1      -1.567   8.160  -0.482  0.00  0.00    -0.009 A 
ATOM     17  C   UNL     1      -1.819   8.070   0.841  0.00  0.00    +0.024 A 
ATOM     18  N   UNL     1      -2.818   8.809   1.408  0.00  0.00    -0.325 N 
ATOM     19  H   UNL     1      -3.010   8.737   2.489  0.00  0.00    +0.169 HD
ATOM     20  C   UNL     1      -3.594   9.635   0.690  0.00  0.00    +0.268 A 
ATOM     21  O   UNL     1      -4.476  10.276   1.236  0.00  0.00    -0.266 OA
ATOM     22  C   UNL     1      -3.383   9.759  -0.709  0.00  0.00    +0.133 A 
ATOM     23  C   UNL     1      -2.356   9.009  -1.294  0.00  0.00    +0.079 A 
ATOM     24  C   UNL     1      -1.033   7.169   1.758  0.00  0.00    +0.057 C 
ATOM     25  C   UNL     1       1.317   5.673  -0.875  0.00  0.00    +0.012 C 
ENDROOT
BRANCH  10  26
ATOM     26  O   UNL     1       0.049   2.464  -2.001  0.00  0.00    -0.391 OA
ATOM     27  H   UNL     1       0.951   2.059  -2.482  0.00  0.00    +0.210 HD
ENDBRANCH  10  26
BRANCH  23  28
ATOM     28  C   UNL     1      -2.104   9.101  -2.700  0.00  0.00    +0.101 C 
ATOM     29  N   UNL     1      -1.905   9.174  -3.817  0.00  0.00    -0.191 NA
ENDBRANCH  23  28
BRANCH  22  30
ATOM     30  C   UNL     1      -4.201  10.628  -1.501  0.00  0.00    +0.106 C 
ATOM     31  N   UNL     1      -4.849  11.317  -2.129  0.00  0.00    -0.191 NA
ENDBRANCH  22  30
TORSDOF 3
