REMARK  Name = ZINC21233897
REMARK  7 active torsions:
REMARK  status: ('A' for Active; 'I' for Inactive)
REMARK    1  A    between atoms: C_1  and  N_2
REMARK    2  A    between atoms: N_2  and  C_3
REMARK    3  A    between atoms: N_2  and  C_4
REMARK    4  A    between atoms: C_7  and  C_10
REMARK    5  A    between atoms: C_15  and  C_25
REMARK    6  A    between atoms: C_29  and  O_31
REMARK    7  A    between atoms: O_31  and  C_32
REMARK                            x       y       z     vdW  Elec       q    Type
REMARK                         _______ _______ _______ _____ _____    ______ ____
ROOT
ATOM      1  C   UNL     1       2.742   1.454  -3.655  0.00  0.00    +0.032 C 
ATOM      2  C   UNL     1       3.927   1.886  -2.806  0.00  0.00    +0.059 C 
ATOM      3  C   UNL     1       3.454   2.292  -1.420  0.00  0.00    +0.017 C 
ATOM      4  C   UNL     1       2.391   1.696  -0.859  0.00  0.00    +0.036 C 
ATOM      5  C   UNL     1       1.824   1.990   0.509  0.00  0.00    +0.136 C 
ATOM      6  N   UNL     1       2.668   2.820   1.342  0.00  0.00    -0.331 N 
ATOM      7  C   UNL     1       2.949   4.139   0.990  0.00  0.00    +0.049 A 
ATOM      8  C   UNL     1       2.515   5.203   1.763  0.00  0.00    +0.025 A 
ATOM      9  C   UNL     1       2.777   6.497   1.347  0.00  0.00    +0.002 A 
ATOM     10  C   UNL     1       3.463   6.729   0.169  0.00  0.00    +0.002 A 
ATOM     11  C   UNL     1       3.913   5.667  -0.597  0.00  0.00    +0.025 A 
ATOM     12  C   UNL     1       3.671   4.372  -0.170  0.00  0.00    +0.052 A 
ATOM     13  N   UNL     1       4.193   3.264  -0.828  0.00  0.00    -0.316 N 
ATOM     14  C   UNL     1       1.690   0.689  -1.565  0.00  0.00    +0.163 C 
ATOM     15  O   UNL     1       0.742   0.149  -1.029  0.00  0.00    -0.292 OA
ATOM     16  C   UNL     1       2.077   0.266  -2.950  0.00  0.00    +0.088 C 
ATOM     17  H   UNL     1       3.099   2.411   2.268  0.00  0.00    +0.147 HD
ATOM     18  H   UNL     1       5.291   3.208  -0.846  0.00  0.00    +0.152 HD
ENDROOT
BRANCH   1  22
ATOM     19  C   UNL     1       4.095   0.266  -7.531  0.00  0.00    +0.029 A 
ATOM     20  C   UNL     1       3.164   1.289  -7.402  0.00  0.00    +0.023 A 
ATOM     21  C   UNL     1       2.729   1.670  -6.148  0.00  0.00    +0.006 A 
ATOM     22  C   UNL     1       3.219   1.035  -5.022  0.00  0.00    -0.043 A 
ATOM     23  C   UNL     1       4.150   0.020  -5.147  0.00  0.00    +0.006 A 
ATOM     24  C   UNL     1       4.585  -0.370  -6.398  0.00  0.00    +0.023 A 
BRANCH  19  26
ATOM     25  C   UNL     1       4.114   0.628  -9.983  0.00  0.00    +0.129 C 
ATOM     26  N   UNL     1       4.536  -0.123  -8.798  0.00  0.00    -0.336 N 
ATOM     27  C   UNL     1       5.422  -1.281  -8.942  0.00  0.00    +0.129 C 
ENDBRANCH  19  26
ENDBRANCH   1  22
BRANCH   5  28
ATOM     28  C   UNL     1       0.496   2.682   0.337  0.00  0.00    -0.019 A 
ATOM     29  C   UNL     1      -0.666   2.059   0.755  0.00  0.00    +0.006 A 
ATOM     30  C   UNL     1      -1.886   2.691   0.599  0.00  0.00    +0.004 A 
ATOM     31  C   UNL     1      -1.946   3.946   0.024  0.00  0.00    +0.046 A 
ATOM     32  C   UNL     1      -0.781   4.575  -0.390  0.00  0.00    +0.129 A 
ATOM     33  C   UNL     1       0.441   3.937  -0.237  0.00  0.00    +0.052 A 
BRANCH  32  34
ATOM     34  O   UNL     1      -0.837   5.812  -0.950  0.00  0.00    -0.456 OA
BRANCH  34  35
ATOM     35  C   UNL     1      -1.207   6.854  -0.159  0.00  0.00    +0.128 A 
ATOM     36  C   UNL     1      -1.409   6.657   1.199  0.00  0.00    +0.046 A 
ATOM     37  C   UNL     1      -1.780   7.719   2.002  0.00  0.00    +0.004 A 
ATOM     38  C   UNL     1      -1.959   8.974   1.450  0.00  0.00    +0.000 A 
ATOM     39  C   UNL     1      -1.763   9.172   0.096  0.00  0.00    +0.004 A 
ATOM     40  C   UNL     1      -1.388   8.114  -0.710  0.00  0.00    +0.046 A 
ENDBRANCH  34  35
ENDBRANCH  32  34
ENDBRANCH   5  28
TORSDOF 5
