REMARK  Name = ZINC39467088
REMARK  8 active torsions:
REMARK  status: ('A' for Active; 'I' for Inactive)
REMARK    1  A    between atoms: C_1  and  C_2
REMARK    2  A    between atoms: C_2  and  C_3
REMARK    3  A    between atoms: C_2  and  S_4
REMARK    4  A    between atoms: S_4  and  C_7
REMARK    5  A    between atoms: C_19  and  C_20
REMARK    6  A    between atoms: C_20  and  C_21
REMARK    7  A    between atoms: P_29  and  C_32
REMARK    8  A    between atoms: C_37  and  O_38
REMARK                            x       y       z     vdW  Elec       q    Type
REMARK                         _______ _______ _______ _____ _____    ______ ____
ROOT
ATOM      1  C   UNL     1      -0.186   0.274   3.192  0.00  0.00    +0.088 C 
ATOM      2  C   UNL     1      -0.809  -0.322   4.210  0.00  0.00    +0.002 C 
ATOM      3  C   UNL     1      -1.780   0.480   5.032  0.00  0.00    +0.006 C 
ATOM      4  C   UNL     1      -1.971  -0.117   6.421  0.00  0.00    -0.046 C 
ATOM      5  N   UNL     1      -2.961   0.675   7.172  0.00  0.00    +0.398 N 
ATOM      6  C   UNL     1      -2.530   2.064   7.326  0.00  0.00    -0.020 C 
ATOM      7  C   UNL     1      -2.271   2.719   5.961  0.00  0.00    -0.003 C 
ATOM      8  C   UNL     1      -1.231   1.903   5.200  0.00  0.00    +0.016 C 
ATOM      9  C   UNL     1      -0.964   2.482   3.838  0.00  0.00    -0.017 C 
ATOM     10  C   UNL     1      -0.466   1.689   2.892  0.00  0.00    -0.022 C 
ATOM     11  C   UNL     1      -3.604   2.912   8.018  0.00  0.00    +0.157 C 
ATOM     12  O   UNL     1      -3.840   2.395   9.341  0.00  0.00    -0.316 OA
ATOM     13  P   UNL     1      -4.117   0.799   9.492  0.00  0.00    +0.291 P 
ATOM     14  O   UNL     1      -5.527   0.491   9.163  0.00  0.00    -0.269 OA
ATOM     15  N   UNL     1      -3.084   0.071   8.405  0.00  0.00    -0.288 NA
ATOM     16  H   UNL     1      -2.604  -0.745   8.616  0.00  0.00    +0.111 HD
ATOM     17  H   UNL     1      -3.848   0.648   6.693  0.00  0.00    -0.055 HD
ENDROOT
BRANCH  13  18
ATOM     18  C   UNL     1      -3.732   0.251  11.178  0.00  0.00    +0.091 A 
ATOM     19  C   UNL     1      -2.457  -0.181  11.490  0.00  0.00    +0.018 A 
ATOM     20  C   UNL     1      -2.163  -0.600  12.774  0.00  0.00    +0.001 A 
ATOM     21  C   UNL     1      -3.143  -0.588  13.749  0.00  0.00    +0.004 A 
ATOM     22  C   UNL     1      -4.419  -0.157  13.442  0.00  0.00    +0.046 A 
ATOM     23  C   UNL     1      -4.716   0.269  12.155  0.00  0.00    +0.131 A 
BRANCH  23  24
ATOM     24  O   UNL     1      -5.969   0.699  11.852  0.00  0.00    -0.506 OA
ATOM     25  H   UNL     1      -6.562  -0.002  11.549  0.00  0.00    +0.292 HD
ENDBRANCH  23  24
ENDBRANCH  13  18
BRANCH   1  26
ATOM     26  S   UNL     1       0.970  -0.626   2.214  0.00  0.00    -0.001 S 
ATOM     27  O   UNL     1       0.682  -0.252   0.874  0.00  0.00    -0.169 OA
ATOM     28  O   UNL     1       0.828  -1.976   2.635  0.00  0.00    -0.169 OA
BRANCH  26  30
ATOM     29  C   UNL     1       2.791  -0.195   4.209  0.00  0.00    +0.032 C 
ATOM     30  C   UNL     1       2.595   0.014   2.706  0.00  0.00    +0.130 C 
ATOM     31  C   UNL     1       3.690  -0.731   1.940  0.00  0.00    +0.032 C 
ENDBRANCH  26  30
ENDBRANCH   1  26
BRANCH  10  32
ATOM     32  C   UNL     1      -0.193   2.238   1.515  0.00  0.00    +0.071 C 
BRANCH  32  33
ATOM     33  C   UNL     1       1.223   2.749   1.449  0.00  0.00    -0.043 A 
ATOM     34  C   UNL     1       1.579   3.890   2.144  0.00  0.00    +0.004 A 
ATOM     35  C   UNL     1       2.878   4.359   2.083  0.00  0.00    +0.000 A 
ATOM     36  C   UNL     1       3.821   3.687   1.329  0.00  0.00    +0.000 A 
ATOM     37  C   UNL     1       3.466   2.545   0.635  0.00  0.00    +0.000 A 
ATOM     38  C   UNL     1       2.168   2.074   0.699  0.00  0.00    +0.004 A 
ENDBRANCH  32  33
ENDBRANCH  10  32
TORSDOF 6
