REMARK  Name = ZINC29852993
REMARK  10 active torsions:
REMARK  status: ('A' for Active; 'I' for Inactive)
REMARK    1  A    between atoms: C_1  and  C_2
REMARK    2  A    between atoms: C_3  and  C_31
REMARK    3  A    between atoms: C_4  and  C_30
REMARK    4  A    between atoms: C_7  and  C_8
REMARK    5  A    between atoms: C_8  and  C_10
REMARK    6  A    between atoms: C_10  and  C_12
REMARK    7  A    between atoms: C_10  and  N_13
REMARK    8  A    between atoms: N_16  and  S_19
REMARK    9  A    between atoms: S_19  and  C_22
REMARK   10  A    between atoms: C_31  and  C_33
REMARK                            x       y       z     vdW  Elec       q    Type
REMARK                         _______ _______ _______ _____ _____    ______ ____
ROOT
ATOM      1  N   UNL     1      -4.768   2.249   0.584  0.00  0.00    +0.388 N 
ATOM      2  C   UNL     1      -5.100   1.065  -0.219  0.00  0.00    -0.060 C 
ATOM      3  C   UNL     1      -6.203   0.267   0.484  0.00  0.00    +0.091 C 
ATOM      4  N   UNL     1      -7.332   1.170   0.756  0.00  0.00    -0.180 NA
ATOM      5  C   UNL     1      -7.055   2.444   1.437  0.00  0.00    +0.091 C 
ATOM      6  C   UNL     1      -5.919   3.156   0.696  0.00  0.00    -0.060 C 
ATOM      7  H   UNL     1      -4.513   1.906   1.597  0.00  0.00    -0.081 HD
ENDROOT
BRANCH   4   8
ATOM      8  S   UNL     1      -8.873   0.763   0.307  0.00  0.00    +0.061 S 
ATOM      9  O   UNL     1      -8.908  -0.655   0.214  0.00  0.00    -0.153 OA
ATOM     10  O   UNL     1      -9.749   1.493   1.155  0.00  0.00    -0.153 OA
BRANCH   8  11
ATOM     11  C   UNL     1      -9.120   1.380  -1.325  0.00  0.00    +0.107 A 
ATOM     12  C   UNL     1      -9.627   2.653  -1.512  0.00  0.00    +0.030 A 
ATOM     13  C   UNL     1      -9.817   3.141  -2.792  0.00  0.00    +0.023 A 
ATOM     14  C   UNL     1      -9.510   2.351  -3.885  0.00  0.00    +0.059 A 
ATOM     15  C   UNL     1      -9.007   1.075  -3.697  0.00  0.00    +0.061 A 
ATOM     16  C   UNL     1      -8.813   0.590  -2.416  0.00  0.00    +0.050 A 
ATOM     17 CL   UNL     1      -8.621   0.083  -5.069  0.00  0.00    -0.082 Cl
ATOM     18 CL   UNL     1      -9.753   2.961  -5.492  0.00  0.00    -0.082 Cl
ENDBRANCH   8  11
ENDBRANCH   4   8
BRANCH   1  19
ATOM     19  C   UNL     1      -3.599   2.948   0.033  0.00  0.00    +0.003 C 
ATOM     20  C   UNL     1      -2.450   1.955  -0.149  0.00  0.00    -0.005 C 
BRANCH  19  21
ATOM     21  C   UNL     1      -3.174   4.040   0.982  0.00  0.00    +0.166 C 
ATOM     22  O   UNL     1      -3.462   3.967   2.159  0.00  0.00    -0.292 OA
BRANCH  21  29
ATOM     23  C   UNL     1      -2.187   6.407   2.735  0.00  0.00    +0.047 C 
ATOM     24  C   UNL     1      -1.989   6.210   1.254  0.00  0.00    -0.012 A 
ATOM     25  C   UNL     1      -1.302   7.076   0.373  0.00  0.00    +0.041 A 
ATOM     26  C   UNL     1      -1.366   6.507  -0.891  0.00  0.00    +0.024 A 
ATOM     27  N   UNL     1      -2.049   5.357  -0.808  0.00  0.00    -0.355 N 
ATOM     28  H   UNL     1      -2.216   4.751  -1.711  0.00  0.00    +0.166 HD
ATOM     29  C   UNL     1      -2.438   5.149   0.500  0.00  0.00    +0.084 A 
ATOM     30  C   UNL     1      -0.766   7.085  -2.146  0.00  0.00    +0.064 C 
BRANCH  25  31
ATOM     31  C   UNL     1      -0.644   8.338   0.728  0.00  0.00    +0.162 C 
ATOM     32  O   UNL     1      -1.243   9.387   0.614  0.00  0.00    -0.292 OA
ATOM     33  C   UNL     1       0.775   8.332   1.235  0.00  0.00    +0.091 C 
ENDBRANCH  25  31
ENDBRANCH  21  29
ENDBRANCH  19  21
ENDBRANCH   1  19
TORSDOF 6
