REMARK  Name = ZINC05130154
REMARK  7 active torsions:
REMARK  status: ('A' for Active; 'I' for Inactive)
REMARK    1  A    between atoms: C_1  and  C_2
REMARK    2  A    between atoms: C_2  and  O_3
REMARK    3  A    between atoms: O_3  and  C_4
REMARK    4  A    between atoms: C_7  and  C_10
REMARK    5  A    between atoms: C_17  and  N_30
REMARK    6  A    between atoms: C_18  and  C_28
REMARK    7  A    between atoms: C_19  and  C_21
REMARK                            x       y       z     vdW  Elec       q    Type
REMARK                         _______ _______ _______ _____ _____    ______ ____
ROOT
ATOM      1  C   UNL     1       1.107  -6.021  -1.846  0.00  0.00    +0.074 A 
ATOM      2  C   UNL     1       2.191  -6.690  -2.308  0.00  0.00    +0.054 A 
ATOM      3  C   UNL     1       1.884  -8.065  -2.319  0.00  0.00    +0.245 A 
ATOM      4  N   UNL     1       0.666  -8.216  -1.883  0.00  0.00    -0.135 NA
ATOM      5  N   UNL     1       0.145  -6.951  -1.569  0.00  0.00    -0.273 N 
ATOM      6  H   UNL     1      -0.741  -6.769  -1.219  0.00  0.00    +0.189 HD
ATOM      7  O   UNL     1       2.782  -9.000  -2.732  0.00  0.00    -0.421 OA
ATOM      8  C   UNL     1       4.064  -8.610  -2.876  0.00  0.00    +0.201 C 
ATOM      9  C   UNL     1       4.474  -7.324  -2.894  0.00  0.00    +0.098 C 
ATOM     10  C   UNL     1       3.528  -6.158  -2.756  0.00  0.00    +0.104 C 
ENDROOT
BRANCH  10  11
ATOM     11  C   UNL     1       3.380  -5.463  -4.085  0.00  0.00    +0.001 A 
ATOM     12  C   UNL     1       2.815  -6.130  -5.155  0.00  0.00    +0.007 A 
ATOM     13  C   UNL     1       2.679  -5.493  -6.374  0.00  0.00    +0.000 A 
ATOM     14  C   UNL     1       3.108  -4.188  -6.524  0.00  0.00    +0.003 A 
ATOM     15  C   UNL     1       3.674  -3.518  -5.455  0.00  0.00    +0.038 A 
ATOM     16  C   UNL     1       3.805  -4.154  -4.232  0.00  0.00    +0.127 A 
ATOM     17  F   UNL     1       4.353  -3.499  -3.185  0.00  0.00    -0.205 F 
ENDBRANCH  10  11
BRANCH   1  21
ATOM     18  C   UNL     1       0.766  -1.815  -1.337  0.00  0.00    +0.121 A 
ATOM     19  C   UNL     1      -0.249  -2.521  -1.968  0.00  0.00    +0.046 A 
ATOM     20  C   UNL     1      -0.142  -3.885  -2.135  0.00  0.00    +0.013 A 
ATOM     21  C   UNL     1       0.988  -4.557  -1.669  0.00  0.00    +0.000 A 
ATOM     22  C   UNL     1       2.007  -3.844  -1.036  0.00  0.00    +0.013 A 
ATOM     23  C   UNL     1       1.895  -2.479  -0.877  0.00  0.00    +0.046 A 
BRANCH  18  24
ATOM     24  O   UNL     1       0.657  -0.470  -1.175  0.00  0.00    -0.492 OA
BRANCH  24  26
ATOM     25  C   UNL     1      -0.473   1.654  -1.399  0.00  0.00    +0.048 C 
ATOM     26  C   UNL     1      -0.531   0.149  -1.671  0.00  0.00    +0.225 C 
ENDBRANCH  24  26
ENDBRANCH  18  24
ENDBRANCH   1  21
BRANCH   8  27
ATOM     27  N   UNL     1       5.017  -9.587  -3.015  0.00  0.00    -0.328 N 
ATOM     28  H   UNL     1       4.758 -10.522  -3.007  0.00  0.00    +0.145 HD
ATOM     29  H   UNL     1       5.950  -9.343  -3.120  0.00  0.00    +0.145 HD
ENDBRANCH   8  27
BRANCH   9  30
ATOM     30  C   UNL     1       5.872  -7.055  -3.050  0.00  0.00    +0.101 C 
ATOM     31  N   UNL     1       6.981  -6.842  -3.174  0.00  0.00    -0.191 NA
ENDBRANCH   9  30
TORSDOF 6
