REMARK  Name = ZINC35746391
REMARK  16 active torsions:
REMARK  status: ('A' for Active; 'I' for Inactive)
REMARK    1  A    between atoms: C_1  and  C_2
REMARK    2  A    between atoms: C_5  and  C_9
REMARK    3  A    between atoms: C_6  and  C_8
REMARK    4  A    between atoms: C_18  and  C_20
REMARK    5  A    between atoms: C_20  and  N_21
REMARK    6  A    between atoms: N_21  and  C_22
REMARK    7  A    between atoms: N_21  and  C_28
REMARK    8  A    between atoms: C_22  and  C_23
REMARK    9  A    between atoms: C_28  and  C_29
REMARK   10  A    between atoms: C_29  and  C_31
REMARK   11  A    between atoms: C_29  and  O_37
REMARK   12  A    between atoms: C_31  and  O_32
REMARK   13  A    between atoms: O_32  and  C_33
REMARK   14  A    between atoms: C_33  and  C_34
REMARK   15  A    between atoms: C_34  and  C_35
REMARK   16  A    between atoms: C_34  and  C_36
REMARK                            x       y       z     vdW  Elec       q    Type
REMARK                         _______ _______ _______ _____ _____    ______ ____
ROOT
ATOM      1  C   UNL     1       0.443  -5.131  -0.713  0.00  0.00    +0.004 A 
ATOM      2  C   UNL     1       1.494  -5.910  -1.067  0.00  0.00    +0.056 A 
ATOM      3  S   UNL     1       0.955  -7.553  -0.632  0.00  0.00    -0.076 S 
ATOM      4  C   UNL     1      -0.652  -7.159   0.009  0.00  0.00    +0.116 A 
ATOM      5  C   UNL     1      -0.731  -5.763  -0.124  0.00  0.00    +0.080 A 
ATOM      6  C   UNL     1      -1.950  -5.165   0.331  0.00  0.00    +0.260 A 
ATOM      7  O   UNL     1      -2.114  -3.959   0.253  0.00  0.00    -0.267 OA
ATOM      8  N   UNL     1      -2.911  -5.953   0.846  0.00  0.00    -0.312 N 
ATOM      9  H   UNL     1      -3.738  -5.553   1.156  0.00  0.00    +0.170 HD
ATOM     10  C   UNL     1      -2.745  -7.298   0.941  0.00  0.00    +0.094 A 
ATOM     11  N   UNL     1      -1.649  -7.874   0.524  0.00  0.00    -0.229 NA
ENDROOT
BRANCH   1  16
ATOM     12  C   UNL     1       0.622   0.570  -1.498  0.00  0.00    +0.044 C 
ATOM     13  C   UNL     1       0.575  -0.922  -1.293  0.00  0.00    -0.050 A 
ATOM     14  C   UNL     1       0.589  -1.769  -2.387  0.00  0.00    +0.004 A 
ATOM     15  C   UNL     1       0.546  -3.136  -2.205  0.00  0.00    +0.009 A 
ATOM     16  C   UNL     1       0.489  -3.663  -0.915  0.00  0.00    -0.014 A 
ATOM     17  C   UNL     1       0.476  -2.805   0.183  0.00  0.00    -0.042 A 
ATOM     18  C   UNL     1       0.525  -1.439  -0.011  0.00  0.00    +0.007 A 
ATOM     19  C   UNL     1       0.415  -3.367   1.580  0.00  0.00    +0.044 C 
ENDBRANCH   1  16
BRANCH  10  20
ATOM     20  C   UNL     1      -3.849  -8.141   1.524  0.00  0.00    -0.003 C 
BRANCH  20  21
ATOM     21  N   UNL     1      -3.442  -9.552   1.521  0.00  0.00    +0.391 N 
ATOM     22  H   UNL     1      -3.145  -9.815   0.594  0.00  0.00    -0.080 HD
BRANCH  21  23
ATOM     23  C   UNL     1      -2.330  -9.742   2.463  0.00  0.00    -0.002 C 
BRANCH  23  24
ATOM     24  C   UNL     1      -1.851 -11.169   2.393  0.00  0.00    +0.089 A 
ATOM     25  C   UNL     1      -0.963 -11.658   1.509  0.00  0.00    +0.042 A 
ATOM     26  C   UNL     1      -0.806 -13.032   1.803  0.00  0.00    +0.041 A 
ATOM     27  C   UNL     1      -1.608 -13.301   2.849  0.00  0.00    +0.195 A 
ATOM     28  O   UNL     1      -2.234 -12.167   3.206  0.00  0.00    -0.470 OA
ENDBRANCH  23  24
ENDBRANCH  21  23
BRANCH  21  29
ATOM     29  C   UNL     1      -4.577 -10.391   1.928  0.00  0.00    -0.044 C 
BRANCH  29  30
ATOM     30  C   UNL     1      -5.655 -10.351   0.843  0.00  0.00    +0.124 C 
BRANCH  30  31
ATOM     31  O   UNL     1      -6.268  -9.061   0.828  0.00  0.00    -0.391 OA
ATOM     32  H   UNL     1      -6.694  -8.818   1.661  0.00  0.00    +0.210 HD
ENDBRANCH  30  31
BRANCH  30  33
ATOM     33  C   UNL     1      -6.713 -11.416   1.136  0.00  0.00    +0.189 C 
BRANCH  33  34
ATOM     34  O   UNL     1      -7.656 -11.459   0.063  0.00  0.00    -0.377 OA
BRANCH  34  35
ATOM     35  C   UNL     1      -8.693 -12.426   0.239  0.00  0.00    +0.163 C 
BRANCH  35  36
ATOM     36  C   UNL     1      -9.639 -12.383  -0.963  0.00  0.00    +0.009 C 
ATOM     37  C   UNL     1      -8.886 -12.821  -2.220  0.00  0.00    +0.009 C 
ATOM     38  C   UNL     1     -10.817 -13.329  -0.718  0.00  0.00    +0.009 C 
ENDBRANCH  35  36
ENDBRANCH  34  35
ENDBRANCH  33  34
ENDBRANCH  30  33
ENDBRANCH  29  30
ENDBRANCH  21  29
ENDBRANCH  20  21
ENDBRANCH  10  20
TORSDOF 12
