REMARK  Name = ZINC61750972
REMARK  5 active torsions:
REMARK  status: ('A' for Active; 'I' for Inactive)
REMARK    1  A    between atoms: C_4  and  N_11
REMARK    2  A    between atoms: C_5  and  C_7
REMARK    3  A    between atoms: C_7  and  C_8
REMARK    4  A    between atoms: C_18  and  C_19
REMARK    5  A    between atoms: C_19  and  C_20
REMARK                            x       y       z     vdW  Elec       q    Type
REMARK                         _______ _______ _______ _____ _____    ______ ____
ROOT
ATOM      1  N   UNL     1       3.475   0.036  -0.148  0.00  0.00    -0.269 N 
ATOM      2  C   UNL     1       4.715   0.564  -0.193  0.00  0.00    +0.307 C 
ATOM      3  O   UNL     1       4.871   1.762  -0.055  0.00  0.00    -0.252 OA
ATOM      4  N   UNL     1       5.781  -0.236  -0.391  0.00  0.00    -0.282 N 
ATOM      5  C   UNL     1       5.729  -1.680  -0.684  0.00  0.00    +0.110 C 
ATOM      6  C   UNL     1       7.061  -1.984  -1.415  0.00  0.00    +0.021 C 
ATOM      7  C   UNL     1       8.049  -1.057  -0.660  0.00  0.00    +0.024 C 
ATOM      8  C   UNL     1       7.189   0.187  -0.356  0.00  0.00    +0.078 C 
ATOM      9  H   UNL     1       3.356  -0.925  -0.192  0.00  0.00    +0.156 HD
ENDROOT
BRANCH   1  13
ATOM     10  C   UNL     1       0.159   2.536   0.178  0.00  0.00    +0.000 A 
ATOM     11  C   UNL     1       1.343   2.875   0.807  0.00  0.00    +0.002 A 
ATOM     12  C   UNL     1       2.444   2.049   0.701  0.00  0.00    +0.023 A 
ATOM     13  C   UNL     1       2.361   0.876  -0.038  0.00  0.00    +0.038 A 
ATOM     14  C   UNL     1       1.171   0.538  -0.668  0.00  0.00    -0.017 A 
ATOM     15  C   UNL     1       0.073   1.369  -0.558  0.00  0.00    +0.006 A 
BRANCH  14  16
ATOM     16  C   UNL     1       1.077  -0.733  -1.472  0.00  0.00    +0.132 C 
BRANCH  16  17
ATOM     17  C   UNL     1       0.750  -1.883  -0.555  0.00  0.00    +0.215 C 
ATOM     18  O   UNL     1       0.607  -1.690   0.633  0.00  0.00    -0.276 OA
ATOM     19  N   UNL     1       0.616  -3.127  -1.057  0.00  0.00    -0.329 N 
ATOM     20  H   UNL     1       0.731  -3.282  -2.007  0.00  0.00    +0.145 HD
ATOM     21  H   UNL     1       0.406  -3.868  -0.467  0.00  0.00    +0.145 HD
ENDBRANCH  16  17
ENDBRANCH  14  16
ENDBRANCH   1  13
BRANCH   8  22
ATOM     22  C   UNL     1       7.535   0.729   1.032  0.00  0.00    +0.026 C 
BRANCH  22  23
ATOM     23  C   UNL     1       8.925   1.368   0.999  0.00  0.00    -0.009 C 
ATOM     24  C   UNL     1       9.982   0.279   0.808  0.00  0.00    +0.003 C 
ATOM     25  C   UNL     1      11.372   0.918   0.774  0.00  0.00    +0.000 C 
ATOM     26  C   UNL     1      11.628   1.652   2.092  0.00  0.00    +0.000 C 
ATOM     27  C   UNL     1      10.570   2.741   2.283  0.00  0.00    +0.000 C 
ATOM     28  C   UNL     1       9.181   2.102   2.317  0.00  0.00    +0.003 C 
ENDBRANCH  22  23
ENDBRANCH   8  22
TORSDOF 5
