REMARK  Name = ZINC11990991
REMARK  3 active torsions:
REMARK  status: ('A' for Active; 'I' for Inactive)
REMARK    1  A    between atoms: C_1  and  C_2
REMARK    2  A    between atoms: N_10  and  C_11
REMARK    3  A    between atoms: C_17  and  C_19
REMARK                            x       y       z     vdW  Elec       q    Type
REMARK                         _______ _______ _______ _____ _____    ______ ____
ROOT
ATOM      1  C   UNL     1      -1.984   2.546   3.592  0.00  0.00    +0.071 C 
ATOM      2  C   UNL     1      -2.432   1.291   2.888  0.00  0.00    +0.098 A 
ATOM      3  C   UNL     1      -1.762   0.850   1.721  0.00  0.00    +0.147 A 
ATOM      4  N   UNL     1      -2.179  -0.263   1.130  0.00  0.00    -0.175 NA
ATOM      5  C   UNL     1      -3.216  -0.926   1.650  0.00  0.00    +0.364 A 
ATOM      6  O   UNL     1      -3.609  -1.950   1.116  0.00  0.00    -0.243 OA
ATOM      7  N   UNL     1      -3.830  -0.472   2.757  0.00  0.00    -0.226 N 
ATOM      8  H   UNL     1      -4.581  -0.967   3.120  0.00  0.00    +0.194 HD
ATOM      9  N   UNL     1      -3.442   0.604   3.346  0.00  0.00    -0.172 NA
ATOM     10  N   UNL     1      -0.698   1.558   1.213  0.00  0.00    -0.324 N 
ATOM     11  H   UNL     1      -0.402   2.370   1.653  0.00  0.00    +0.148 HD
ENDROOT
BRANCH  10  12
ATOM     12  C   UNL     1      -0.013   1.086   0.008  0.00  0.00    +0.075 C 
ATOM     13  C   UNL     1      -0.753   1.593  -1.232  0.00  0.00    +0.022 C 
ATOM     14  C   UNL     1      -0.773   3.123  -1.223  0.00  0.00    +0.002 C 
ATOM     15  C   UNL     1       0.662   3.652  -1.234  0.00  0.00    +0.000 C 
ATOM     16  C   UNL     1       1.402   3.145   0.006  0.00  0.00    +0.005 C 
ATOM     17  C   UNL     1       1.423   1.615  -0.003  0.00  0.00    +0.006 C 
ATOM     18  C   UNL     1       2.163   1.109   1.237  0.00  0.00    +0.009 C 
ENDBRANCH  10  12
TORSDOF 1
