REMARK  Name = ZINC66156393
REMARK  13 active torsions:
REMARK  status: ('A' for Active; 'I' for Inactive)
REMARK    1  A    between atoms: C_1  and  C_2
REMARK    2  A    between atoms: C_4  and  O_12
REMARK    3  A    between atoms: C_5  and  C_9
REMARK    4  A    between atoms: C_9  and  C_10
REMARK    5  A    between atoms: C_9  and  C_11
REMARK    6  A    between atoms: O_12  and  C_13
REMARK    7  A    between atoms: C_13  and  C_14
REMARK    8  A    between atoms: C_14  and  C_16
REMARK    9  A    between atoms: C_14  and  O_29
REMARK   10  A    between atoms: C_16  and  N_17
REMARK   11  A    between atoms: C_21  and  C_24
REMARK   12  A    between atoms: C_24  and  C_25
REMARK   13  A    between atoms: C_25  and  C_26
REMARK                            x       y       z     vdW  Elec       q    Type
REMARK                         _______ _______ _______ _____ _____    ______ ____
ROOT
ATOM      1  C   UNL     1      -0.082  -2.898  -4.795  0.00  0.00    +0.135 C 
ENDROOT
BRANCH   1   2
ATOM      2  O   UNL     1       1.116  -3.678  -4.778  0.00  0.00    -0.390 OA
ATOM      3  H   UNL     1       1.927  -3.153  -4.804  0.00  0.00    +0.210 HD
ENDBRANCH   1   2
BRANCH   1   4
ATOM      4  C   UNL     1      -0.104  -1.972  -3.577  0.00  0.00    +0.258 C 
BRANCH   4   5
ATOM      5  O   UNL     1      -0.179  -2.755  -2.384  0.00  0.00    -0.489 OA
BRANCH   5   9
ATOM      6  C   UNL     1      -0.146   1.495   0.016  0.00  0.00    +0.045 C 
ATOM      7  C   UNL     1      -0.194  -0.011   0.005  0.00  0.00    -0.029 A 
ATOM      8  C   UNL     1      -0.164  -0.695  -1.195  0.00  0.00    +0.050 A 
ATOM      9  C   UNL     1      -0.208  -2.081  -1.204  0.00  0.00    +0.124 A 
ATOM     10  C   UNL     1      -0.282  -2.779  -0.007  0.00  0.00    -0.002 A 
ATOM     11  C   UNL     1      -0.311  -2.092   1.191  0.00  0.00    +0.027 A 
ATOM     12  C   UNL     1      -0.262  -0.709   1.198  0.00  0.00    +0.044 A 
ATOM     13 CL   UNL     1      -0.292   0.152   2.705  0.00  0.00    -0.083 Cl
BRANCH  10  14
ATOM     14  C   UNL     1      -0.330  -4.285  -0.014  0.00  0.00    +0.016 C 
ATOM     15  C   UNL     1       0.870  -4.837   0.757  0.00  0.00    +0.012 C 
ATOM     16  C   UNL     1      -1.625  -4.757   0.651  0.00  0.00    +0.012 C 
ENDBRANCH  10  14
ENDBRANCH   5   9
ENDBRANCH   4   5
ENDBRANCH   1   4
BRANCH   1  17
ATOM     17  C   UNL     1      -0.126  -2.060  -6.074  0.00  0.00    -0.044 C 
BRANCH  17  18
ATOM     18  N   UNL     1      -0.120  -2.950  -7.243  0.00  0.00    +0.382 N 
ATOM     19  C   UNL     1      -0.008  -2.147  -8.466  0.00  0.00    -0.079 C 
ATOM     20  C   UNL     1       0.081  -3.072  -9.682  0.00  0.00    -0.018 C 
ATOM     21  C   UNL     1      -1.181  -3.937  -9.751  0.00  0.00    -0.000 C 
ATOM     22  C   UNL     1      -1.328  -4.714  -8.439  0.00  0.00    -0.027 C 
ATOM     23  C   UNL     1      -1.365  -3.728  -7.270  0.00  0.00    -0.075 C 
ATOM     24  H   UNL     1       0.667  -3.578  -7.181  0.00  0.00    -0.082 HD
BRANCH  22  25
ATOM     25  C   UNL     1      -2.627  -5.522  -8.467  0.00  0.00    +0.011 C 
BRANCH  25  26
ATOM     26  C   UNL     1      -2.540  -6.588  -9.562  0.00  0.00    +0.096 C 
BRANCH  26  27
ATOM     27  C   UNL     1      -3.819  -7.385  -9.589  0.00  0.00    +0.210 C 
ATOM     28  O   UNL     1      -4.712  -7.125  -8.810  0.00  0.00    -0.276 OA
ATOM     29  N   UNL     1      -3.971  -8.385 -10.479  0.00  0.00    -0.329 N 
ATOM     30  H   UNL     1      -3.257  -8.593 -11.102  0.00  0.00    +0.145 HD
ATOM     31  H   UNL     1      -4.794  -8.898 -10.497  0.00  0.00    +0.145 HD
ENDBRANCH  26  27
ENDBRANCH  25  26
ENDBRANCH  22  25
ENDBRANCH  17  18
ENDBRANCH   1  17
TORSDOF 10
