REMARK  Name = ZINC35517343
REMARK  5 active torsions:
REMARK  status: ('A' for Active; 'I' for Inactive)
REMARK    1  A    between atoms: C_1  and  C_2
REMARK    2  A    between atoms: C_6  and  C_8
REMARK    3  A    between atoms: N_10  and  C_15
REMARK    4  A    between atoms: C_15  and  C_17
REMARK    5  A    between atoms: C_15  and  C_18
REMARK                            x       y       z     vdW  Elec       q    Type
REMARK                         _______ _______ _______ _____ _____    ______ ____
ROOT
ATOM      1  C   UNL     1       0.054  -2.845   2.489  0.00  0.00    +0.166 C 
ATOM      2  N   UNL     1       0.688  -4.166   2.322  0.00  0.00    -0.271 N 
ATOM      3  C   UNL     1      -0.076  -5.248   2.254  0.00  0.00    +0.227 C 
ATOM      4  O   UNL     1       0.407  -6.351   2.112  0.00  0.00    -0.275 OA
ATOM      5  C   UNL     1      -1.581  -5.055   2.360  0.00  0.00    +0.167 C 
ATOM      6  S   UNL     1      -1.653  -3.323   2.998  0.00  0.00    -0.124 S 
ENDROOT
BRANCH   1  12
ATOM      7  C   UNL     1      -0.018   1.503   0.010  0.00  0.00    +0.044 C 
ATOM      8  C   UNL     1       0.002  -0.004   0.002  0.00  0.00    -0.050 A 
ATOM      9  C   UNL     1       0.006  -0.689  -1.199  0.00  0.00    +0.003 A 
ATOM     10  C   UNL     1       0.025  -2.071  -1.207  0.00  0.00    +0.001 A 
ATOM     11  C   UNL     1       0.040  -2.768  -0.013  0.00  0.00    +0.006 A 
ATOM     12  C   UNL     1       0.037  -2.084   1.188  0.00  0.00    -0.017 A 
ATOM     13  C   UNL     1       0.023  -0.702   1.195  0.00  0.00    +0.009 A 
ENDBRANCH   1  12
BRANCH   2  14
ATOM     14  C   UNL     1       2.146  -4.282   2.232  0.00  0.00    +0.187 C 
ATOM     15  C   UNL     1       2.526  -4.913   0.891  0.00  0.00    +0.040 C 
BRANCH  14  16
ATOM     16  C   UNL     1       2.651  -5.149   3.357  0.00  0.00    +0.376 C 
ATOM     17  O   UNL     1       1.863  -5.772   4.047  0.00  0.00    -0.244 OA
ATOM     18  O   UNL     1       3.848  -5.226   3.576  0.00  0.00    -0.244 OA
ENDBRANCH  14  16
ENDBRANCH   2  14
TORSDOF 3
