REMARK  Name = ZINC08771878
REMARK  9 active torsions:
REMARK  status: ('A' for Active; 'I' for Inactive)
REMARK    1  A    between atoms: C_1  and  C_2
REMARK    2  A    between atoms: C_3  and  C_24
REMARK    3  A    between atoms: C_4  and  C_8
REMARK    4  A    between atoms: C_11  and  O_15
REMARK    5  A    between atoms: C_13  and  O_14
REMARK    6  A    between atoms: O_15  and  C_16
REMARK    7  A    between atoms: C_16  and  C_17
REMARK    8  A    between atoms: C_29  and  O_30
REMARK    9  A    between atoms: O_30  and  C_31
REMARK                            x       y       z     vdW  Elec       q    Type
REMARK                         _______ _______ _______ _____ _____    ______ ____
ROOT
ATOM      1  C   UNL     1       0.040  -3.342  -1.567  0.00  0.00    +0.042 A 
ATOM      2  C   UNL     1      -1.045  -4.221  -1.556  0.00  0.00    +0.017 A 
ATOM      3  C   UNL     1      -1.030  -5.343  -2.355  0.00  0.00    +0.046 A 
ATOM      4  C   UNL     1       0.063  -5.605  -3.173  0.00  0.00    +0.124 A 
ATOM      5  C   UNL     1       1.145  -4.738  -3.191  0.00  0.00    +0.091 A 
ATOM      6  C   UNL     1       1.139  -3.604  -2.396  0.00  0.00    +0.129 A 
ENDROOT
BRANCH   1  10
ATOM      7  C   UNL     1      -0.018   1.503   0.010  0.00  0.00    +0.068 C 
ATOM      8  C   UNL     1       0.002  -0.004   0.002  0.00  0.00    +0.068 A 
ATOM      9  C   UNL     1       0.008  -0.819  -1.144  0.00  0.00    +0.034 A 
ATOM     10  C   UNL     1       0.028  -2.139  -0.712  0.00  0.00    +0.077 A 
ATOM     11  N   UNL     1       0.034  -2.111   0.651  0.00  0.00    -0.276 N 
ATOM     12  H   UNL     1       0.047  -2.885   1.236  0.00  0.00    +0.189 HD
ATOM     13  N   UNL     1       0.023  -0.772   1.058  0.00  0.00    -0.178 NA
BRANCH   9  14
ATOM     14  C   UNL     1      -0.005  -0.355  -2.552  0.00  0.00    +0.028 A 
ATOM     15  C   UNL     1       1.193  -0.125  -3.225  0.00  0.00    +0.012 A 
ATOM     16  C   UNL     1       1.175   0.306  -4.536  0.00  0.00    +0.001 A 
ATOM     17  C   UNL     1      -0.029   0.511  -5.185  0.00  0.00    +0.004 A 
ATOM     18  C   UNL     1      -1.224   0.286  -4.527  0.00  0.00    +0.046 A 
ATOM     19  C   UNL     1      -1.221  -0.152  -3.213  0.00  0.00    +0.128 A 
BRANCH  19  20
ATOM     20  O   UNL     1      -2.395  -0.379  -2.567  0.00  0.00    -0.495 OA
ATOM     21  C   UNL     1      -3.597  -0.150  -3.306  0.00  0.00    +0.277 C 
ENDBRANCH  19  20
ENDBRANCH   9  14
ENDBRANCH   1  10
BRANCH   6  22
ATOM     22  O   UNL     1       2.196  -2.752  -2.417  0.00  0.00    -0.506 OA
ATOM     23  H   UNL     1       2.884  -2.964  -1.772  0.00  0.00    +0.292 HD
ENDBRANCH   6  22
BRANCH   4  24
ATOM     24  O   UNL     1       0.071  -6.714  -3.958  0.00  0.00    -0.487 OA
BRANCH  24  25
ATOM     25  C   UNL     1      -1.076  -7.564  -3.890  0.00  0.00    +0.264 C 
BRANCH  25  26
ATOM     26  C   UNL     1      -0.888  -8.734  -4.822  0.00  0.00    -0.010 A 
ATOM     27  C   UNL     1      -1.311  -8.646  -6.135  0.00  0.00    +0.008 A 
ATOM     28  C   UNL     1      -1.140  -9.719  -6.990  0.00  0.00    +0.020 A 
ATOM     29  C   UNL     1      -0.545 -10.881  -6.531  0.00  0.00    +0.041 A 
ATOM     30  C   UNL     1      -0.122 -10.968  -5.216  0.00  0.00    +0.020 A 
ATOM     31  C   UNL     1      -0.289  -9.893  -4.364  0.00  0.00    +0.008 A 
ATOM     32 CL   UNL     1      -0.330 -12.229  -7.604  0.00  0.00    -0.084 Cl
ENDBRANCH  25  26
ENDBRANCH  24  25
ENDBRANCH   4  24
TORSDOF 7
