REMARK  Name = ZINC39666793
REMARK  9 active torsions:
REMARK  status: ('A' for Active; 'I' for Inactive)
REMARK    1  A    between atoms: C_1  and  C_2
REMARK    2  A    between atoms: C_2  and  C_3
REMARK    3  A    between atoms: C_3  and  C_4
REMARK    4  A    between atoms: C_3  and  C_6
REMARK    5  A    between atoms: C_4  and  C_5
REMARK    6  A    between atoms: C_6  and  N_7
REMARK    7  A    between atoms: C_8  and  C_10
REMARK    8  A    between atoms: C_21  and  C_23
REMARK    9  A    between atoms: C_27  and  C_29
REMARK                            x       y       z     vdW  Elec       q    Type
REMARK                         _______ _______ _______ _____ _____    ______ ____
ROOT
ATOM      1  C   UNL     1      -2.606  -4.505  -2.181  0.00  0.00    +0.100 C 
ATOM      2  C   UNL     1      -3.724  -3.967  -1.260  0.00  0.00    +0.121 C 
ATOM      3  N   UNL     1      -4.812  -4.967  -1.368  0.00  0.00    -0.296 N 
ATOM      4  C   UNL     1      -4.110  -6.273  -1.401  0.00  0.00    +0.115 C 
ATOM      5  C   UNL     1      -2.863  -6.019  -2.271  0.00  0.00    -0.004 C 
ATOM      6  C   UNL     1      -3.135  -6.424  -3.716  0.00  0.00    -0.010 C 
ATOM      7  C   UNL     1      -3.331  -7.941  -3.788  0.00  0.00    -0.082 C 
ATOM      8  N   UNL     1      -2.127  -8.616  -3.288  0.00  0.00    +0.379 N 
ATOM      9  C   UNL     1      -1.924  -8.294  -1.870  0.00  0.00    -0.082 C 
ATOM     10  C   UNL     1      -1.669  -6.792  -1.717  0.00  0.00    -0.010 C 
ATOM     11  C   UNL     1      -6.140  -4.741  -1.424  0.00  0.00    +0.247 C 
ATOM     12  O   UNL     1      -6.561  -3.602  -1.474  0.00  0.00    -0.270 OA
ATOM     13  H   UNL     1      -2.235  -9.614  -3.393  0.00  0.00    -0.086 HD
ATOM     14  H   UNL     1      -1.326  -8.309  -3.819  0.00  0.00    -0.086 HD
ENDROOT
BRANCH  11  15
ATOM     15  C   UNL     1      -7.083  -5.879  -1.424  0.00  0.00    +0.037 A 
ATOM     16  C   UNL     1      -6.688  -7.118  -0.917  0.00  0.00    +0.014 A 
ATOM     17  C   UNL     1      -7.573  -8.175  -0.920  0.00  0.00    +0.016 A 
ATOM     18  C   UNL     1      -8.852  -8.010  -1.425  0.00  0.00    +0.021 A 
ATOM     19  C   UNL     1      -9.250  -6.784  -1.929  0.00  0.00    -0.036 A 
ATOM     20  C   UNL     1      -8.376  -5.717  -1.926  0.00  0.00    +0.017 A 
ATOM     21  C   UNL     1     -10.644  -6.612  -2.477  0.00  0.00    +0.045 C 
ATOM     22 BR   UNL     1     -10.059  -9.466  -1.427  0.00  0.00    -0.050 Br
ENDBRANCH  11  15
BRANCH   1  24
ATOM     23  N   UNL     1      -0.176  -4.082  -2.370  0.00  0.00    -0.315 N 
ATOM     24  C   UNL     1      -1.253  -4.238  -1.574  0.00  0.00    +0.218 C 
ATOM     25  O   UNL     1      -1.132  -4.162  -0.370  0.00  0.00    -0.275 OA
ATOM     26  H   UNL     1      -0.273  -4.142  -3.334  0.00  0.00    +0.149 HD
BRANCH  23  27
ATOM     27  C   UNL     1       1.139  -3.822  -1.781  0.00  0.00    +0.107 C 
BRANCH  27  28
ATOM     28  C   UNL     1       2.180  -3.686  -2.894  0.00  0.00    +0.006 C 
BRANCH  28  30
ATOM     29  C   UNL     1       2.846  -2.370  -4.910  0.00  0.00    +0.004 C 
ATOM     30  C   UNL     1       1.864  -2.451  -3.740  0.00  0.00    +0.002 C 
ENDBRANCH  28  30
BRANCH  28  31
ATOM     31  C   UNL     1       3.572  -3.539  -2.277  0.00  0.00    +0.002 C 
ATOM     32  C   UNL     1       3.925  -4.813  -1.507  0.00  0.00    +0.004 C 
ENDBRANCH  28  31
ENDBRANCH  27  28
ENDBRANCH  23  27
ENDBRANCH   1  24
TORSDOF 6
