REMARK  Name = ZINC21244191
REMARK  6 active torsions:
REMARK  status: ('A' for Active; 'I' for Inactive)
REMARK    1  A    between atoms: C_1  and  C_2
REMARK    2  A    between atoms: C_2  and  C_3
REMARK    3  A    between atoms: C_2  and  C_4
REMARK    4  A    between atoms: C_2  and  C_5
REMARK    5  A    between atoms: C_8  and  C_11
REMARK    6  A    between atoms: C_16  and  C_26
REMARK                            x       y       z     vdW  Elec       q    Type
REMARK                         _______ _______ _______ _____ _____    ______ ____
ROOT
ATOM      1  C   UNL     1      -0.606   9.392  -2.044  0.00  0.00    +0.032 C 
ATOM      2  C   UNL     1      -1.280   9.363  -0.685  0.00  0.00    +0.059 C 
ATOM      3  C   UNL     1      -2.354   8.286  -0.659  0.00  0.00    +0.017 C 
ATOM      4  C   UNL     1      -2.190   7.152  -1.351  0.00  0.00    +0.036 C 
ATOM      5  C   UNL     1      -3.145   5.981  -1.383  0.00  0.00    +0.136 C 
ATOM      6  N   UNL     1      -4.438   6.256  -0.793  0.00  0.00    -0.331 N 
ATOM      7  C   UNL     1      -4.562   6.550   0.562  0.00  0.00    +0.049 A 
ATOM      8  C   UNL     1      -5.227   5.694   1.427  0.00  0.00    +0.025 A 
ATOM      9  C   UNL     1      -5.288   6.000   2.775  0.00  0.00    +0.002 A 
ATOM     10  C   UNL     1      -4.688   7.147   3.261  0.00  0.00    +0.002 A 
ATOM     11  C   UNL     1      -4.038   8.014   2.398  0.00  0.00    +0.025 A 
ATOM     12  C   UNL     1      -3.997   7.720   1.047  0.00  0.00    +0.052 A 
ATOM     13  N   UNL     1      -3.430   8.583   0.114  0.00  0.00    -0.316 N 
ATOM     14  C   UNL     1      -1.038   6.969  -2.152  0.00  0.00    +0.163 C 
ATOM     15  O   UNL     1      -0.909   5.926  -2.762  0.00  0.00    -0.292 OA
ATOM     16  C   UNL     1       0.029   8.015  -2.276  0.00  0.00    +0.088 C 
ATOM     17  H   UNL     1      -5.343   6.236  -1.418  0.00  0.00    +0.147 HD
ATOM     18  H   UNL     1      -3.917   9.565   0.025  0.00  0.00    +0.152 HD
ENDROOT
BRANCH   5  19
ATOM     19  C   UNL     1      -2.517   4.829  -0.643  0.00  0.00    -0.019 A 
ATOM     20  C   UNL     1      -2.282   4.928   0.716  0.00  0.00    +0.009 A 
ATOM     21  C   UNL     1      -1.705   3.875   1.400  0.00  0.00    +0.050 A 
ATOM     22  C   UNL     1      -1.360   2.715   0.724  0.00  0.00    +0.166 A 
ATOM     23  C   UNL     1      -1.596   2.615  -0.645  0.00  0.00    +0.167 A 
ATOM     24  C   UNL     1      -2.174   3.676  -1.324  0.00  0.00    +0.055 A 
ATOM     25  O   UNL     1      -1.174   1.390  -1.072  0.00  0.00    -0.453 OA
ATOM     26  C   UNL     1      -0.305   0.899  -0.034  0.00  0.00    +0.466 C 
ATOM     27  O   UNL     1      -0.786   1.552   1.156  0.00  0.00    -0.453 OA
ENDBRANCH   5  19
BRANCH   1  31
ATOM     28  C   UNL     1       2.419  12.408  -2.097  0.00  0.00    -0.042 A 
ATOM     29  C   UNL     1       1.384  12.451  -3.012  0.00  0.00    +0.004 A 
ATOM     30  C   UNL     1       0.405  11.475  -2.995  0.00  0.00    +0.004 A 
ATOM     31  C   UNL     1       0.462  10.456  -2.063  0.00  0.00    -0.043 A 
ATOM     32  C   UNL     1       1.494  10.415  -1.145  0.00  0.00    +0.004 A 
ATOM     33  C   UNL     1       2.475  11.389  -1.165  0.00  0.00    +0.004 A 
BRANCH  28  35
ATOM     34  C   UNL     1       2.845  14.841  -1.885  0.00  0.00    +0.015 C 
ATOM     35  C   UNL     1       3.486  13.472  -2.116  0.00  0.00    -0.013 C 
ATOM     36  C   UNL     1       4.505  13.192  -1.009  0.00  0.00    +0.015 C 
ATOM     37  C   UNL     1       4.192  13.461  -3.473  0.00  0.00    +0.015 C 
ENDBRANCH  28  35
ENDBRANCH   1  31
TORSDOF 3
