REMARK  Name = ZINC17242536
REMARK  6 active torsions:
REMARK  status: ('A' for Active; 'I' for Inactive)
REMARK    1  A    between atoms: C_1  and  C_2
REMARK    2  A    between atoms: C_2  and  C_33
REMARK    3  A    between atoms: C_6  and  C_27
REMARK    4  A    between atoms: C_11  and  S_15
REMARK    5  A    between atoms: S_15  and  C_16
REMARK    6  A    between atoms: C_16  and  C_17
REMARK                            x       y       z     vdW  Elec       q    Type
REMARK                         _______ _______ _______ _____ _____    ______ ____
ROOT
ATOM      1  C   UNL     1      -0.019   1.526   0.010  0.00  0.00    +0.011 C 
ATOM      2  C   UNL     1       0.002  -0.004   0.002  0.00  0.00    -0.023 C 
ATOM      3  C   UNL     1       0.742  -0.502  -1.244  0.00  0.00    +0.086 C 
ATOM      4  C   UNL     1       2.171  -0.039  -1.182  0.00  0.00    +0.162 C 
ATOM      5  C   UNL     1       2.812   0.186   0.049  0.00  0.00    +0.025 C 
ATOM      6  C   UNL     1       4.239   0.673   0.026  0.00  0.00    +0.099 C 
ATOM      7  C   UNL     1       4.905   0.470   1.355  0.00  0.00    +0.069 A 
ATOM      8  C   UNL     1       4.172   0.249   2.479  0.00  0.00    +0.112 A 
ATOM      9  N   UNL     1       4.815   0.075   3.676  0.00  0.00    -0.322 N 
ATOM     10  C   UNL     1       6.176   0.122   3.734  0.00  0.00    +0.172 A 
ATOM     11  N   UNL     1       6.897   0.333   2.652  0.00  0.00    -0.185 NA
ATOM     12  C   UNL     1       6.313   0.509   1.457  0.00  0.00    +0.280 A 
ATOM     13  O   UNL     1       6.996   0.703   0.462  0.00  0.00    -0.265 OA
ATOM     14  N   UNL     1       2.800   0.197   2.410  0.00  0.00    -0.304 N 
ATOM     15  C   UNL     1       2.169  -0.026   1.216  0.00  0.00    +0.017 C 
ATOM     16  C   UNL     1       0.742  -0.515   1.240  0.00  0.00    +0.058 C 
ATOM     17  O   UNL     1       2.784   0.143  -2.215  0.00  0.00    -0.292 OA
ATOM     18  C   UNL     1      -1.432  -0.538   0.002  0.00  0.00    +0.011 C 
ATOM     19  H   UNL     1       2.273   0.319   3.216  0.00  0.00    +0.153 HD
ATOM     20  H   UNL     1       4.302  -0.083   4.484  0.00  0.00    +0.169 HD
ENDROOT
BRANCH   6  21
ATOM     21  C   UNL     1       4.254   2.142  -0.312  0.00  0.00    +0.002 A 
ATOM     22  C   UNL     1       4.839   2.769  -1.361  0.00  0.00    +0.012 A 
ATOM     23  C   UNL     1       4.720   4.142  -1.472  0.00  0.00    +0.008 A 
ATOM     24  C   UNL     1       4.021   4.820  -0.529  0.00  0.00    +0.045 A 
ATOM     25  S   UNL     1       3.498   3.504   0.559  0.00  0.00    -0.101 S 
ENDBRANCH   6  21
BRANCH  10  26
ATOM     26  S   UNL     1       6.985  -0.102   5.283  0.00  0.00    -0.083 S 
BRANCH  26  27
ATOM     27  C   UNL     1       8.748   0.039   4.881  0.00  0.00    +0.115 C 
BRANCH  27  28
ATOM     28  C   UNL     1       9.565  -0.136   6.136  0.00  0.00    -0.002 A 
ATOM     29  C   UNL     1       9.885   0.963   6.912  0.00  0.00    +0.007 A 
ATOM     30  C   UNL     1      10.633   0.803   8.062  0.00  0.00    +0.000 A 
ATOM     31  C   UNL     1      11.063  -0.456   8.439  0.00  0.00    +0.003 A 
ATOM     32  C   UNL     1      10.744  -1.556   7.666  0.00  0.00    +0.038 A 
ATOM     33  C   UNL     1       9.989  -1.397   6.516  0.00  0.00    +0.127 A 
ATOM     34  F   UNL     1       9.673  -2.473   5.761  0.00  0.00    -0.205 F 
ENDBRANCH  27  28
ENDBRANCH  26  27
ENDBRANCH  10  26
TORSDOF 4
