REMARK  Name = ZINC38688197
REMARK  7 active torsions:
REMARK  status: ('A' for Active; 'I' for Inactive)
REMARK    1  A    between atoms: C_8  and  C_10
REMARK    2  A    between atoms: C_10  and  O_12
REMARK    3  A    between atoms: O_12  and  C_13
REMARK    4  A    between atoms: C_20  and  N_35
REMARK    5  A    between atoms: C_21  and  C_33
REMARK    6  A    between atoms: C_22  and  C_24
REMARK    7  A    between atoms: C_27  and  N_30
REMARK                            x       y       z     vdW  Elec       q    Type
REMARK                         _______ _______ _______ _____ _____    ______ ____
ROOT
ATOM      1  C   UNL     1       4.692  -5.650  -0.107  0.00  0.00    +0.135 A 
ATOM      2  C   UNL     1       3.642  -6.555  -0.180  0.00  0.00    +0.047 A 
ATOM      3  C   UNL     1       3.901  -7.910  -0.224  0.00  0.00    +0.012 A 
ATOM      4  C   UNL     1       5.205  -8.373  -0.196  0.00  0.00    +0.008 A 
ATOM      5  C   UNL     1       6.257  -7.474  -0.124  0.00  0.00    +0.138 A 
ATOM      6  C   UNL     1       5.999  -6.109  -0.085  0.00  0.00    +0.093 A 
ATOM      7  O   UNL     1       7.542  -7.907  -0.096  0.00  0.00    -0.441 OA
ATOM      8  C   UNL     1       7.813  -9.178   0.246  0.00  0.00    +0.199 C 
ATOM      9  C   UNL     1       6.871 -10.150   0.198  0.00  0.00    +0.098 C 
ATOM     10  C   UNL     1       5.466  -9.855  -0.245  0.00  0.00    +0.098 C 
ENDROOT
BRANCH  10  11
ATOM     11  C   UNL     1       5.274 -10.349  -1.656  0.00  0.00    -0.035 A 
ATOM     12  C   UNL     1       6.053  -9.841  -2.679  0.00  0.00    +0.007 A 
ATOM     13  C   UNL     1       5.877 -10.294  -3.973  0.00  0.00    +0.033 A 
ATOM     14  C   UNL     1       4.922 -11.255  -4.244  0.00  0.00    +0.126 A 
ATOM     15  C   UNL     1       4.143 -11.764  -3.222  0.00  0.00    +0.033 A 
ATOM     16  C   UNL     1       4.322 -11.314  -1.927  0.00  0.00    +0.007 A 
BRANCH  14  17
ATOM     17  N   UNL     1       4.732 -11.740  -5.630  0.00  0.00    +0.056 N 
ATOM     18  O   UNL     1       5.414 -11.295  -6.524  0.00  0.00    -0.126 OA
ATOM     19  O   UNL     1       3.897 -12.581  -5.867  0.00  0.00    -0.126 OA
ENDBRANCH  14  17
ENDBRANCH  10  11
BRANCH   8  20
ATOM     20  N   UNL     1       9.082  -9.500   0.657  0.00  0.00    -0.328 N 
ATOM     21  H   UNL     1       9.768  -8.815   0.697  0.00  0.00    +0.145 HD
ATOM     22  H   UNL     1       9.294 -10.413   0.908  0.00  0.00    +0.145 HD
ENDBRANCH   8  20
BRANCH   9  23
ATOM     23  C   UNL     1       7.222 -11.486   0.577  0.00  0.00    +0.101 C 
ATOM     24  N   UNL     1       7.500 -12.546   0.876  0.00  0.00    -0.191 NA
ENDBRANCH   9  23
BRANCH   1  25
ATOM     25  O   UNL     1       4.439  -4.316  -0.064  0.00  0.00    -0.422 OA
BRANCH  25  26
ATOM     26  C   UNL     1       4.621  -3.599  -1.192  0.00  0.00    +0.353 C 
ATOM     27  O   UNL     1       5.085  -4.131  -2.182  0.00  0.00    -0.244 OA
BRANCH  26  35
ATOM     28  C   UNL     1       3.560   2.337  -2.703  0.00  0.00    +0.001 A 
ATOM     29  C   UNL     1       3.069   2.624  -1.435  0.00  0.00    +0.001 A 
ATOM     30  C   UNL     1       3.019   1.626  -0.484  0.00  0.00    +0.016 A 
ATOM     31  C   UNL     1       3.457   0.358  -0.805  0.00  0.00    +0.022 A 
ATOM     32  C   UNL     1       3.961   0.037  -2.087  0.00  0.00    +0.008 A 
ATOM     33  C   UNL     1       3.994   1.094  -3.034  0.00  0.00    +0.010 A 
ATOM     34  C   UNL     1       4.367  -1.299  -2.259  0.00  0.00    +0.070 A 
ATOM     35  C   UNL     1       4.259  -2.179  -1.225  0.00  0.00    +0.116 A 
ATOM     36  S   UNL     1       3.569  -1.177   0.080  0.00  0.00    -0.080 S 
ATOM     37 CL   UNL     1       5.005  -1.825  -3.785  0.00  0.00    -0.082 Cl
ENDBRANCH  26  35
ENDBRANCH  25  26
ENDBRANCH   1  25
TORSDOF 7
