REMARK  Name = ZINC64006986
REMARK  10 active torsions:
REMARK  status: ('A' for Active; 'I' for Inactive)
REMARK    1  A    between atoms: C_1  and  C_2
REMARK    2  A    between atoms: C_4  and  C_9
REMARK    3  A    between atoms: N_6  and  C_8
REMARK    4  A    between atoms: C_9  and  N_10
REMARK    5  A    between atoms: N_10  and  C_11
REMARK    6  A    between atoms: N_10  and  C_12
REMARK    7  A    between atoms: C_12  and  C_14
REMARK    8  A    between atoms: C_12  and  C_22
REMARK    9  A    between atoms: C_14  and  C_15
REMARK   10  A    between atoms: C_28  and  C_30
REMARK                            x       y       z     vdW  Elec       q    Type
REMARK                         _______ _______ _______ _____ _____    ______ ____
ROOT
ATOM      1  C   UNL     1      -0.550  -0.671  -4.492  0.00  0.00    -0.061 C 
ENDROOT
BRANCH   1   2
ATOM      2  C   UNL     1      -1.740  -1.532  -4.920  0.00  0.00    -0.021 C 
ATOM      3  C   UNL     1      -1.522  -2.973  -4.453  0.00  0.00    +0.021 C 
ATOM      4  C   UNL     1      -2.731  -3.824  -4.853  0.00  0.00    +0.108 C 
ATOM      5  N   UNL     1      -2.948  -3.686  -6.299  0.00  0.00    -0.300 N 
ATOM      6  C   UNL     1      -3.081  -2.338  -6.868  0.00  0.00    +0.108 C 
ATOM      7  C   UNL     1      -1.868  -1.503  -6.445  0.00  0.00    +0.021 C 
ATOM      8  C   UNL     1      -3.025  -4.775  -7.090  0.00  0.00    +0.242 C 
ATOM      9  O   UNL     1      -2.913  -5.883  -6.608  0.00  0.00    -0.273 OA
BRANCH   8  10
ATOM     10  C   UNL     1      -3.248  -4.617  -8.571  0.00  0.00    +0.190 C 
ATOM     11  C   UNL     1      -4.583  -3.954  -8.829  0.00  0.00    +0.016 C 
ATOM     12  C   UNL     1      -5.308  -4.840  -9.549  0.00  0.00    -0.004 A 
ATOM     13  C   UNL     1      -6.666  -4.795 -10.104  0.00  0.00    +0.010 A 
ATOM     14  C   UNL     1      -7.128  -5.862 -10.796  0.00  0.00    +0.001 A 
ATOM     15  C   UNL     1      -6.343  -7.006 -10.996  0.00  0.00    +0.002 A 
ATOM     16  C   UNL     1      -5.087  -7.122 -10.517  0.00  0.00    +0.026 A 
ATOM     17  C   UNL     1      -4.500  -6.060  -9.774  0.00  0.00    +0.043 A 
ATOM     18  N   UNL     1      -3.320  -5.933  -9.216  0.00  0.00    -0.370 N 
ATOM     19  H   UNL     1      -2.613  -6.597  -9.226  0.00  0.00    +0.161 HD
ENDBRANCH   8  10
ENDBRANCH   1   2
BRANCH   1  20
ATOM     20  N   UNL     1      -0.538  -0.545  -3.029  0.00  0.00    +0.383 N 
ATOM     21  C   UNL     1      -1.816   0.019  -2.575  0.00  0.00    -0.095 C 
ATOM     22  H   UNL     1      -0.407  -1.456  -2.614  0.00  0.00    -0.081 HD
BRANCH  20  23
ATOM     23  C   UNL     1       0.560   0.341  -2.622  0.00  0.00    -0.045 C 
BRANCH  23  26
ATOM     24  C   UNL     1       0.173   2.796  -0.533  0.00  0.00    +0.030 C 
ATOM     25  C   UNL     1      -0.167   1.337  -0.222  0.00  0.00    +0.095 C 
ATOM     26  C   UNL     1       0.622   0.407  -1.118  0.00  0.00    -0.053 C 
ATOM     27  C   UNL     1       1.373  -0.335  -0.329  0.00  0.00    +0.086 C 
ATOM     28  N   UNL     1       1.187  -0.017   1.002  0.00  0.00    -0.277 N 
ATOM     29  N   UNL     1       0.267   0.986   1.145  0.00  0.00    -0.234 NA
ATOM     30  C   UNL     1       1.881  -0.670   2.115  0.00  0.00    +0.149 C 
ATOM     31  H   UNL     1      -0.515   0.684   1.706  0.00  0.00    +0.145 HD
ENDBRANCH  23  26
ENDBRANCH  20  23
ENDBRANCH   1  20
BRANCH   1  32
ATOM     32  C   UNL     1       0.750  -1.330  -4.958  0.00  0.00    +0.023 C 
BRANCH  32  33
ATOM     33  C   UNL     1       0.897  -1.153  -6.447  0.00  0.00    -0.014 A 
ATOM     34  C   UNL     1       0.863  -2.255  -7.281  0.00  0.00    +0.006 A 
ATOM     35  C   UNL     1       0.998  -2.093  -8.647  0.00  0.00    +0.000 A 
ATOM     36  C   UNL     1       1.167  -0.829  -9.181  0.00  0.00    +0.003 A 
ATOM     37  C   UNL     1       1.202   0.274  -8.350  0.00  0.00    +0.038 A 
ATOM     38  C   UNL     1       1.061   0.114  -6.981  0.00  0.00    +0.126 A 
ATOM     39  F   UNL     1       1.090   1.192  -6.168  0.00  0.00    -0.205 F 
ENDBRANCH  32  33
ENDBRANCH   1  32
TORSDOF 7
