REMARK  Name = ZINC01336087
REMARK  9 active torsions:
REMARK  status: ('A' for Active; 'I' for Inactive)
REMARK    1  A    between atoms: C_1  and  C_2
REMARK    2  A    between atoms: C_2  and  C_4
REMARK    3  A    between atoms: C_9  and  N_10
REMARK    4  A    between atoms: N_10  and  C_11
REMARK    5  A    between atoms: C_11  and  C_13
REMARK    6  A    between atoms: C_11  and  C_20
REMARK    7  A    between atoms: N_22  and  C_23
REMARK    8  A    between atoms: C_29  and  C_31
REMARK    9  A    between atoms: C_31  and  C_32
REMARK                            x       y       z     vdW  Elec       q    Type
REMARK                         _______ _______ _______ _____ _____    ______ ____
ROOT
ATOM      1  N   UNL     1       0.157  -3.088   0.076  0.00  0.00    -0.254 N 
ATOM      2  C   UNL     1       0.897  -3.580   1.090  0.00  0.00    +0.226 C 
ATOM      3  O   UNL     1       1.993  -4.049   0.868  0.00  0.00    -0.275 OA
ENDROOT
BRANCH   1   9
ATOM      4  C   UNL     1      -1.103  -1.077   0.578  0.00  0.00    +0.042 A 
ATOM      5  C   UNL     1      -2.334  -0.456   0.837  0.00  0.00    +0.062 A 
ATOM      6  C   UNL     1      -3.490  -1.205   0.866  0.00  0.00    +0.167 A 
ATOM      7  C   UNL     1      -3.441  -2.584   0.636  0.00  0.00    +0.168 A 
ATOM      8  C   UNL     1      -2.228  -3.205   0.378  0.00  0.00    +0.073 A 
ATOM      9  C   UNL     1      -1.059  -2.463   0.342  0.00  0.00    +0.052 A 
ATOM     10  O   UNL     1      -4.707  -3.083   0.720  0.00  0.00    -0.453 OA
ATOM     11  C   UNL     1      -5.474  -2.077   1.405  0.00  0.00    +0.466 C 
ATOM     12  O   UNL     1      -4.790  -0.849   1.093  0.00  0.00    -0.453 OA
BRANCH   4  14
ATOM     13  C   UNL     1       0.076   1.200   0.799  0.00  0.00    +0.091 C 
ATOM     14  C   UNL     1       0.128  -0.285   0.546  0.00  0.00    +0.162 C 
ATOM     15  O   UNL     1       1.190  -0.824   0.316  0.00  0.00    -0.292 OA
ENDBRANCH   4  14
ENDBRANCH   1   9
BRANCH   1  16
ATOM     16  C   UNL     1       0.632  -3.211  -1.304  0.00  0.00    +0.197 C 
BRANCH  16  17
ATOM     17  C   UNL     1       1.917  -2.440  -1.464  0.00  0.00    -0.018 A 
ATOM     18  C   UNL     1       3.117  -3.011  -1.081  0.00  0.00    +0.009 A 
ATOM     19  C   UNL     1       4.296  -2.306  -1.228  0.00  0.00    +0.038 A 
ATOM     20  C   UNL     1       4.276  -1.027  -1.757  0.00  0.00    +0.123 A 
ATOM     21  C   UNL     1       3.074  -0.456  -2.139  0.00  0.00    +0.038 A 
ATOM     22  C   UNL     1       1.897  -1.165  -1.997  0.00  0.00    +0.009 A 
ATOM     23  F   UNL     1       5.428  -0.336  -1.900  0.00  0.00    -0.205 F 
ENDBRANCH  16  17
BRANCH  16  24
ATOM     24  C   UNL     1       0.874  -4.663  -1.625  0.00  0.00    +0.239 C 
ATOM     25  O   UNL     1       0.670  -5.512  -0.783  0.00  0.00    -0.273 OA
ATOM     26  N   UNL     1       1.317  -5.019  -2.847  0.00  0.00    -0.311 N 
ATOM     27  H   UNL     1       1.481  -4.340  -3.520  0.00  0.00    +0.149 HD
BRANCH  26  28
ATOM     28  C   UNL     1       1.552  -6.431  -3.159  0.00  0.00    +0.073 C 
ATOM     29  C   UNL     1       2.955  -6.828  -2.695  0.00  0.00    +0.022 C 
ATOM     30  C   UNL     1       3.201  -8.303  -3.021  0.00  0.00    +0.002 C 
ATOM     31  C   UNL     1       3.083  -8.518  -4.531  0.00  0.00    +0.000 C 
ATOM     32  C   UNL     1       1.680  -8.121  -4.994  0.00  0.00    +0.002 C 
ATOM     33  C   UNL     1       1.434  -6.646  -4.669  0.00  0.00    +0.022 C 
ENDBRANCH  26  28
ENDBRANCH  16  24
ENDBRANCH   1  16
BRANCH   2  34
ATOM     34  C   UNL     1       0.362  -3.546   2.498  0.00  0.00    +0.138 C 
BRANCH  34  35
ATOM     35  C   UNL     1       1.376  -4.152   3.435  0.00  0.00    -0.001 A 
ATOM     36  C   UNL     1       2.381  -3.546   4.112  0.00  0.00    +0.011 A 
ATOM     37  C   UNL     1       3.198  -4.310   4.925  0.00  0.00    +0.008 A 
ATOM     38  C   UNL     1       2.969  -5.643   5.021  0.00  0.00    +0.045 A 
ATOM     39  S   UNL     1       1.559  -5.853   3.946  0.00  0.00    -0.101 S 
ENDBRANCH  34  35
ENDBRANCH   2  34
TORSDOF 8
