REMARK  Name = ZINC09177679
REMARK  11 active torsions:
REMARK  status: ('A' for Active; 'I' for Inactive)
REMARK    1  A    between atoms: C_1  and  N_56
REMARK    2  A    between atoms: C_2  and  N_56
REMARK    3  A    between atoms: C_3  and  C_4
REMARK    4  A    between atoms: C_3  and  N_56
REMARK    5  A    between atoms: C_4  and  N_5
REMARK    6  A    between atoms: C_6  and  C_22
REMARK    7  A    between atoms: C_9  and  C_10
REMARK    8  A    between atoms: C_9  and  O_17
REMARK    9  A    between atoms: C_26  and  O_28
REMARK   10  A    between atoms: O_28  and  C_29
REMARK   11  A    between atoms: C_29  and  C_30
REMARK                            x       y       z     vdW  Elec       q    Type
REMARK                         _______ _______ _______ _____ _____    ______ ____
ROOT
ATOM      1  N   UNL     1       1.278  -0.370   0.760  0.00  0.00    -0.285 N 
ATOM      2  C   UNL     1       2.160   0.722   0.340  0.00  0.00    +0.144 C 
ATOM      3  C   UNL     1       1.321   1.979   0.335  0.00  0.00    +0.071 C 
ATOM      4  C   UNL     1       1.736   3.252   0.003  0.00  0.00    +0.133 C 
ATOM      5  C   UNL     1       0.033   1.589   0.735  0.00  0.00    +0.249 C 
ATOM      6  O   UNL     1      -0.932   2.323   0.849  0.00  0.00    -0.282 OA
ATOM      7  C   UNL     1       0.050   0.123   0.989  0.00  0.00    +0.288 C 
ATOM      8  O   UNL     1      -0.907  -0.532   1.351  0.00  0.00    -0.266 OA
ENDROOT
BRANCH   4   9
ATOM      9  C   UNL     1       0.754   4.346  -0.093  0.00  0.00    +0.017 A 
ATOM     10  C   UNL     1      -0.395   4.191  -0.875  0.00  0.00    +0.013 A 
ATOM     11  C   UNL     1      -1.312   5.216  -0.956  0.00  0.00    +0.021 A 
ATOM     12  C   UNL     1      -1.092   6.403  -0.274  0.00  0.00    +0.041 A 
ATOM     13  C   UNL     1       0.047   6.565   0.497  0.00  0.00    +0.021 A 
ATOM     14  C   UNL     1       0.970   5.546   0.592  0.00  0.00    +0.013 A 
ATOM     15 CL   UNL     1      -2.250   7.691  -0.387  0.00  0.00    -0.084 Cl
ENDBRANCH   4   9
BRANCH   2  16
ATOM     16  C   UNL     1       3.301   0.867   1.314  0.00  0.00    -0.019 A 
ATOM     17  C   UNL     1       3.072   0.740   2.671  0.00  0.00    +0.006 A 
ATOM     18  C   UNL     1       4.117   0.866   3.567  0.00  0.00    +0.004 A 
ATOM     19  C   UNL     1       5.393   1.132   3.107  0.00  0.00    +0.045 A 
ATOM     20  C   UNL     1       5.625   1.266   1.746  0.00  0.00    +0.121 A 
ATOM     21  C   UNL     1       4.575   1.132   0.850  0.00  0.00    +0.051 A 
BRANCH  20  22
ATOM     22  O   UNL     1       6.879   1.527   1.292  0.00  0.00    -0.488 OA
BRANCH  22  23
ATOM     23  C   UNL     1       7.911   1.652   2.273  0.00  0.00    +0.256 C 
BRANCH  23  24
ATOM     24  C   UNL     1       9.223   1.940   1.588  0.00  0.00    +0.006 C 
ATOM     25  C   UNL     1      10.015   2.872   2.056  0.00  0.00    +0.007 C 
ENDBRANCH  23  24
ENDBRANCH  22  23
ENDBRANCH  20  22
ENDBRANCH   2  16
BRANCH   4  26
ATOM     26  O   UNL     1       3.043   3.495  -0.234  0.00  0.00    -0.506 OA
ATOM     27  H   UNL     1       3.167   4.462  -0.459  0.00  0.00    +0.292 HD
ENDBRANCH   4  26
BRANCH   1  28
ATOM     28  C   UNL     1       1.672  -1.774   0.906  0.00  0.00    +0.090 C 
BRANCH  28  29
ATOM     29  C   UNL     1       1.454  -2.505  -0.421  0.00  0.00    -0.060 C 
BRANCH  29  32
ATOM     30  C   UNL     1       1.437  -4.699  -1.444  0.00  0.00    -0.097 C 
ATOM     31  C   UNL     1       3.295  -4.032  -0.043  0.00  0.00    -0.097 C 
ATOM     32  N   UNL     1       1.836  -3.923  -0.252  0.00  0.00    +0.377 N 
ATOM     33  H   UNL     1       1.352  -4.303   0.571  0.00  0.00    -0.083 HD
ENDBRANCH  29  32
ENDBRANCH  28  29
ENDBRANCH   1  28
TORSDOF 9
