REMARK  Name = ZINC08868821
REMARK  11 active torsions:
REMARK  status: ('A' for Active; 'I' for Inactive)
REMARK    1  A    between atoms: C_1  and  C_2
REMARK    2  A    between atoms: C_2  and  C_3
REMARK    3  A    between atoms: N_12  and  C_13
REMARK    4  A    between atoms: C_13  and  C_14
REMARK    5  A    between atoms: C_14  and  N_66
REMARK    6  A    between atoms: C_15  and  N_66
REMARK    7  A    between atoms: C_16  and  N_66
REMARK    8  A    between atoms: C_17  and  C_19
REMARK    9  A    between atoms: N_24  and  S_25
REMARK   10  A    between atoms: S_25  and  C_28
REMARK   11  A    between atoms: C_31  and  C_34
REMARK                            x       y       z     vdW  Elec       q    Type
REMARK                         _______ _______ _______ _____ _____    ______ ____
ROOT
ATOM      1  C   UNL     1       8.348  -1.283   0.343  0.00  0.00    -0.021 A 
ATOM      2  C   UNL     1       9.713  -1.193   0.438  0.00  0.00    +0.006 A 
ATOM      3  C   UNL     1      10.378   0.003   0.214  0.00  0.00    +0.001 A 
ATOM      4  C   UNL     1       9.650   1.132  -0.114  0.00  0.00    +0.017 A 
ATOM      5  C   UNL     1       8.284   1.052  -0.211  0.00  0.00    +0.041 A 
ATOM      6  C   UNL     1       7.572  -0.149   0.011  0.00  0.00    +0.083 A 
ATOM      7  N   UNL     1       6.230  -0.067  -0.123  0.00  0.00    -0.224 NA
ATOM      8  C   UNL     1       5.620   1.051  -0.438  0.00  0.00    +0.168 A 
ATOM      9  S   UNL     1       6.982   2.197  -0.599  0.00  0.00    -0.052 S 
ATOM     10  N   UNL     1       4.264   1.283  -0.609  0.00  0.00    -0.251 N 
ATOM     11  C   UNL     1       3.383   0.276  -0.448  0.00  0.00    +0.240 C 
ATOM     12  O   UNL     1       3.766  -0.810  -0.069  0.00  0.00    -0.273 OA
ENDROOT
BRANCH  11  13
ATOM     13  C   UNL     1       1.922   0.500  -0.740  0.00  0.00    +0.166 C 
ATOM     14  C   UNL     1       1.126   0.672   0.578  0.00  0.00    +0.031 C 
ATOM     15  C   UNL     1      -0.302   0.257   0.137  0.00  0.00    +0.019 C 
ATOM     16  C   UNL     1      -0.035  -0.870  -0.883  0.00  0.00    +0.110 C 
ATOM     17  N   UNL     1       1.338  -0.692  -1.380  0.00  0.00    -0.165 NA
BRANCH  17  18
ATOM     18  S   UNL     1       2.101  -1.670  -2.477  0.00  0.00    +0.062 S 
ATOM     19  O   UNL     1       3.490  -1.388  -2.376  0.00  0.00    -0.153 OA
ATOM     20  O   UNL     1       1.574  -2.977  -2.292  0.00  0.00    -0.153 OA
BRANCH  18  21
ATOM     21  C   UNL     1       1.596  -1.147  -4.082  0.00  0.00    +0.106 A 
ATOM     22  C   UNL     1       0.481  -1.709  -4.674  0.00  0.00    +0.029 A 
ATOM     23  C   UNL     1       0.082  -1.294  -5.931  0.00  0.00    +0.005 A 
ATOM     24  C   UNL     1       0.805  -0.325  -6.601  0.00  0.00    -0.050 A 
ATOM     25  C   UNL     1       1.923   0.234  -6.011  0.00  0.00    +0.005 A 
ATOM     26  C   UNL     1       2.319  -0.177  -4.752  0.00  0.00    +0.029 A 
ATOM     27  C   UNL     1       0.374   0.122  -7.973  0.00  0.00    +0.044 C 
ENDBRANCH  18  21
ENDBRANCH  17  18
ENDBRANCH  11  13
BRANCH   1  29
ATOM     28  C   UNL     1       7.444  -3.325  -0.734  0.00  0.00    +0.009 C 
ATOM     29  C   UNL     1       7.668  -2.603   0.597  0.00  0.00    +0.034 C 
ENDBRANCH   1  29
BRANCH  10  30
ATOM     30  C   UNL     1       3.789   2.623  -0.965  0.00  0.00    +0.097 C 
BRANCH  30  31
ATOM     31  C   UNL     1       3.367   3.367   0.303  0.00  0.00    -0.060 C 
BRANCH  31  34
ATOM     32  C   UNL     1       1.562   4.533  -0.814  0.00  0.00    -0.097 C 
ATOM     33  C   UNL     1       2.618   5.516   1.131  0.00  0.00    -0.097 C 
ATOM     34  N   UNL     1       2.834   4.692  -0.077  0.00  0.00    +0.377 N 
ATOM     35  H   UNL     1       3.515   5.163  -0.685  0.00  0.00    -0.083 HD
ENDBRANCH  31  34
ENDBRANCH  30  31
ENDBRANCH  10  30
TORSDOF 7
