REMARK  Name = ZINC12042247
REMARK  12 active torsions:
REMARK  status: ('A' for Active; 'I' for Inactive)
REMARK    1  A    between atoms: C_1  and  C_2
REMARK    2  A    between atoms: C_5  and  C_11
REMARK    3  A    between atoms: C_11  and  C_12
REMARK    4  A    between atoms: C_17  and  C_20
REMARK    5  A    between atoms: C_20  and  C_22
REMARK    6  A    between atoms: C_20  and  N_29
REMARK    7  A    between atoms: C_22  and  C_23
REMARK    8  A    between atoms: N_29  and  C_30
REMARK    9  A    between atoms: C_31  and  C_33
REMARK   10  A    between atoms: C_33  and  N_72
REMARK   11  A    between atoms: C_34  and  N_72
REMARK   12  A    between atoms: C_35  and  N_72
REMARK                            x       y       z     vdW  Elec       q    Type
REMARK                         _______ _______ _______ _____ _____    ______ ____
ROOT
ATOM      1  C   UNL     1      -0.517   1.404  -3.586  0.00  0.00    +0.217 C 
ATOM      2  O   UNL     1      -1.464   2.110  -3.308  0.00  0.00    -0.276 OA
ATOM      3  N   UNL     1      -0.231   1.136  -4.875  0.00  0.00    -0.301 N 
ATOM      4  C   UNL     1       0.916   0.287  -5.226  0.00  0.00    +0.108 C 
ATOM      5  C   UNL     1       0.423  -0.848  -6.137  0.00  0.00    +0.024 C 
ATOM      6  C   UNL     1      -0.307  -0.248  -7.340  0.00  0.00    +0.013 C 
ATOM      7  C   UNL     1      -1.524   0.544  -6.858  0.00  0.00    +0.024 C 
ATOM      8  C   UNL     1      -1.057   1.691  -5.956  0.00  0.00    +0.108 C 
ENDROOT
BRANCH   1   9
ATOM      9  C   UNL     1       0.339   0.827  -2.488  0.00  0.00    +0.118 C 
BRANCH   9  13
ATOM     10  C   UNL     1       0.057   2.689   1.470  0.00  0.00    +0.028 C 
ATOM     11  C   UNL     1       0.131   1.166   1.337  0.00  0.00    +0.071 C 
ATOM     12  C   UNL     1       0.742   0.800  -0.019  0.00  0.00    +0.044 C 
ATOM     13  C   UNL     1      -0.198   1.282  -1.129  0.00  0.00    +0.082 C 
ATOM     14  N   UNL     1      -1.528   0.711  -0.913  0.00  0.00    -0.323 N 
ATOM     15  C   UNL     1      -1.967   0.411   0.318  0.00  0.00    +0.131 C 
ATOM     16  S   UNL     1      -3.540  -0.241   0.495  0.00  0.00    -0.019 S 
ATOM     17  N   UNL     1      -1.222   0.601   1.417  0.00  0.00    -0.324 N 
ATOM     18  H   UNL     1      -2.104   0.546  -1.676  0.00  0.00    +0.148 HD
ATOM     19  H   UNL     1      -1.583   0.358   2.284  0.00  0.00    +0.148 HD
ENDBRANCH   9  13
ENDBRANCH   1   9
BRANCH   6  20
ATOM     20  C   UNL     1      -0.768  -1.374  -8.269  0.00  0.00    +0.083 C 
BRANCH  20  21
ATOM     21  N   UNL     1       0.384  -2.198  -8.645  0.00  0.00    -0.302 N 
ATOM     22  C   UNL     1       1.562  -1.577  -9.256  0.00  0.00    +0.132 C 
ATOM     23  C   UNL     1       0.359  -3.528  -8.430  0.00  0.00    +0.199 C 
ATOM     24  O   UNL     1      -0.616  -4.043  -7.924  0.00  0.00    -0.278 OA
BRANCH  23  25
ATOM     25  C   UNL     1       1.543  -4.376  -8.816  0.00  0.00    +0.018 C 
BRANCH  25  28
ATOM     26  C   UNL     1       0.175  -6.314  -9.301  0.00  0.00    -0.096 C 
ATOM     27  C   UNL     1       2.481  -6.600  -8.621  0.00  0.00    -0.096 C 
ATOM     28  N   UNL     1       1.262  -5.781  -8.453  0.00  0.00    +0.382 N 
ATOM     29  H   UNL     1       0.968  -5.819  -7.470  0.00  0.00    -0.082 HD
ENDBRANCH  25  28
ENDBRANCH  23  25
ENDBRANCH  20  21
BRANCH  20  30
ATOM     30  C   UNL     1      -1.396  -0.771  -9.528  0.00  0.00    +0.058 C 
BRANCH  30  31
ATOM     31  C   UNL     1      -1.959  -1.875 -10.385  0.00  0.00    -0.046 A 
ATOM     32  C   UNL     1      -1.170  -2.471 -11.351  0.00  0.00    +0.004 A 
ATOM     33  C   UNL     1      -1.685  -3.486 -12.135  0.00  0.00    +0.000 A 
ATOM     34  C   UNL     1      -2.993  -3.899 -11.959  0.00  0.00    +0.000 A 
ATOM     35  C   UNL     1      -3.784  -3.300 -10.997  0.00  0.00    +0.000 A 
ATOM     36  C   UNL     1      -3.267  -2.288 -10.210  0.00  0.00    +0.004 A 
ENDBRANCH  30  31
ENDBRANCH  20  30
ENDBRANCH   6  20
TORSDOF 8
