REMARK  Name = ZINC64410606
REMARK  5 active torsions:
REMARK  status: ('A' for Active; 'I' for Inactive)
REMARK    1  A    between atoms: C_1  and  C_2
REMARK    2  A    between atoms: N_8  and  C_9
REMARK    3  A    between atoms: C_12  and  N_15
REMARK    4  A    between atoms: C_16  and  C_18
REMARK    5  A    between atoms: C_18  and  C_19
REMARK                            x       y       z     vdW  Elec       q    Type
REMARK                         _______ _______ _______ _____ _____    ______ ____
ROOT
ATOM      1  C   UNL     1       0.116  -4.790  -1.026  0.00  0.00    +0.033 A 
ATOM      2  C   UNL     1       0.197  -4.136  -2.248  0.00  0.00    +0.025 A 
ATOM      3  C   UNL     1       0.303  -4.865  -3.416  0.00  0.00    +0.025 A 
ATOM      4  C   UNL     1       0.327  -6.252  -3.368  0.00  0.00    +0.034 A 
ATOM      5  C   UNL     1       0.245  -6.907  -2.146  0.00  0.00    +0.025 A 
ATOM      6  C   UNL     1       0.146  -6.178  -0.978  0.00  0.00    +0.025 A 
ENDROOT
BRANCH   1  14
ATOM      7  C   UNL     1       2.551  -6.041   4.717  0.00  0.00    +0.067 C 
ATOM      8  C   UNL     1       1.851  -5.460   3.516  0.00  0.00    +0.061 A 
ATOM      9  C   UNL     1       1.229  -4.223   3.606  0.00  0.00    +0.028 A 
ATOM     10  C   UNL     1       0.598  -3.727   2.477  0.00  0.00    +0.047 A 
ATOM     11  C   UNL     1       0.628  -4.503   1.318  0.00  0.00    +0.145 A 
ATOM     12  N   UNL     1       1.248  -5.675   1.329  0.00  0.00    -0.134 NA
ATOM     13  N   UNL     1       1.835  -6.125   2.378  0.00  0.00    -0.153 NA
ATOM     14  N   UNL     1       0.009  -4.051   0.158  0.00  0.00    -0.298 N 
ATOM     15  H   UNL     1      -0.497  -3.223   0.169  0.00  0.00    +0.154 HD
ENDBRANCH   1  14
BRANCH   4  16
ATOM     16  N   UNL     1       0.433  -6.992  -4.553  0.00  0.00    -0.285 N 
ATOM     17  C   UNL     1       1.177  -6.525  -5.575  0.00  0.00    +0.221 C 
ATOM     18  O   UNL     1       1.692  -5.429  -5.499  0.00  0.00    -0.275 OA
ATOM     19  H   UNL     1      -0.029  -7.841  -4.638  0.00  0.00    +0.155 HD
BRANCH  17  20
ATOM     20  C   UNL     1       1.369  -7.363  -6.813  0.00  0.00    +0.129 C 
BRANCH  20  21
ATOM     21  C   UNL     1       2.235  -6.617  -7.796  0.00  0.00    -0.033 C 
ATOM     22  C   UNL     1       3.573  -6.734  -7.953  0.00  0.00    -0.001 A 
ATOM     23  C   UNL     1       4.585  -7.557  -7.281  0.00  0.00    +0.010 A 
ATOM     24  C   UNL     1       5.877  -7.452  -7.666  0.00  0.00    +0.001 A 
ATOM     25  C   UNL     1       6.273  -6.578  -8.688  0.00  0.00    +0.002 A 
ATOM     26  C   UNL     1       5.402  -5.789  -9.351  0.00  0.00    +0.026 A 
ATOM     27  C   UNL     1       4.017  -5.819  -9.029  0.00  0.00    +0.043 A 
ATOM     28  N   UNL     1       2.993  -5.162  -9.518  0.00  0.00    -0.380 N 
ATOM     29  C   UNL     1       1.781  -5.591  -8.810  0.00  0.00    +0.145 C 
ATOM     30  H   UNL     1       3.029  -4.505 -10.230  0.00  0.00    +0.160 HD
ENDBRANCH  20  21
ENDBRANCH  17  20
ENDBRANCH   4  16
TORSDOF 4
