REMARK  Name = ZINC11696681
REMARK  8 active torsions:
REMARK  status: ('A' for Active; 'I' for Inactive)
REMARK    1  A    between atoms: C_1  and  C_2
REMARK    2  A    between atoms: C_2  and  N_3
REMARK    3  A    between atoms: C_6  and  C_8
REMARK    4  A    between atoms: C_8  and  N_10
REMARK    5  A    between atoms: N_12  and  C_24
REMARK    6  A    between atoms: C_16  and  S_20
REMARK    7  A    between atoms: S_20  and  N_23
REMARK    8  A    between atoms: C_24  and  C_25
REMARK                            x       y       z     vdW  Elec       q    Type
REMARK                         _______ _______ _______ _____ _____    ______ ____
ROOT
ATOM      1  N   UNL     1       0.225   0.166  -5.318  0.00  0.00    -0.151 NA
ATOM      2  C   UNL     1       0.192   0.279  -6.641  0.00  0.00    +0.168 A 
ATOM      3  N   UNL     1      -0.661   1.022  -7.393  0.00  0.00    -0.310 N 
ATOM      4  C   UNL     1      -0.545   1.018  -8.770  0.00  0.00    +0.059 A 
ATOM      5  C   UNL     1      -1.309   1.702  -9.726  0.00  0.00    +0.029 A 
ATOM      6  C   UNL     1      -1.037   1.568 -11.067  0.00  0.00    +0.030 A 
ATOM      7  C   UNL     1      -0.006   0.758 -11.512  0.00  0.00    +0.106 A 
ATOM      8  C   UNL     1       0.764   0.072 -10.590  0.00  0.00    +0.045 A 
ATOM      9  C   UNL     1       0.493   0.205  -9.248  0.00  0.00    +0.041 A 
ATOM     10  S   UNL     1       1.201  -0.460  -7.764  0.00  0.00    -0.052 S 
ENDROOT
BRANCH   7  11
ATOM     11  S   UNL     1       0.323   0.603 -13.236  0.00  0.00    +0.056 S 
ATOM     12  O   UNL     1       0.990  -0.639 -13.412  0.00  0.00    -0.153 OA
ATOM     13  O   UNL     1      -0.887   0.920 -13.911  0.00  0.00    -0.153 OA
BRANCH  11  14
ATOM     14  N   UNL     1       1.411   1.786 -13.636  0.00  0.00    -0.204 NA
ATOM     15  H   UNL     1       1.736   2.396 -12.956  0.00  0.00    +0.144 HD
ATOM     16  H   UNL     1       1.722   1.869 -14.551  0.00  0.00    +0.144 HD
ENDBRANCH  11  14
ENDBRANCH   7  11
BRANCH   1  17
ATOM     17  C   UNL     1       1.144  -0.612  -4.736  0.00  0.00    +0.290 C 
ATOM     18  O   UNL     1       1.951  -1.217  -5.420  0.00  0.00    -0.266 OA
BRANCH  17  22
ATOM     19  N   UNL     1       0.688  -0.476  -1.203  0.00  0.00    -0.271 N 
ATOM     20  C   UNL     1       1.740  -1.323  -1.212  0.00  0.00    +0.109 A 
ATOM     21  C   UNL     1       2.087  -1.517  -2.506  0.00  0.00    +0.054 A 
ATOM     22  C   UNL     1       1.180  -0.738  -3.262  0.00  0.00    +0.149 A 
ATOM     23  N   UNL     1       0.371  -0.150  -2.405  0.00  0.00    -0.167 NA
BRANCH  19  25
ATOM     24  C   UNL     1      -0.019   1.526   0.010  0.00  0.00    +0.029 C 
ATOM     25  C   UNL     1       0.002  -0.004   0.002  0.00  0.00    +0.140 C 
ENDBRANCH  19  25
ENDBRANCH  17  22
ENDBRANCH   1  17
BRANCH   3  26
ATOM     26  C   UNL     1      -1.702   1.825  -6.746  0.00  0.00    +0.212 C 
BRANCH  26  27
ATOM     27  C   UNL     1      -1.176   3.170  -6.459  0.00  0.00    -0.084 C 
ATOM     28  C   UNL     1      -0.757   4.242  -6.230  0.00  0.00    +0.005 C 
ENDBRANCH  26  27
ENDBRANCH   3  26
TORSDOF 7
