REMARK  Name = ZINC36207471
REMARK  16 active torsions:
REMARK  status: ('A' for Active; 'I' for Inactive)
REMARK    1  A    between atoms: C_1  and  C_2
REMARK    2  A    between atoms: C_8  and  C_19
REMARK    3  A    between atoms: C_12  and  C_13
REMARK    4  A    between atoms: C_13  and  O_15
REMARK    5  A    between atoms: O_15  and  C_16
REMARK    6  A    between atoms: C_16  and  C_17
REMARK    7  A    between atoms: C_16  and  C_18
REMARK    8  A    between atoms: C_19  and  N_20
REMARK    9  A    between atoms: N_20  and  C_21
REMARK   10  A    between atoms: N_20  and  C_24
REMARK   11  A    between atoms: C_21  and  C_22
REMARK   12  A    between atoms: C_24  and  C_25
REMARK   13  A    between atoms: C_25  and  C_27
REMARK   14  A    between atoms: C_25  and  O_36
REMARK   15  A    between atoms: C_27  and  O_28
REMARK   16  A    between atoms: O_28  and  C_29
REMARK                            x       y       z     vdW  Elec       q    Type
REMARK                         _______ _______ _______ _____ _____    ______ ____
ROOT
ATOM      1  C   UNL     1       0.232  -3.332  -4.361  0.00  0.00    -0.003 C 
ENDROOT
BRANCH   1   9
ATOM      2  C   UNL     1       0.092   1.184   0.523  0.00  0.00    +0.046 C 
ATOM      3  C   UNL     1      -0.018  -0.315   0.411  0.00  0.00    -0.015 A 
ATOM      4  C   UNL     1       0.061  -0.930  -0.840  0.00  0.00    +0.076 A 
ATOM      5  C   UNL     1       0.250  -0.317  -2.175  0.00  0.00    +0.260 A 
ATOM      6  O   UNL     1       0.361   0.889  -2.298  0.00  0.00    -0.267 OA
ATOM      7  N   UNL     1       0.296  -1.129  -3.249  0.00  0.00    -0.312 N 
ATOM      8  H   UNL     1       0.419  -0.744  -4.130  0.00  0.00    +0.170 HD
ATOM      9  C   UNL     1       0.174  -2.474  -3.123  0.00  0.00    +0.094 A 
ATOM     10  N   UNL     1       0.006  -3.046  -1.962  0.00  0.00    -0.229 NA
ATOM     11  C   UNL     1      -0.053  -2.340  -0.841  0.00  0.00    +0.116 A 
ATOM     12  S   UNL     1      -0.264  -2.733   0.877  0.00  0.00    -0.062 S 
ATOM     13  C   UNL     1      -0.191  -1.074   1.532  0.00  0.00    +0.102 A 
BRANCH  13  14
ATOM     14  C   UNL     1      -0.293  -0.635   2.926  0.00  0.00    +0.346 C 
ATOM     15  O   UNL     1      -0.224   0.548   3.198  0.00  0.00    -0.244 OA
BRANCH  14  16
ATOM     16  O   UNL     1      -0.464  -1.544   3.908  0.00  0.00    -0.458 OA
BRANCH  16  17
ATOM     17  C   UNL     1      -0.555  -1.046   5.244  0.00  0.00    +0.171 C 
ATOM     18  C   UNL     1      -2.019  -0.753   5.579  0.00  0.00    +0.052 C 
ATOM     19  C   UNL     1      -0.009  -2.093   6.217  0.00  0.00    +0.052 C 
ENDBRANCH  16  17
ENDBRANCH  14  16
ENDBRANCH  13  14
ENDBRANCH   1   9
BRANCH   1  20
ATOM     20  N   UNL     1       0.078  -4.744  -3.985  0.00  0.00    +0.388 N 
ATOM     21  H   UNL     1       0.773  -4.986  -3.294  0.00  0.00    -0.081 HD
BRANCH  20  22
ATOM     22  C   UNL     1      -1.263  -4.958  -3.426  0.00  0.00    -0.051 C 
BRANCH  22  23
ATOM     23  C   UNL     1      -1.371  -6.368  -2.905  0.00  0.00    -0.053 C 
ATOM     24  C   UNL     1      -1.716  -6.582  -1.659  0.00  0.00    +0.002 C 
ENDBRANCH  22  23
ENDBRANCH  20  22
BRANCH  20  25
ATOM     25  C   UNL     1       0.254  -5.589  -5.173  0.00  0.00    -0.043 C 
BRANCH  25  26
ATOM     26  C   UNL     1       1.698  -5.479  -5.668  0.00  0.00    +0.135 C 
BRANCH  26  27
ATOM     27  O   UNL     1       2.589  -5.918  -4.641  0.00  0.00    -0.390 OA
ATOM     28  H   UNL     1       2.502  -6.855  -4.419  0.00  0.00    +0.210 HD
ENDBRANCH  26  27
BRANCH  26  29
ATOM     29  C   UNL     1       1.880  -6.354  -6.909  0.00  0.00    +0.258 C 
BRANCH  29  30
ATOM     30  O   UNL     1       3.193  -6.162  -7.440  0.00  0.00    -0.489 OA
BRANCH  30  31
ATOM     31  C   UNL     1       3.519  -6.872  -8.552  0.00  0.00    +0.121 A 
ATOM     32  C   UNL     1       2.593  -7.731  -9.124  0.00  0.00    +0.047 A 
ATOM     33  C   UNL     1       2.926  -8.452 -10.254  0.00  0.00    +0.023 A 
ATOM     34  C   UNL     1       4.184  -8.317 -10.816  0.00  0.00    +0.041 A 
ATOM     35  C   UNL     1       5.109  -7.461 -10.246  0.00  0.00    +0.023 A 
ATOM     36  C   UNL     1       4.777  -6.734  -9.120  0.00  0.00    +0.047 A 
ATOM     37 CL   UNL     1       4.601  -9.224 -12.236  0.00  0.00    -0.084 Cl
ENDBRANCH  30  31
ENDBRANCH  29  30
ENDBRANCH  26  29
ENDBRANCH  25  26
ENDBRANCH  20  25
ENDBRANCH   1  20
TORSDOF 13
