REMARK  Name = ZINC39666429
REMARK  11 active torsions:
REMARK  status: ('A' for Active; 'I' for Inactive)
REMARK    1  A    between atoms: C_1  and  C_2
REMARK    2  A    between atoms: C_2  and  C_4
REMARK    3  A    between atoms: C_2  and  O_31
REMARK    4  A    between atoms: C_4  and  N_5
REMARK    5  A    between atoms: C_6  and  C_8
REMARK    6  A    between atoms: C_19  and  C_21
REMARK    7  A    between atoms: C_24  and  O_29
REMARK    8  A    between atoms: C_26  and  O_27
REMARK    9  A    between atoms: O_27  and  C_28
REMARK   10  A    between atoms: O_29  and  C_30
REMARK   11  A    between atoms: O_31  and  C_32
REMARK                            x       y       z     vdW  Elec       q    Type
REMARK                         _______ _______ _______ _____ _____    ______ ____
ROOT
ATOM      1  C   UNL     1      -2.320  -4.064   0.459  0.00  0.00    +0.100 C 
ATOM      2  C   UNL     1      -1.515  -4.330  -0.832  0.00  0.00    +0.121 C 
ATOM      3  N   UNL     1      -2.112  -5.563  -1.398  0.00  0.00    -0.296 N 
ATOM      4  C   UNL     1      -3.567  -5.409  -1.163  0.00  0.00    +0.115 C 
ATOM      5  C   UNL     1      -3.667  -4.773   0.238  0.00  0.00    -0.004 C 
ATOM      6  C   UNL     1      -4.809  -3.762   0.277  0.00  0.00    -0.010 C 
ATOM      7  C   UNL     1      -6.142  -4.498   0.114  0.00  0.00    -0.082 C 
ATOM      8  N   UNL     1      -6.295  -5.482   1.192  0.00  0.00    +0.379 N 
ATOM      9  C   UNL     1      -5.246  -6.503   1.090  0.00  0.00    -0.082 C 
ATOM     10  C   UNL     1      -3.875  -5.852   1.295  0.00  0.00    -0.010 C 
ATOM     11  C   UNL     1      -1.475  -6.592  -1.992  0.00  0.00    +0.250 C 
ATOM     12  O   UNL     1      -0.260  -6.613  -2.033  0.00  0.00    -0.270 OA
ATOM     13  H   UNL     1      -6.224  -5.015   2.084  0.00  0.00    -0.086 HD
ATOM     14  H   UNL     1      -7.200  -5.922   1.117  0.00  0.00    -0.086 HD
ENDROOT
BRANCH  11  15
ATOM     15  C   UNL     1      -2.251  -7.691  -2.592  0.00  0.00    +0.079 A 
ATOM     16  C   UNL     1      -3.478  -7.428  -3.210  0.00  0.00    +0.020 A 
ATOM     17  C   UNL     1      -4.200  -8.457  -3.769  0.00  0.00    +0.046 A 
ATOM     18  C   UNL     1      -3.714  -9.760  -3.722  0.00  0.00    +0.124 A 
ATOM     19  C   UNL     1      -2.498 -10.032  -3.112  0.00  0.00    +0.092 A 
ATOM     20  C   UNL     1      -1.760  -9.004  -2.551  0.00  0.00    +0.136 A 
BRANCH  20  21
ATOM     21  O   UNL     1      -0.568  -9.267  -1.958  0.00  0.00    -0.494 OA
ATOM     22  C   UNL     1      -0.132 -10.628  -1.954  0.00  0.00    +0.277 C 
ENDBRANCH  20  21
BRANCH  18  23
ATOM     23  O   UNL     1      -4.432 -10.770  -4.276  0.00  0.00    -0.495 OA
ATOM     24  C   UNL     1      -5.675 -10.421  -4.888  0.00  0.00    +0.277 C 
ENDBRANCH  18  23
ENDBRANCH  11  15
BRANCH   1  26
ATOM     25  N   UNL     1      -2.647  -2.074   1.891  0.00  0.00    -0.312 N 
ATOM     26  C   UNL     1      -2.531  -2.584   0.649  0.00  0.00    +0.218 C 
ATOM     27  O   UNL     1      -2.598  -1.851  -0.316  0.00  0.00    -0.275 OA
ATOM     28  H   UNL     1      -2.593  -2.659   2.663  0.00  0.00    +0.149 HD
BRANCH  25  29
ATOM     29  C   UNL     1      -2.852  -0.635   2.076  0.00  0.00    +0.148 C 
BRANCH  29  31
ATOM     30  C   UNL     1      -3.287   1.158   3.761  0.00  0.00    +0.053 C 
ATOM     31  C   UNL     1      -2.949  -0.322   3.571  0.00  0.00    +0.187 C 
BRANCH  31  32
ATOM     32  O   UNL     1      -1.698  -0.609   4.200  0.00  0.00    -0.486 OA
BRANCH  32  33
ATOM     33  C   UNL     1      -1.724  -0.870   5.534  0.00  0.00    +0.139 A 
ATOM     34  C   UNL     1      -2.933  -0.898   6.213  0.00  0.00    +0.047 A 
ATOM     35  C   UNL     1      -2.957  -1.165   7.568  0.00  0.00    +0.004 A 
ATOM     36  C   UNL     1      -1.777  -1.403   8.248  0.00  0.00    +0.002 A 
ATOM     37  C   UNL     1      -0.570  -1.375   7.575  0.00  0.00    +0.023 A 
ATOM     38  C   UNL     1      -0.541  -1.115   6.217  0.00  0.00    +0.083 A 
ATOM     39 CL   UNL     1       0.974  -1.088   5.370  0.00  0.00    -0.080 Cl
ENDBRANCH  32  33
ENDBRANCH  31  32
ENDBRANCH  29  31
ENDBRANCH  25  29
ENDBRANCH   1  26
TORSDOF 8
