REMARK  Name = ZINC08862221
REMARK  7 active torsions:
REMARK  status: ('A' for Active; 'I' for Inactive)
REMARK    1  A    between atoms: C_1  and  C_2
REMARK    2  A    between atoms: C_2  and  C_4
REMARK    3  A    between atoms: C_2  and  S_18
REMARK    4  A    between atoms: C_9  and  C_12
REMARK    5  A    between atoms: S_18  and  C_19
REMARK    6  A    between atoms: C_22  and  C_25
REMARK    7  A    between atoms: N_23  and  N_24
REMARK                            x       y       z     vdW  Elec       q    Type
REMARK                         _______ _______ _______ _____ _____    ______ ____
ROOT
ATOM      1  C   UNL     1       1.401   1.976   0.139  0.00  0.00    +0.029 C 
ATOM      2  C   UNL     1      -0.046   1.504  -0.018  0.00  0.00    +0.137 C 
ENDROOT
BRANCH   2   3
ATOM      3  C   UNL     1      -0.079  -0.002  -0.078  0.00  0.00    +0.232 C 
ATOM      4  O   UNL     1      -0.372  -0.642   0.910  0.00  0.00    -0.274 OA
ATOM      5  N   UNL     1       0.217  -0.637  -1.229  0.00  0.00    -0.264 N 
ATOM      6  C   UNL     1       0.187  -2.025  -1.284  0.00  0.00    +0.165 A 
ATOM      7  N   UNL     1       0.441  -2.826  -2.302  0.00  0.00    -0.225 NA
ATOM      8  C   UNL     1       0.363  -4.142  -2.178  0.00  0.00    +0.080 A 
ATOM      9  C   UNL     1       0.013  -4.682  -0.972  0.00  0.00    +0.076 A 
ATOM     10  S   UNL     1      -0.199  -3.200   0.006  0.00  0.00    -0.060 S 
ATOM     11  H   UNL     1       0.452  -0.125  -2.019  0.00  0.00    +0.157 HD
BRANCH   8  12
ATOM     12  C   UNL     1       0.653  -5.022  -3.336  0.00  0.00    +0.001 A 
ATOM     13  C   UNL     1       0.576  -6.407  -3.199  0.00  0.00    +0.010 A 
ATOM     14  C   UNL     1       0.841  -7.221  -4.282  0.00  0.00    +0.001 A 
ATOM     15  C   UNL     1       1.195  -6.665  -5.498  0.00  0.00    +0.000 A 
ATOM     16  C   UNL     1       1.279  -5.291  -5.638  0.00  0.00    +0.001 A 
ATOM     17  C   UNL     1       1.010  -4.467  -4.564  0.00  0.00    +0.010 A 
ENDBRANCH   8  12
ENDBRANCH   2   3
BRANCH   2  18
ATOM     18  S   UNL     1      -1.023   2.073   1.396  0.00  0.00    -0.072 S 
BRANCH  18  19
ATOM     19  C   UNL     1      -0.941   3.814   1.143  0.00  0.00    +0.209 A 
ATOM     20  N   UNL     1      -0.317   4.432   0.166  0.00  0.00    -0.121 NA
ATOM     21  N   UNL     1      -0.461   5.703   0.283  0.00  0.00    -0.127 NA
ATOM     22  C   UNL     1      -1.186   5.976   1.343  0.00  0.00    +0.184 A 
ATOM     23  N   UNL     1      -1.520   4.775   1.924  0.00  0.00    -0.224 N 
BRANCH  22  24
ATOM     24  C   UNL     1      -1.575   7.320   1.820  0.00  0.00    +0.056 A 
ATOM     25  C   UNL     1      -1.440   7.652   3.168  0.00  0.00    +0.014 A 
ATOM     26  C   UNL     1      -1.804   8.909   3.607  0.00  0.00    +0.001 A 
ATOM     27  C   UNL     1      -2.303   9.840   2.713  0.00  0.00    +0.003 A 
ATOM     28  C   UNL     1      -2.440   9.520   1.375  0.00  0.00    +0.039 A 
ATOM     29  C   UNL     1      -2.074   8.267   0.920  0.00  0.00    +0.134 A 
ATOM     30  F   UNL     1      -2.202   7.956  -0.388  0.00  0.00    -0.205 F 
ENDBRANCH  22  24
BRANCH  23  31
ATOM     31  N   UNL     1      -2.272   4.582   3.048  0.00  0.00    -0.295 N 
ATOM     32  H   UNL     1      -1.705   4.655   3.879  0.00  0.00    +0.163 HD
ATOM     33  H   UNL     1      -3.046   5.228   3.080  0.00  0.00    +0.163 HD
ENDBRANCH  23  31
ENDBRANCH  18  19
ENDBRANCH   2  18
TORSDOF 6
