REMARK  Name = ZINC64726320
REMARK  9 active torsions:
REMARK  status: ('A' for Active; 'I' for Inactive)
REMARK    1  A    between atoms: C_1  and  C_2
REMARK    2  A    between atoms: C_2  and  C_4
REMARK    3  A    between atoms: C_2  and  N_17
REMARK    4  A    between atoms: N_17  and  C_18
REMARK    5  A    between atoms: C_18  and  C_19
REMARK    6  A    between atoms: C_19  and  C_21
REMARK    7  A    between atoms: C_19  and  C_29
REMARK    8  A    between atoms: C_24  and  O_27
REMARK    9  A    between atoms: O_27  and  C_28
REMARK                            x       y       z     vdW  Elec       q    Type
REMARK                         _______ _______ _______ _____ _____    ______ ____
ROOT
ATOM      1  C   UNL     1       2.214  -0.101   0.934  0.00  0.00    -0.069 C 
ENDROOT
BRANCH   1   2
ATOM      2  N   UNL     1       0.813  -0.499   1.128  0.00  0.00    +0.387 N 
ATOM      3  H   UNL     1       0.466  -0.099   1.987  0.00  0.00    -0.085 HD
ATOM      4  H   UNL     1       0.753  -1.505   1.177  0.00  0.00    -0.085 HD
BRANCH   2   6
ATOM      5  C   UNL     1      -0.005   1.516   0.001  0.00  0.00    -0.004 C 
ATOM      6  C   UNL     1       0.006  -0.014   0.001  0.00  0.00    +0.013 C 
BRANCH   6   7
ATOM      7  C   UNL     1      -1.405  -0.526   0.137  0.00  0.00    +0.206 C 
ATOM      8  O   UNL     1      -1.842  -0.818   1.230  0.00  0.00    -0.277 OA
ATOM      9  N   UNL     1      -2.182  -0.659  -0.957  0.00  0.00    -0.262 N 
ATOM     10  C   UNL     1      -1.645  -0.413  -2.304  0.00  0.00    +0.209 C 
ATOM     11  C   UNL     1      -2.664   0.356  -3.105  0.00  0.00    +0.235 C 
ATOM     12  O   UNL     1      -2.294   1.103  -3.987  0.00  0.00    -0.274 OA
ATOM     13  N   UNL     1      -3.981   0.224  -2.855  0.00  0.00    -0.283 N 
ATOM     14  C   UNL     1      -4.433  -0.592  -1.813  0.00  0.00    +0.055 A 
ATOM     15  C   UNL     1      -3.527  -1.044  -0.847  0.00  0.00    +0.058 A 
ATOM     16  C   UNL     1      -3.957  -1.850   0.191  0.00  0.00    +0.025 A 
ATOM     17  C   UNL     1      -5.290  -2.216   0.270  0.00  0.00    +0.002 A 
ATOM     18  C   UNL     1      -6.188  -1.778  -0.686  0.00  0.00    +0.002 A 
ATOM     19  C   UNL     1      -5.766  -0.960  -1.727  0.00  0.00    +0.025 A 
ATOM     20  H   UNL     1      -4.623   0.700  -3.405  0.00  0.00    +0.155 HD
ENDBRANCH   6   7
ENDBRANCH   2   6
ENDBRANCH   1   2
BRANCH   1  21
ATOM     21  C   UNL     1       3.055  -0.605   2.109  0.00  0.00    +0.030 C 
BRANCH  21  22
ATOM     22  C   UNL     1       3.065  -2.112   2.109  0.00  0.00    -0.036 C 
ATOM     23  C   UNL     1       2.617  -2.929   3.090  0.00  0.00    -0.001 A 
ATOM     24  C   UNL     1       2.011  -2.668   4.401  0.00  0.00    +0.010 A 
ATOM     25  C   UNL     1       1.658  -3.715   5.180  0.00  0.00    +0.001 A 
ATOM     26  C   UNL     1       1.857  -5.040   4.769  0.00  0.00    +0.002 A 
ATOM     27  C   UNL     1       2.408  -5.359   3.578  0.00  0.00    +0.026 A 
ATOM     28  C   UNL     1       2.816  -4.337   2.678  0.00  0.00    +0.043 A 
ATOM     29  N   UNL     1       3.365  -4.389   1.489  0.00  0.00    -0.380 N 
ATOM     30  C   UNL     1       3.572  -3.018   1.009  0.00  0.00    +0.145 C 
ATOM     31  H   UNL     1       3.594  -5.198   1.006  0.00  0.00    +0.160 HD
ENDBRANCH  21  22
BRANCH  21  32
ATOM     32  C   UNL     1       4.465  -0.093   1.973  0.00  0.00    -0.042 A 
ATOM     33  C   UNL     1       5.213  -0.418   0.856  0.00  0.00    +0.008 A 
ATOM     34  C   UNL     1       6.507   0.050   0.730  0.00  0.00    +0.046 A 
ATOM     35  C   UNL     1       7.056   0.846   1.724  0.00  0.00    +0.120 A 
ATOM     36  C   UNL     1       6.303   1.171   2.843  0.00  0.00    +0.046 A 
ATOM     37  C   UNL     1       5.008   0.705   2.963  0.00  0.00    +0.008 A 
BRANCH  35  38
ATOM     38  O   UNL     1       8.328   1.307   1.602  0.00  0.00    -0.495 OA
ATOM     39  C   UNL     1       8.828   2.122   2.664  0.00  0.00    +0.277 C 
ENDBRANCH  35  38
ENDBRANCH  21  32
ENDBRANCH   1  21
TORSDOF 7
