REMARK  Name = ZINC20171435
REMARK  7 active torsions:
REMARK  status: ('A' for Active; 'I' for Inactive)
REMARK    1  A    between atoms: C_4  and  C_7
REMARK    2  A    between atoms: C_7  and  N_8
REMARK    3  A    between atoms: N_11  and  C_14
REMARK    4  A    between atoms: C_14  and  C_15
REMARK    5  A    between atoms: N_17  and  N_18
REMARK    6  A    between atoms: C_19  and  C_20
REMARK    7  A    between atoms: C_29  and  O_30
REMARK                            x       y       z     vdW  Elec       q    Type
REMARK                         _______ _______ _______ _____ _____    ______ ____
ROOT
ATOM      1  C   UNL     1      -2.563   9.406   0.072  0.00  0.00    +0.216 C 
ATOM      2  O   UNL     1      -1.508  10.005   0.065  0.00  0.00    -0.276 OA
ATOM      3  N   UNL     1      -2.572   8.058   0.066  0.00  0.00    -0.209 N 
ATOM      4  H   UNL     1      -3.528   7.514   0.073  0.00  0.00    +0.177 HD
ENDROOT
BRANCH   3   5
ATOM      5  N   UNL     1      -1.363   7.350   0.052  0.00  0.00    -0.188 NA
ATOM      6  C   UNL     1      -1.372   6.050   0.046  0.00  0.00    +0.142 C 
BRANCH   6   7
ATOM      7  C   UNL     1      -0.104   5.307   0.031  0.00  0.00    +0.044 A 
ATOM      8  C   UNL     1      -0.096   3.845   0.024  0.00  0.00    -0.006 A 
ATOM      9  C   UNL     1      -1.286   3.107   0.031  0.00  0.00    +0.009 A 
ATOM     10  C   UNL     1      -1.234   1.745   0.017  0.00  0.00    +0.001 A 
ATOM     11  C   UNL     1      -0.013   1.076   0.008  0.00  0.00    +0.001 A 
ATOM     12  C   UNL     1       1.163   1.762   0.000  0.00  0.00    +0.008 A 
ATOM     13  C   UNL     1       1.148   3.168   0.008  0.00  0.00    -0.017 A 
ATOM     14  C   UNL     1       2.342   3.910   0.000  0.00  0.00    +0.012 A 
ATOM     15  C   UNL     1       2.316   5.269   0.007  0.00  0.00    +0.046 A 
ATOM     16  C   UNL     1       1.117   5.981   0.022  0.00  0.00    +0.126 A 
BRANCH  16  17
ATOM     17  O   UNL     1       1.138   7.338   0.028  0.00  0.00    -0.506 OA
ATOM     18  H   UNL     1       2.099   7.873   0.021  0.00  0.00    +0.292 HD
ENDBRANCH  16  17
ENDBRANCH   6   7
ENDBRANCH   3   5
BRANCH   1  19
ATOM     19  C   UNL     1      -3.863  10.168   0.088  0.00  0.00    +0.020 C 
BRANCH  19  23
ATOM     20  N   UNL     1      -3.815  14.281   1.051  0.00  0.00    -0.302 NA
ATOM     21  C   UNL     1      -4.470  13.874  -0.200  0.00  0.00    +0.066 C 
ATOM     22  C   UNL     1      -4.814  12.384  -0.132  0.00  0.00    -0.063 C 
ATOM     23  N   UNL     1      -3.585  11.611   0.091  0.00  0.00    +0.387 N 
ATOM     24  C   UNL     1      -2.929  12.017   1.342  0.00  0.00    -0.063 C 
ATOM     25  C   UNL     1      -2.586  13.507   1.274  0.00  0.00    +0.066 C 
ATOM     26  H   UNL     1      -2.894  11.823  -0.738  0.00  0.00    -0.081 HD
BRANCH  20  27
ATOM     27  C   UNL     1      -3.537  15.723   1.055  0.00  0.00    +0.119 C 
BRANCH  27  31
ATOM     28  C   UNL     1      -1.036  16.683   4.382  0.00  0.00    +0.000 A 
ATOM     29  C   UNL     1      -0.470  16.343   3.168  0.00  0.00    +0.000 A 
ATOM     30  C   UNL     1      -1.279  16.032   2.091  0.00  0.00    +0.005 A 
ATOM     31  C   UNL     1      -2.655  16.062   2.229  0.00  0.00    -0.033 A 
ATOM     32  C   UNL     1      -3.220  16.408   3.441  0.00  0.00    +0.005 A 
ATOM     33  C   UNL     1      -2.411  16.714   4.520  0.00  0.00    +0.000 A 
ENDBRANCH  27  31
ENDBRANCH  20  27
ENDBRANCH  19  23
ENDBRANCH   1  19
TORSDOF 7
