REMARK  Name = ZINC22501906
REMARK  4 active torsions:
REMARK  status: ('A' for Active; 'I' for Inactive)
REMARK    1  A    between atoms: C_1  and  C_2
REMARK    2  A    between atoms: C_4  and  C_8
REMARK    3  A    between atoms: C_14  and  C_16
REMARK    4  A    between atoms: C_17  and  C_18
REMARK                            x       y       z     vdW  Elec       q    Type
REMARK                         _______ _______ _______ _____ _____    ______ ____
ROOT
ATOM      1  C   UNL     1       2.501   1.485  -0.013  0.00  0.00    +0.203 A 
ATOM      2  N   UNL     1       2.955   0.281   0.257  0.00  0.00    -0.125 NA
ATOM      3  N   UNL     1       4.238   0.261   0.146  0.00  0.00    -0.120 NA
ATOM      4  C   UNL     1       4.666   1.442  -0.188  0.00  0.00    +0.219 A 
ATOM      5  N   UNL     1       3.593   2.291  -0.310  0.00  0.00    -0.184 N 
ATOM      6  N   UNL     1       3.876   3.604  -0.665  0.00  0.00    -0.156 NA
ATOM      7  C   UNL     1       5.111   3.998  -0.870  0.00  0.00    +0.125 A 
ATOM      8  S   UNL     1       6.038   2.502  -0.572  0.00  0.00    -0.027 S 
ENDROOT
BRANCH   1  12
ATOM      9  C   UNL     1      -2.574   1.394   0.020  0.00  0.00    +0.067 C 
ATOM     10  C   UNL     1      -1.149   1.883   0.017  0.00  0.00    +0.060 A 
ATOM     11  C   UNL     1      -0.013   1.076   0.008  0.00  0.00    +0.055 A 
ATOM     12  C   UNL     1       1.090   1.905   0.002  0.00  0.00    +0.105 A 
ATOM     13  N   UNL     1       0.626   3.189   0.013  0.00  0.00    -0.274 N 
ATOM     14  H   UNL     1       1.335   4.030   0.011  0.00  0.00    +0.189 HD
ATOM     15  N   UNL     1      -0.774   3.137   0.026  0.00  0.00    -0.179 NA
ENDBRANCH   1  12
BRANCH   7  16
ATOM     16  C   UNL     1       5.603   5.329  -1.247  0.00  0.00    +0.037 C 
ATOM     17  C   UNL     1       6.922   5.537  -1.411  0.00  0.00    +0.012 C 
BRANCH  17  18
ATOM     18  C   UNL     1       7.416   6.872  -1.789  0.00  0.00    -0.007 A 
ATOM     19  C   UNL     1       6.516   7.924  -1.984  0.00  0.00    +0.011 A 
ATOM     20  C   UNL     1       6.986   9.173  -2.332  0.00  0.00    +0.020 A 
ATOM     21  C   UNL     1       8.345   9.384  -2.501  0.00  0.00    +0.042 A 
ATOM     22  C   UNL     1       9.242   8.346  -2.315  0.00  0.00    +0.040 A 
ATOM     23  C   UNL     1       8.787   7.091  -1.960  0.00  0.00    +0.049 A 
ATOM     24 CL   UNL     1       9.912   5.791  -1.728  0.00  0.00    -0.083 Cl
ATOM     25 CL   UNL     1       8.925  10.958  -2.947  0.00  0.00    -0.083 Cl
ENDBRANCH  17  18
ENDBRANCH   7  16
TORSDOF 3
