REMARK  Name = ZINC36436829
REMARK  1 active torsions:
REMARK  status: ('A' for Active; 'I' for Inactive)
REMARK    1  A    between atoms: C_3  and  C_12
REMARK                            x       y       z     vdW  Elec       q    Type
REMARK                         _______ _______ _______ _____ _____    ______ ____
ROOT
ATOM      1  C   UNL     1      -0.019   1.532   0.011  0.00  0.00    +0.032 C 
ATOM      2  C   UNL     1       1.425   2.045  -0.001  0.00  0.00    +0.020 C 
ATOM      3  C   UNL     1       2.185   1.397  -1.163  0.00  0.00    +0.131 C 
ATOM      4  C   UNL     1       2.020  -0.128  -1.073  0.00  0.00    +0.133 C 
ATOM      5  C   UNL     1       2.358  -0.560   0.373  0.00  0.00    +0.035 C 
ATOM      6  C   UNL     1       1.003  -0.477   1.112  0.00  0.00    +0.034 C 
ATOM      7  C   UNL     1       0.002  -0.004   0.002  0.00  0.00    +0.119 C 
ATOM      8  O   UNL     1       0.616  -0.426  -1.236  0.00  0.00    -0.373 OA
ENDROOT
BRANCH   3   9
ATOM      9  C   UNL     1       1.624   1.892  -2.471  0.00  0.00    +0.361 C 
ATOM     10  O   UNL     1       1.647   3.083  -2.733  0.00  0.00    -0.246 OA
ATOM     11  O   UNL     1       1.147   1.102  -3.268  0.00  0.00    -0.246 OA
ENDBRANCH   3   9
TORSDOF 1
