REMARK  Name = ZINC66905593
REMARK  6 active torsions:
REMARK  status: ('A' for Active; 'I' for Inactive)
REMARK    1  A    between atoms: C_1  and  N_2
REMARK    2  A    between atoms: C_4  and  C_14
REMARK    3  A    between atoms: C_5  and  C_7
REMARK    4  A    between atoms: C_14  and  N_15
REMARK    5  A    between atoms: N_15  and  C_16
REMARK    6  A    between atoms: C_25  and  O_27
REMARK                            x       y       z     vdW  Elec       q    Type
REMARK                         _______ _______ _______ _____ _____    ______ ____
ROOT
ATOM      1  C   UNL     1       0.113  -3.275  -1.600  0.00  0.00    -0.042 C 
ENDROOT
BRANCH   1   5
ATOM      2  C   UNL     1      -0.096   1.458   0.035  0.00  0.00    +0.172 C 
ATOM      3  N   UNL     1      -0.032  -0.005   0.013  0.00  0.00    -0.274 N 
ATOM      4  C   UNL     1       0.004  -0.780  -1.093  0.00  0.00    +0.110 A 
ATOM      5  C   UNL     1       0.060  -2.070  -0.696  0.00  0.00    -0.019 A 
ATOM      6  C   UNL     1       0.060  -2.089   0.712  0.00  0.00    +0.095 A 
ATOM      7  N   UNL     1       0.010  -0.843   1.134  0.00  0.00    -0.171 NA
BRANCH   6   8
ATOM      8  C   UNL     1       0.111  -3.300   1.569  0.00  0.00    +0.021 A 
ATOM      9  C   UNL     1       1.060  -4.290   1.323  0.00  0.00    +0.011 A 
ATOM     10  C   UNL     1       1.104  -5.414   2.123  0.00  0.00    +0.001 A 
ATOM     11  C   UNL     1       0.209  -5.558   3.168  0.00  0.00    +0.001 A 
ATOM     12  C   UNL     1      -0.735  -4.579   3.417  0.00  0.00    +0.020 A 
ATOM     13  C   UNL     1      -0.785  -3.447   2.627  0.00  0.00    +0.050 A 
ATOM     14 CL   UNL     1      -1.965  -2.215   2.945  0.00  0.00    -0.083 Cl
ENDBRANCH   6   8
ENDBRANCH   1   5
BRANCH   1  15
ATOM     15  N   UNL     1      -1.206  -3.921  -1.632  0.00  0.00    +0.388 N 
ATOM     16  H   UNL     1      -1.461  -4.211  -0.700  0.00  0.00    -0.084 HD
ATOM     17  H   UNL     1      -1.891  -3.268  -1.982  0.00  0.00    -0.084 HD
BRANCH  15  18
ATOM     18  C   UNL     1      -1.154  -5.095  -2.513  0.00  0.00    -0.011 C 
ATOM     19  C   UNL     1      -0.960  -4.665  -3.951  0.00  0.00    -0.056 A 
ATOM     20  C   UNL     1       0.180  -4.251  -4.619  0.00  0.00    +0.002 A 
ATOM     21  C   UNL     1       0.117  -3.901  -5.953  0.00  0.00    +0.000 A 
ATOM     22  C   UNL     1      -1.089  -3.963  -6.626  0.00  0.00    +0.000 A 
ATOM     23  C   UNL     1      -2.228  -4.375  -5.962  0.00  0.00    +0.004 A 
ATOM     24  C   UNL     1      -2.166  -4.727  -4.624  0.00  0.00    -0.043 A 
ATOM     25  C   UNL     1      -3.253  -5.203  -3.684  0.00  0.00    +0.065 C 
ATOM     26  C   UNL     1      -2.505  -5.841  -2.491  0.00  0.00    +0.109 C 
BRANCH  26  27
ATOM     27  O   UNL     1      -3.199  -5.599  -1.265  0.00  0.00    -0.393 OA
ATOM     28  H   UNL     1      -4.053  -6.047  -1.202  0.00  0.00    +0.210 HD
ENDBRANCH  26  27
ENDBRANCH  15  18
ENDBRANCH   1  15
TORSDOF 5
