REMARK  Name = ZINC37372196
REMARK  1 active torsions:
REMARK  status: ('A' for Active; 'I' for Inactive)
REMARK    1  A    between atoms: C_3  and  C_13
REMARK                            x       y       z     vdW  Elec       q    Type
REMARK                         _______ _______ _______ _____ _____    ______ ____
ROOT
ATOM      1  C   UNL     1       0.038   1.637   0.162  0.00  0.00    +0.021 C 
ATOM      2  C   UNL     1       1.554   1.821  -0.117  0.00  0.00    +0.033 C 
ATOM      3  C   UNL     1       2.193   0.653   0.664  0.00  0.00    +0.161 C 
ATOM      4  N   UNL     1       1.153  -0.370   0.847  0.00  0.00    -0.301 N 
ATOM      5  C   UNL     1      -0.086   0.093   0.198  0.00  0.00    +0.107 C 
ATOM      6  C   UNL     1       1.314  -1.585   1.524  0.00  0.00    +0.170 A 
ATOM      7  C   UNL     1       0.331  -2.557   1.549  0.00  0.00    +0.180 A 
ATOM      8  N   UNL     1       0.605  -3.650   2.219  0.00  0.00    -0.177 NA
ATOM      9  S   UNL     1       2.096  -3.410   2.793  0.00  0.00    +0.119 S 
ATOM     10  N   UNL     1       2.416  -1.888   2.180  0.00  0.00    -0.174 NA
ATOM     11 CL   UNL     1      -1.188  -2.341   0.736  0.00  0.00    -0.058 Cl
ENDROOT
BRANCH   3  12
ATOM     12  C   UNL     1       3.346   0.082  -0.120  0.00  0.00    +0.231 C 
ATOM     13  O   UNL     1       3.196  -0.932  -0.768  0.00  0.00    -0.274 OA
ATOM     14  N   UNL     1       4.544   0.699  -0.102  0.00  0.00    -0.328 N 
ATOM     15  H   UNL     1       4.664   1.511   0.416  0.00  0.00    +0.145 HD
ATOM     16  H   UNL     1       5.286   0.332  -0.607  0.00  0.00    +0.145 HD
ENDBRANCH   3  12
TORSDOF 1
