REMARK  Name = ZINC38906218
REMARK  5 active torsions:
REMARK  status: ('A' for Active; 'I' for Inactive)
REMARK    1  A    between atoms: C_4  and  C_7
REMARK    2  A    between atoms: C_10  and  S_18
REMARK    3  A    between atoms: N_11  and  C_12
REMARK    4  A    between atoms: S_18  and  C_19
REMARK    5  A    between atoms: C_21  and  C_32
REMARK                            x       y       z     vdW  Elec       q    Type
REMARK                         _______ _______ _______ _____ _____    ______ ____
ROOT
ATOM      1  C   UNL     1       7.832  -3.337  -0.007  0.00  0.00    +0.171 C 
ATOM      2  C   UNL     1       8.668  -4.544   0.371  0.00  0.00    -0.009 C 
ATOM      3  C   UNL     1       9.462  -5.107  -0.632  0.00  0.00    +0.002 A 
ATOM      4  C   UNL     1      10.269  -6.233  -0.364  0.00  0.00    +0.011 A 
ATOM      5  C   UNL     1      11.033  -6.765  -1.354  0.00  0.00    +0.021 A 
ATOM      6  C   UNL     1      11.037  -6.220  -2.638  0.00  0.00    +0.043 A 
ATOM      7  C   UNL     1      10.273  -5.125  -2.959  0.00  0.00    +0.044 A 
ATOM      8  C   UNL     1       9.461  -4.528  -1.980  0.00  0.00    +0.042 A 
ATOM      9  N   UNL     1       8.716  -3.462  -2.293  0.00  0.00    -0.284 N 
ATOM     10  C   UNL     1       7.928  -2.846  -1.434  0.00  0.00    +0.235 C 
ATOM     11  O   UNL     1       7.278  -1.881  -1.790  0.00  0.00    -0.274 OA
ATOM     12 CL   UNL     1      12.034  -6.944  -3.861  0.00  0.00    -0.083 Cl
ATOM     13  H   UNL     1       8.757  -3.124  -3.202  0.00  0.00    +0.155 HD
ENDROOT
BRANCH   2  14
ATOM     14  C   UNL     1       8.646  -5.078   1.685  0.00  0.00    -0.020 A 
ATOM     15  C   UNL     1       8.157  -6.374   1.913  0.00  0.00    +0.008 A 
ATOM     16  C   UNL     1       8.139  -6.883   3.192  0.00  0.00    +0.001 A 
ATOM     17  C   UNL     1       8.603  -6.121   4.252  0.00  0.00    +0.000 A 
ATOM     18  C   UNL     1       9.088  -4.841   4.038  0.00  0.00    +0.001 A 
ATOM     19  C   UNL     1       9.119  -4.316   2.765  0.00  0.00    +0.008 A 
ENDBRANCH   2  14
BRANCH   1  20
ATOM     20  S   UNL     1       6.095  -3.735   0.329  0.00  0.00    -0.068 S 
BRANCH  20  24
ATOM     21  C   UNL     1       3.724  -0.646  -0.022  0.00  0.00    +0.169 A 
ATOM     22  N   UNL     1       4.903  -0.140  -0.303  0.00  0.00    -0.128 NA
ATOM     23  N   UNL     1       5.803  -1.054  -0.227  0.00  0.00    -0.122 NA
ATOM     24  C   UNL     1       5.256  -2.202   0.107  0.00  0.00    +0.197 A 
ATOM     25  N   UNL     1       3.913  -1.982   0.255  0.00  0.00    -0.270 N 
BRANCH  21  29
ATOM     26  C   UNL     1       0.028   1.446   0.038  0.00  0.00    +0.000 A 
ATOM     27  C   UNL     1       1.219   2.151   0.026  0.00  0.00    +0.001 A 
ATOM     28  C   UNL     1       2.423   1.478   0.007  0.00  0.00    +0.011 A 
ATOM     29  C   UNL     1       2.438   0.082  -0.001  0.00  0.00    +0.020 A 
ATOM     30  C   UNL     1       1.233  -0.623   0.011  0.00  0.00    +0.011 A 
ATOM     31  C   UNL     1       0.036   0.063   0.030  0.00  0.00    +0.001 A 
ENDBRANCH  21  29
BRANCH  25  32
ATOM     32  C   UNL     1       2.935  -2.921   0.610  0.00  0.00    +0.051 A 
ATOM     33  C   UNL     1       2.241  -2.785   1.805  0.00  0.00    +0.026 A 
ATOM     34  C   UNL     1       1.278  -3.711   2.152  0.00  0.00    +0.002 A 
ATOM     35  C   UNL     1       1.004  -4.774   1.312  0.00  0.00    +0.000 A 
ATOM     36  C   UNL     1       1.694  -4.914   0.121  0.00  0.00    +0.002 A 
ATOM     37  C   UNL     1       2.654  -3.987  -0.235  0.00  0.00    +0.026 A 
ENDBRANCH  25  32
ENDBRANCH  20  24
ENDBRANCH   1  20
TORSDOF 5
