REMARK  Name = ZINC23969664
REMARK  5 active torsions:
REMARK  status: ('A' for Active; 'I' for Inactive)
REMARK    1  A    between atoms: C_1  and  C_2
REMARK    2  A    between atoms: C_2  and  C_4
REMARK    3  A    between atoms: C_2  and  S_16
REMARK    4  A    between atoms: S_16  and  C_17
REMARK    5  A    between atoms: C_20  and  C_23
REMARK                            x       y       z     vdW  Elec       q    Type
REMARK                         _______ _______ _______ _____ _____    ______ ____
ROOT
ATOM      1  C   UNL     1       0.889  -2.671  -1.458  0.00  0.00    +0.027 C 
ATOM      2  C   UNL     1       1.050  -2.175  -0.020  0.00  0.00    +0.117 C 
ENDROOT
BRANCH   2   3
ATOM      3  C   UNL     1       1.117  -0.670  -0.012  0.00  0.00    +0.124 A 
ATOM      4  N   UNL     1       2.340  -0.078  -0.020  0.00  0.00    -0.309 N 
ATOM      5  H   UNL     1       3.250  -0.697  -0.032  0.00  0.00    +0.170 HD
ATOM      6  C   UNL     1       2.453   1.270  -0.014  0.00  0.00    +0.259 A 
ATOM      7  O   UNL     1       3.543   1.813  -0.021  0.00  0.00    -0.267 OA
ATOM      8  C   UNL     1       1.209   2.054   0.002  0.00  0.00    +0.065 A 
ATOM      9  C   UNL     1       1.216   3.447   0.009  0.00  0.00    +0.015 A 
ATOM     10  C   UNL     1       0.021   4.132   0.025  0.00  0.00    +0.001 A 
ATOM     11  C   UNL     1      -1.187   3.445   0.032  0.00  0.00    +0.002 A 
ATOM     12  C   UNL     1      -1.215   2.069   0.030  0.00  0.00    +0.028 A 
ATOM     13  C   UNL     1      -0.016   1.352   0.009  0.00  0.00    +0.078 A 
ATOM     14  N   UNL     1       0.002  -0.004   0.002  0.00  0.00    -0.233 NA
ENDBRANCH   2   3
BRANCH   2  15
ATOM     15  S   UNL     1      -0.363  -2.722   0.970  0.00  0.00    -0.076 S 
BRANCH  15  16
ATOM     16  C   UNL     1      -0.118  -4.466   0.917  0.00  0.00    +0.185 A 
ATOM     17  N   UNL     1      -0.904  -5.413   1.509  0.00  0.00    -0.201 NA
ATOM     18  H   UNL     1       1.690  -4.699  -0.295  0.00  0.00    +0.191 HD
ATOM     19  C   UNL     1      -0.327  -6.622   1.197  0.00  0.00    +0.182 A 
ATOM     20  N   UNL     1       0.738  -6.366   0.473  0.00  0.00    -0.152 NA
ATOM     21  N   UNL     1       0.856  -5.098   0.300  0.00  0.00    -0.253 N 
BRANCH  19  22
ATOM     22  C   UNL     1      -0.813  -7.958   1.601  0.00  0.00    +0.021 A 
ATOM     23  C   UNL     1      -1.958  -8.078   2.391  0.00  0.00    +0.013 A 
ATOM     24  C   UNL     1      -2.410  -9.327   2.761  0.00  0.00    +0.021 A 
ATOM     25  C   UNL     1      -1.725 -10.461   2.359  0.00  0.00    +0.041 A 
ATOM     26  C   UNL     1      -0.585 -10.349   1.579  0.00  0.00    +0.021 A 
ATOM     27  C   UNL     1      -0.127  -9.105   1.199  0.00  0.00    +0.013 A 
ATOM     28 CL   UNL     1      -2.296 -12.030   2.834  0.00  0.00    -0.084 Cl
ENDBRANCH  19  22
ENDBRANCH  15  16
ENDBRANCH   2  15
TORSDOF 4
