REMARK  Name = ZINC36039515
REMARK  10 active torsions:
REMARK  status: ('A' for Active; 'I' for Inactive)
REMARK    1  A    between atoms: C_1  and  C_2
REMARK    2  A    between atoms: C_6  and  N_8
REMARK    3  A    between atoms: C_10  and  C_22
REMARK    4  A    between atoms: N_13  and  C_14
REMARK    5  A    between atoms: C_14  and  C_16
REMARK    6  A    between atoms: C_16  and  N_17
REMARK    7  A    between atoms: N_17  and  C_18
REMARK    8  A    between atoms: C_18  and  C_19
REMARK    9  A    between atoms: C_19  and  O_20
REMARK   10  A    between atoms: O_20  and  C_21
REMARK                            x       y       z     vdW  Elec       q    Type
REMARK                         _______ _______ _______ _____ _____    ______ ____
ROOT
ATOM      1  N   UNL     1       0.050  -2.798   2.394  0.00  0.00    -0.287 N 
ATOM      2  C   UNL     1       0.043  -2.244   3.658  0.00  0.00    +0.120 A 
ATOM      3  C   UNL     1       0.062  -3.248   4.553  0.00  0.00    +0.066 A 
ATOM      4  N   UNL     1       0.081  -4.446   3.850  0.00  0.00    -0.326 N 
ATOM      5  C   UNL     1       0.069  -4.152   2.524  0.00  0.00    +0.205 A 
ATOM      6  N   UNL     1       0.076  -5.035   1.526  0.00  0.00    -0.148 NA
ATOM      7  H   UNL     1       0.098  -5.335   4.237  0.00  0.00    +0.169 HD
ENDROOT
BRANCH   1  13
ATOM      8  C   UNL     1      -0.018   1.503   0.010  0.00  0.00    +0.044 C 
ATOM      9  C   UNL     1       0.002  -0.004   0.002  0.00  0.00    -0.048 A 
ATOM     10  C   UNL     1       0.006  -0.688  -1.200  0.00  0.00    +0.003 A 
ATOM     11  C   UNL     1       0.024  -2.071  -1.212  0.00  0.00    +0.002 A 
ATOM     12  C   UNL     1       0.039  -2.773  -0.022  0.00  0.00    +0.026 A 
ATOM     13  C   UNL     1       0.035  -2.089   1.186  0.00  0.00    +0.049 A 
ATOM     14  C   UNL     1       0.023  -0.700   1.194  0.00  0.00    +0.029 A 
ENDBRANCH   1  13
BRANCH   3  15
ATOM     15  C   UNL     1       0.062  -3.102   6.025  0.00  0.00    -0.000 A 
ATOM     16  C   UNL     1       0.036  -1.832   6.603  0.00  0.00    +0.011 A 
ATOM     17  C   UNL     1       0.036  -1.702   7.976  0.00  0.00    +0.020 A 
ATOM     18  C   UNL     1       0.063  -2.828   8.781  0.00  0.00    +0.041 A 
ATOM     19  C   UNL     1       0.089  -4.091   8.213  0.00  0.00    +0.020 A 
ATOM     20  C   UNL     1       0.083  -4.233   6.841  0.00  0.00    +0.011 A 
ATOM     21 CL   UNL     1       0.064  -2.656  10.509  0.00  0.00    -0.084 Cl
ENDBRANCH   3  15
BRANCH   6  22
ATOM     22  C   UNL     1       0.094  -6.336   1.790  0.00  0.00    +0.222 C 
ATOM     23  O   UNL     1       0.104  -6.722   2.943  0.00  0.00    -0.276 OA
BRANCH  22  24
ATOM     24  C   UNL     1       0.102  -7.334   0.661  0.00  0.00    +0.017 C 
BRANCH  24  25
ATOM     25  N   UNL     1       0.122  -8.696   1.212  0.00  0.00    +0.386 N 
ATOM     26  H   UNL     1       0.950  -8.819   1.775  0.00  0.00    -0.085 HD
ATOM     27  H   UNL     1      -0.698  -8.840   1.782  0.00  0.00    -0.085 HD
BRANCH  25  28
ATOM     28  C   UNL     1       0.130  -9.669   0.112  0.00  0.00    -0.054 C 
BRANCH  28  29
ATOM     29  C   UNL     1       0.150 -11.087   0.685  0.00  0.00    +0.140 C 
BRANCH  29  30
ATOM     30  O   UNL     1      -1.065 -11.331   1.397  0.00  0.00    -0.385 OA
ATOM     31  C   UNL     1      -1.147 -12.635   1.975  0.00  0.00    +0.193 C 
ENDBRANCH  29  30
ENDBRANCH  28  29
ENDBRANCH  25  28
ENDBRANCH  24  25
ENDBRANCH  22  24
ENDBRANCH   6  22
TORSDOF 8
