REMARK  Name = ZINC10106627
REMARK  9 active torsions:
REMARK  status: ('A' for Active; 'I' for Inactive)
REMARK    1  A    between atoms: C_1  and  C_2
REMARK    2  A    between atoms: C_5  and  N_8
REMARK    3  A    between atoms: C_9  and  C_37
REMARK    4  A    between atoms: N_18  and  C_23
REMARK    5  A    between atoms: N_21  and  C_22
REMARK    6  A    between atoms: C_23  and  C_24
REMARK    7  A    between atoms: C_24  and  C_26
REMARK    8  A    between atoms: C_24  and  C_27
REMARK    9  A    between atoms: C_27  and  N_69
REMARK                            x       y       z     vdW  Elec       q    Type
REMARK                         _______ _______ _______ _____ _____    ______ ____
ROOT
ATOM      1  N   UNL     1      -4.829  -1.231   8.631  0.00  0.00    -0.283 N 
ATOM      2  C   UNL     1      -4.167  -2.442   8.543  0.00  0.00    +0.040 A 
ATOM      3  C   UNL     1      -3.769  -2.606   7.285  0.00  0.00    +0.116 A 
ATOM      4  N   UNL     1      -4.172  -1.504   6.551  0.00  0.00    -0.277 N 
ATOM      5  C   UNL     1      -4.825  -0.659   7.383  0.00  0.00    +0.223 A 
ATOM      6  N   UNL     1      -5.220   0.407   6.702  0.00  0.00    -0.193 NA
ATOM      7  C   UNL     1      -4.848   0.296   5.430  0.00  0.00    +0.170 A 
ATOM      8  C   UNL     1      -4.173  -0.916   5.295  0.00  0.00    +0.157 A 
ATOM      9  C   UNL     1      -3.673  -1.286   4.036  0.00  0.00    +0.283 A 
ATOM     10  O   UNL     1      -3.084  -2.344   3.893  0.00  0.00    -0.265 OA
ATOM     11  N   UNL     1      -3.847  -0.456   2.986  0.00  0.00    -0.259 N 
ATOM     12  C   UNL     1      -4.498   0.711   3.126  0.00  0.00    +0.333 A 
ATOM     13  O   UNL     1      -4.640   1.431   2.156  0.00  0.00    -0.246 OA
ATOM     14  N   UNL     1      -4.999   1.103   4.313  0.00  0.00    -0.279 N 
ATOM     15  C   UNL     1      -5.704   2.383   4.423  0.00  0.00    +0.155 C 
ATOM     16  C   UNL     1      -3.935  -3.407   9.677  0.00  0.00    +0.065 C 
ENDROOT
BRANCH   1  21
ATOM     17  C   UNL     1      -7.154   0.978  13.312  0.00  0.00    +0.044 C 
ATOM     18  C   UNL     1      -6.537   0.391  12.069  0.00  0.00    -0.050 A 
ATOM     19  C   UNL     1      -5.167   0.214  11.996  0.00  0.00    +0.005 A 
ATOM     20  C   UNL     1      -4.598  -0.323  10.858  0.00  0.00    +0.026 A 
ATOM     21  C   UNL     1      -5.403  -0.686   9.786  0.00  0.00    +0.050 A 
ATOM     22  C   UNL     1      -6.778  -0.502   9.860  0.00  0.00    +0.026 A 
ATOM     23  C   UNL     1      -7.341   0.031  11.003  0.00  0.00    +0.005 A 
ENDBRANCH   1  21
BRANCH  11  24
ATOM     24  C   UNL     1      -3.322  -0.837   1.672  0.00  0.00    +0.131 C 
BRANCH  24  25
ATOM     25  C   UNL     1      -1.894  -0.310   1.522  0.00  0.00    -0.011 C 
ATOM     26  C   UNL     1      -0.984  -1.005   2.537  0.00  0.00    +0.007 C 
BRANCH  25  27
ATOM     27  C   UNL     1      -1.391  -0.598   0.106  0.00  0.00    -0.073 C 
BRANCH  27  37
ATOM     28  C   UNL     1       0.763   0.277   0.790  0.00  0.00    -0.074 C 
ATOM     29  C   UNL     1       2.008   0.961   0.225  0.00  0.00    +0.017 C 
ATOM     30  C   UNL     1       1.644   2.315  -0.329  0.00  0.00    -0.048 A 
ATOM     31  C   UNL     1       2.661   3.229  -0.562  0.00  0.00    +0.004 A 
ATOM     32  C   UNL     1       2.371   4.478  -1.073  0.00  0.00    +0.000 A 
ATOM     33  C   UNL     1       1.061   4.820  -1.353  0.00  0.00    +0.000 A 
ATOM     34  C   UNL     1       0.049   3.912  -1.119  0.00  0.00    +0.002 A 
ATOM     35  C   UNL     1       0.338   2.656  -0.605  0.00  0.00    -0.061 A 
ATOM     36  C   UNL     1      -0.802   1.701  -0.364  0.00  0.00    -0.043 C 
ATOM     37  N   UNL     1      -0.288   0.326  -0.245  0.00  0.00    +0.383 N 
ATOM     38  H   UNL     1       0.114   0.039  -1.145  0.00  0.00    -0.081 HD
ENDBRANCH  27  37
ENDBRANCH  25  27
ENDBRANCH  24  25
ENDBRANCH  11  24
TORSDOF 5
