REMARK  Name = ZINC00706299
REMARK  8 active torsions:
REMARK  status: ('A' for Active; 'I' for Inactive)
REMARK    1  A    between atoms: C_4  and  C_7
REMARK    2  A    between atoms: C_8  and  C_21
REMARK    3  A    between atoms: N_10  and  C_12
REMARK    4  A    between atoms: C_12  and  C_13
REMARK    5  A    between atoms: N_22  and  N_23
REMARK    6  A    between atoms: C_24  and  C_26
REMARK    7  A    between atoms: C_26  and  N_27
REMARK    8  A    between atoms: C_35  and  C_36
REMARK                            x       y       z     vdW  Elec       q    Type
REMARK                         _______ _______ _______ _____ _____    ______ ____
ROOT
ATOM      1  C   UNL     1       3.135  -2.653   1.612  0.00  0.00    +0.142 C 
ATOM      2  N   UNL     1       1.894  -2.295   1.741  0.00  0.00    -0.188 NA
ENDROOT
BRANCH   1   4
ATOM      3  C   UNL     1       3.700  -0.685  -0.034  0.00  0.00    +0.101 A 
ATOM      4  C   UNL     1       4.026  -1.907   0.705  0.00  0.00    +0.040 A 
ATOM      5  C   UNL     1       5.320  -2.221   0.391  0.00  0.00    +0.118 A 
ATOM      6  N   UNL     1       5.777  -1.290  -0.468  0.00  0.00    -0.266 N 
ATOM      7  N   UNL     1       4.769  -0.356  -0.724  0.00  0.00    -0.170 NA
BRANCH   3  11
ATOM      8  C   UNL     1      -0.010   1.391   0.026  0.00  0.00    +0.000 A 
ATOM      9  C   UNL     1       0.548   0.943   1.210  0.00  0.00    +0.001 A 
ATOM     10  C   UNL     1       1.752   0.269   1.197  0.00  0.00    +0.010 A 
ATOM     11  C   UNL     1       2.406   0.038  -0.013  0.00  0.00    +0.003 A 
ATOM     12  C   UNL     1       1.839   0.492  -1.203  0.00  0.00    +0.010 A 
ATOM     13  C   UNL     1       0.634   1.166  -1.177  0.00  0.00    +0.001 A 
ENDBRANCH   3  11
BRANCH   6  14
ATOM     14  C   UNL     1       7.122  -1.263  -1.048  0.00  0.00    +0.180 C 
BRANCH  14  15
ATOM     15  C   UNL     1       7.020  -1.217  -2.551  0.00  0.00    -0.008 A 
ATOM     16  C   UNL     1       7.079  -2.387  -3.284  0.00  0.00    +0.008 A 
ATOM     17  C   UNL     1       6.986  -2.345  -4.662  0.00  0.00    +0.020 A 
ATOM     18  C   UNL     1       6.832  -1.131  -5.309  0.00  0.00    +0.042 A 
ATOM     19  C   UNL     1       6.773   0.040  -4.576  0.00  0.00    +0.040 A 
ATOM     20  C   UNL     1       6.862  -0.003  -3.196  0.00  0.00    +0.047 A 
ATOM     21 CL   UNL     1       6.781   1.466  -2.274  0.00  0.00    -0.083 Cl
ATOM     22 CL   UNL     1       6.716  -1.079  -7.040  0.00  0.00    -0.083 Cl
ENDBRANCH  14  15
ENDBRANCH   6  14
ENDBRANCH   1   4
BRANCH   2  23
ATOM     23  N   UNL     1       1.047  -3.004   2.603  0.00  0.00    -0.206 N 
ATOM     24  C   UNL     1      -0.242  -2.633   2.737  0.00  0.00    +0.252 C 
ATOM     25  O   UNL     1      -0.668  -1.685   2.112  0.00  0.00    -0.272 OA
ATOM     26  H   UNL     1       1.388  -3.762   3.103  0.00  0.00    +0.177 HD
BRANCH  24  27
ATOM     27  C   UNL     1      -1.153  -3.395   3.664  0.00  0.00    +0.221 C 
BRANCH  27  28
ATOM     28  N   UNL     1      -2.491  -2.800   3.633  0.00  0.00    -0.313 N 
ATOM     29  C   UNL     1      -2.955  -1.786   4.446  0.00  0.00    +0.070 A 
ATOM     30  C   UNL     1      -2.394  -1.041   5.474  0.00  0.00    +0.028 A 
ATOM     31  C   UNL     1      -3.145  -0.072   6.105  0.00  0.00    +0.002 A 
ATOM     32  C   UNL     1      -4.457   0.164   5.719  0.00  0.00    +0.002 A 
ATOM     33  C   UNL     1      -5.028  -0.558   4.710  0.00  0.00    +0.030 A 
ATOM     34  C   UNL     1      -4.285  -1.547   4.054  0.00  0.00    +0.090 A 
ATOM     35  N   UNL     1      -4.565  -2.405   3.045  0.00  0.00    -0.226 NA
ATOM     36  C   UNL     1      -3.512  -3.141   2.788  0.00  0.00    +0.168 A 
BRANCH  36  37
ATOM     37  C   UNL     1      -3.440  -4.187   1.744  0.00  0.00    +0.190 A 
ATOM     38  C   UNL     1      -4.522  -4.562   0.825  0.00  0.00    +0.191 A 
ATOM     39  N   UNL     1      -4.088  -5.518   0.051  0.00  0.00    -0.033 NA
ATOM     40  O   UNL     1      -2.749  -5.802   0.415  0.00  0.00    -0.240 OA
ATOM     41  N   UNL     1      -2.398  -4.932   1.477  0.00  0.00    -0.044 NA
ATOM     42  N   UNL     1      -5.790  -3.997   0.788  0.00  0.00    -0.339 N 
ATOM     43  H   UNL     1      -6.023  -3.288   1.407  0.00  0.00    +0.144 HD
ATOM     44  H   UNL     1      -6.442  -4.312   0.142  0.00  0.00    +0.144 HD
ENDBRANCH  36  37
ENDBRANCH  27  28
ENDBRANCH  24  27
ENDBRANCH   2  23
TORSDOF 8
