REMARK  Name = ZINC09879590
REMARK  4 active torsions:
REMARK  status: ('A' for Active; 'I' for Inactive)
REMARK    1  A    between atoms: C_1  and  C_2
REMARK    2  A    between atoms: C_2  and  C_3
REMARK    3  A    between atoms: C_3  and  N_13
REMARK    4  A    between atoms: N_13  and  C_14
REMARK                            x       y       z     vdW  Elec       q    Type
REMARK                         _______ _______ _______ _____ _____    ______ ____
ROOT
ATOM      1  C   UNL     1      -0.106   5.846   0.096  0.00  0.00    +0.025 C 
ATOM      2  C   UNL     1       0.016   4.470   0.072  0.00  0.00    +0.116 C 
ATOM      3  C   UNL     1       1.290   3.816  -0.277  0.00  0.00    +0.256 C 
ATOM      4  O   UNL     1       2.275   4.475  -0.554  0.00  0.00    -0.270 OA
ATOM      5  N   UNL     1       1.336   2.468  -0.280  0.00  0.00    -0.263 N 
ATOM      6  C   UNL     1       0.259   1.730   0.025  0.00  0.00    +0.143 C 
ATOM      7  S   UNL     1       0.410   0.025  -0.005  0.00  0.00    -0.018 S 
ATOM      8  N   UNL     1      -0.931   2.256   0.346  0.00  0.00    -0.263 N 
ATOM      9  C   UNL     1      -1.123   3.590   0.395  0.00  0.00    +0.256 C 
ATOM     10  O   UNL     1      -2.206   4.056   0.693  0.00  0.00    -0.270 OA
ATOM     11  H   UNL     1       2.167   2.022  -0.508  0.00  0.00    +0.157 HD
ATOM     12  H   UNL     1      -1.671   1.663   0.552  0.00  0.00    +0.157 HD
ENDROOT
BRANCH   1  14
ATOM     13  C   UNL     1      -1.676   6.641   1.844  0.00  0.00    +0.010 C 
ATOM     14  C   UNL     1      -1.452   6.479   0.339  0.00  0.00    +0.048 C 
ENDBRANCH   1  14
BRANCH   1  15
ATOM     15  N   UNL     1       0.980   6.624  -0.098  0.00  0.00    -0.317 N 
ATOM     16  H   UNL     1       1.737   6.558   0.504  0.00  0.00    +0.152 HD
BRANCH  15  17
ATOM     17  C   UNL     1       1.012   7.524  -1.167  0.00  0.00    +0.031 A 
ATOM     18  C   UNL     1       0.005   7.506  -2.123  0.00  0.00    +0.024 A 
ATOM     19  C   UNL     1       0.038   8.400  -3.175  0.00  0.00    +0.016 A 
ATOM     20  C   UNL     1       1.078   9.306  -3.283  0.00  0.00    +0.013 A 
ATOM     21  C   UNL     1       2.085   9.323  -2.334  0.00  0.00    +0.016 A 
ATOM     22  C   UNL     1       2.055   8.435  -1.277  0.00  0.00    +0.024 A 
ATOM     23  I   UNL     1       1.127  10.655  -4.885  0.00  0.00    -0.044 I 
ENDBRANCH  15  17
ENDBRANCH   1  15
TORSDOF 3
