REMARK  Name = ZINC04115116
REMARK  7 active torsions:
REMARK  status: ('A' for Active; 'I' for Inactive)
REMARK    1  A    between atoms: C_1  and  N_2
REMARK    2  A    between atoms: C_9  and  C_21
REMARK    3  A    between atoms: C_11  and  C_17
REMARK    4  A    between atoms: C_11  and  C_19
REMARK    5  A    between atoms: C_12  and  N_16
REMARK    6  A    between atoms: C_13  and  C_14
REMARK    7  A    between atoms: C_26  and  C_27
REMARK                            x       y       z     vdW  Elec       q    Type
REMARK                         _______ _______ _______ _____ _____    ______ ____
ROOT
ATOM      1  C   UNL     1      -0.256   1.313  -0.050  0.00  0.00    +0.105 C 
ATOM      2  N   UNL     1      -0.143  -0.151  -0.045  0.00  0.00    -0.301 NA
ATOM      3  C   UNL     1      -1.473  -0.784  -0.118  0.00  0.00    +0.111 C 
ATOM      4  C   UNL     1      -1.262  -2.269  -0.286  0.00  0.00    -0.007 C 
ATOM      5  C   UNL     1      -0.222  -2.855   0.276  0.00  0.00    -0.026 C 
ATOM      6  C   UNL     1       0.762  -2.119   1.140  0.00  0.00    +0.044 C 
ATOM      7  C   UNL     1       0.575  -0.620   1.143  0.00  0.00    +0.093 C 
ATOM      8  C   UNL     1       2.172  -2.524   0.704  0.00  0.00    +0.068 C 
ATOM      9  C   UNL     1       2.357  -4.021   0.954  0.00  0.00    +0.188 C 
ATOM     10  C   UNL     1       1.233  -4.826   0.375  0.00  0.00    +0.054 C 
ATOM     11  C   UNL     1       0.019  -4.304   0.063  0.00  0.00    +0.074 C 
ENDROOT
BRANCH   8  12
ATOM     12  C   UNL     1       2.351  -2.228  -0.763  0.00  0.00    -0.029 A 
ATOM     13  C   UNL     1       1.545  -2.853  -1.697  0.00  0.00    +0.004 A 
ATOM     14  C   UNL     1       1.710  -2.582  -3.042  0.00  0.00    +0.000 A 
ATOM     15  C   UNL     1       2.679  -1.686  -3.454  0.00  0.00    +0.001 A 
ATOM     16  C   UNL     1       3.483  -1.061  -2.520  0.00  0.00    +0.012 A 
ATOM     17  C   UNL     1       3.316  -1.329  -1.174  0.00  0.00    +0.058 A 
BRANCH  17  18
ATOM     18  C   UNL     1       4.189  -0.643  -0.155  0.00  0.00    +0.418 C 
ATOM     19  F   UNL     1       5.082   0.214  -0.807  0.00  0.00    -0.166 F 
ATOM     20  F   UNL     1       3.390   0.097   0.723  0.00  0.00    -0.166 F 
ATOM     21  F   UNL     1       4.907  -1.603   0.566  0.00  0.00    -0.166 F 
ENDBRANCH  17  18
ENDBRANCH   8  12
BRANCH  10  22
ATOM     22  N   UNL     1       1.441  -6.157   0.148  0.00  0.00    -0.358 N 
ATOM     23  H   UNL     1       2.299  -6.557   0.361  0.00  0.00    +0.142 HD
ATOM     24  H   UNL     1       0.732  -6.702  -0.227  0.00  0.00    +0.142 HD
ENDBRANCH  10  22
BRANCH  11  25
ATOM     25  C   UNL     1      -1.016  -5.141  -0.465  0.00  0.00    +0.101 C 
ATOM     26  N   UNL     1      -1.838  -5.805  -0.884  0.00  0.00    -0.191 NA
ENDBRANCH  11  25
BRANCH   9  27
ATOM     27  C   UNL     1       3.623  -4.456   0.343  0.00  0.00    +0.091 C 
ATOM     28  N   UNL     1       4.600  -4.792  -0.129  0.00  0.00    -0.194 NA
ENDBRANCH   9  27
BRANCH   9  29
ATOM     29  C   UNL     1       2.419  -4.261   2.405  0.00  0.00    +0.091 C 
ATOM     30  N   UNL     1       2.468  -4.446   3.525  0.00  0.00    -0.194 NA
ENDBRANCH   9  29
TORSDOF 6
