REMARK  Name = ZINC04730120
REMARK  10 active torsions:
REMARK  status: ('A' for Active; 'I' for Inactive)
REMARK    1  A    between atoms: C_1  and  C_2
REMARK    2  A    between atoms: C_2  and  C_3
REMARK    3  A    between atoms: C_6  and  C_9
REMARK    4  A    between atoms: C_11  and  C_23
REMARK    5  A    between atoms: C_13  and  C_16
REMARK    6  A    between atoms: C_21  and  O_22
REMARK    7  A    between atoms: C_25  and  O_31
REMARK    8  A    between atoms: C_28  and  O_29
REMARK    9  A    between atoms: O_29  and  C_30
REMARK   10  A    between atoms: O_31  and  C_32
REMARK                            x       y       z     vdW  Elec       q    Type
REMARK                         _______ _______ _______ _____ _____    ______ ____
ROOT
ATOM      1  C   UNL     1       1.031   2.186   0.004  0.00  0.00    +0.040 C 
ATOM      2  N   UNL     1      -0.018   1.453   0.010  0.00  0.00    -0.298 NA
ATOM      3  C   UNL     1       0.002  -0.004   0.002  0.00  0.00    +0.085 C 
ATOM      4  C   UNL     1       2.385   0.138   0.349  0.00  0.00    -0.028 C 
ATOM      5  C   UNL     1       2.425   1.623  -0.023  0.00  0.00    +0.044 C 
ATOM      6  N   UNL     1       1.313  -0.506  -0.435  0.00  0.00    +0.401 N 
ATOM      7  H   UNL     1       1.445  -0.292  -1.431  0.00  0.00    -0.081 HD
ATOM      8  H   UNL     1       1.353  -1.522  -0.296  0.00  0.00    -0.081 HD
ENDROOT
BRANCH   1  12
ATOM      9  C   UNL     1       0.553   6.404   0.064  0.00  0.00    -0.048 A 
ATOM     10  C   UNL     1      -0.562   5.584   0.070  0.00  0.00    +0.004 A 
ATOM     11  C   UNL     1      -0.413   4.213   0.050  0.00  0.00    +0.010 A 
ATOM     12  C   UNL     1       0.865   3.652   0.025  0.00  0.00    -0.004 A 
ATOM     13  C   UNL     1       1.986   4.486   0.025  0.00  0.00    +0.010 A 
ATOM     14  C   UNL     1       1.823   5.855   0.038  0.00  0.00    +0.004 A 
BRANCH   9  16
ATOM     15  C   UNL     1       0.346   8.390   1.535  0.00  0.00    +0.009 C 
ATOM     16  C   UNL     1       0.383   7.901   0.086  0.00  0.00    +0.032 C 
ENDBRANCH   9  16
ENDBRANCH   1  12
BRANCH   4  17
ATOM     17  C   UNL     1       3.707  -0.506   0.022  0.00  0.00    -0.019 A 
ATOM     18  C   UNL     1       3.888  -1.133  -1.196  0.00  0.00    +0.005 A 
ATOM     19  C   UNL     1       5.101  -1.723  -1.497  0.00  0.00    +0.000 A 
ATOM     20  C   UNL     1       6.137  -1.688  -0.581  0.00  0.00    +0.004 A 
ATOM     21  C   UNL     1       5.961  -1.062   0.637  0.00  0.00    +0.045 A 
ATOM     22  C   UNL     1       4.746  -0.464   0.940  0.00  0.00    +0.118 A 
BRANCH  22  23
ATOM     23  O   UNL     1       4.572   0.158   2.136  0.00  0.00    -0.507 OA
ATOM     24  H   UNL     1       4.240  -0.421   2.836  0.00  0.00    +0.292 HD
ENDBRANCH  22  23
ENDBRANCH   4  17
BRANCH   3  25
ATOM     25  C   UNL     1      -0.287  -0.512   1.391  0.00  0.00    +0.005 A 
ATOM     26  C   UNL     1       0.331  -1.659   1.850  0.00  0.00    +0.053 A 
ATOM     27  C   UNL     1       0.065  -2.127   3.128  0.00  0.00    +0.121 A 
ATOM     28  C   UNL     1      -0.822  -1.442   3.946  0.00  0.00    +0.049 A 
ATOM     29  C   UNL     1      -1.440  -0.295   3.488  0.00  0.00    +0.049 A 
ATOM     30  C   UNL     1      -1.170   0.175   2.211  0.00  0.00    +0.124 A 
BRANCH  30  31
ATOM     31  O   UNL     1      -1.774   1.307   1.761  0.00  0.00    -0.495 OA
ATOM     32  C   UNL     1      -2.671   1.964   2.659  0.00  0.00    +0.277 C 
ENDBRANCH  30  31
BRANCH  27  33
ATOM     33  O   UNL     1       0.674  -3.256   3.580  0.00  0.00    -0.495 OA
ATOM     34  C   UNL     1       0.353  -3.679   4.906  0.00  0.00    +0.277 C 
ENDBRANCH  27  33
ENDBRANCH   3  25
TORSDOF 7
