REMARK  Name = ZINC39696479
REMARK  12 active torsions:
REMARK  status: ('A' for Active; 'I' for Inactive)
REMARK    1  A    between atoms: C_1  and  C_2
REMARK    2  A    between atoms: C_2  and  C_3
REMARK    3  A    between atoms: C_3  and  C_5
REMARK    4  A    between atoms: C_3  and  C_11
REMARK    5  A    between atoms: C_15  and  C_24
REMARK    6  A    between atoms: N_26  and  C_27
REMARK    7  A    between atoms: C_27  and  C_28
REMARK    8  A    between atoms: C_28  and  S_29
REMARK    9  A    between atoms: S_29  and  C_30
REMARK   10  A    between atoms: C_30  and  C_31
REMARK   11  A    between atoms: C_30  and  C_32
REMARK   12  A    between atoms: C_30  and  C_33
REMARK                            x       y       z     vdW  Elec       q    Type
REMARK                         _______ _______ _______ _____ _____    ______ ____
ROOT
ATOM      1  C   UNL     1       2.270  -0.014  -1.200  0.00  0.00    +0.223 C 
ATOM      2  O   UNL     1       3.225  -0.742  -1.367  0.00  0.00    -0.275 OA
ATOM      3  N   UNL     1       2.451   1.313  -1.056  0.00  0.00    -0.300 N 
ATOM      4  C   UNL     1       1.413   2.364  -0.934  0.00  0.00    +0.121 C 
ATOM      5  C   UNL     1       1.972   3.344   0.121  0.00  0.00    +0.100 C 
ATOM      6  C   UNL     1       3.495   3.136   0.083  0.00  0.00    -0.004 C 
ATOM      7  C   UNL     1       3.734   2.052  -0.977  0.00  0.00    +0.115 C 
ATOM      8  C   UNL     1       3.997   2.657   1.442  0.00  0.00    -0.010 C 
ATOM      9  C   UNL     1       5.521   2.513   1.395  0.00  0.00    -0.082 C 
ATOM     10  N   UNL     1       6.127   3.806   1.055  0.00  0.00    +0.379 N 
ATOM     11  C   UNL     1       5.711   4.215  -0.292  0.00  0.00    -0.082 C 
ATOM     12  C   UNL     1       4.195   4.431  -0.317  0.00  0.00    -0.010 C 
ATOM     13  H   UNL     1       5.830   4.501   1.723  0.00  0.00    -0.086 HD
ATOM     14  H   UNL     1       7.132   3.723   1.085  0.00  0.00    -0.086 HD
ENDROOT
BRANCH   5  15
ATOM     15  C   UNL     1       1.428   3.010   1.487  0.00  0.00    +0.218 C 
ATOM     16  O   UNL     1       1.157   1.861   1.767  0.00  0.00    -0.275 OA
ATOM     17  N   UNL     1       1.244   3.987   2.397  0.00  0.00    -0.314 N 
ATOM     18  H   UNL     1       1.461   4.905   2.173  0.00  0.00    +0.149 HD
BRANCH  17  19
ATOM     19  C   UNL     1       0.716   3.662   3.724  0.00  0.00    +0.115 C 
BRANCH  19  20
ATOM     20  C   UNL     1       0.605   4.941   4.556  0.00  0.00    +0.088 C 
BRANCH  20  21
ATOM     21  S   UNL     1      -0.049   4.538   6.200  0.00  0.00    -0.153 S 
BRANCH  21  22
ATOM     22  C   UNL     1      -0.118   6.140   7.048  0.00  0.00    +0.008 C 
ATOM     23  C   UNL     1      -1.040   7.087   6.277  0.00  0.00    +0.022 C 
ATOM     24  C   UNL     1      -0.660   5.943   8.466  0.00  0.00    +0.022 C 
ATOM     25  C   UNL     1       1.287   6.742   7.119  0.00  0.00    +0.022 C 
ENDBRANCH  21  22
ENDBRANCH  20  21
ENDBRANCH  19  20
ENDBRANCH  17  19
ENDBRANCH   5  15
BRANCH   1  26
ATOM     26  C   UNL     1       0.879  -0.594  -1.153  0.00  0.00    +0.105 C 
BRANCH  26  27
ATOM     27  C   UNL     1       0.325  -0.683  -2.551  0.00  0.00    -0.036 A 
ATOM     28  C   UNL     1       0.970  -1.451  -3.503  0.00  0.00    +0.004 A 
ATOM     29  C   UNL     1       0.462  -1.533  -4.786  0.00  0.00    +0.000 A 
ATOM     30  C   UNL     1      -0.693  -0.848  -5.117  0.00  0.00    +0.000 A 
ATOM     31  C   UNL     1      -1.338  -0.081  -4.165  0.00  0.00    +0.000 A 
ATOM     32  C   UNL     1      -0.832  -0.002  -2.881  0.00  0.00    +0.004 A 
ENDBRANCH  26  27
BRANCH  26  34
ATOM     33  C   UNL     1       1.359  -1.887   0.931  0.00  0.00    +0.005 C 
ATOM     34  C   UNL     1       0.931  -1.993  -0.534  0.00  0.00    +0.014 C 
ENDBRANCH  26  34
ENDBRANCH   1  26
TORSDOF 8
