REMARK  Name = ZINC01913147
REMARK  14 active torsions:
REMARK  status: ('A' for Active; 'I' for Inactive)
REMARK    1  A    between atoms: C_1  and  C_2
REMARK    2  A    between atoms: C_2  and  C_3
REMARK    3  A    between atoms: C_2  and  C_4
REMARK    4  A    between atoms: C_4  and  N_61
REMARK    5  A    between atoms: C_5  and  C_6
REMARK    6  A    between atoms: C_5  and  N_61
REMARK    7  A    between atoms: C_7  and  O_29
REMARK    8  A    between atoms: C_13  and  C_25
REMARK    9  A    between atoms: C_14  and  O_17
REMARK   10  A    between atoms: O_17  and  C_18
REMARK   11  A    between atoms: C_30  and  C_31
REMARK   12  A    between atoms: C_30  and  N_61
REMARK   13  A    between atoms: C_31  and  C_32
REMARK   14  A    between atoms: C_31  and  C_33
REMARK                            x       y       z     vdW  Elec       q    Type
REMARK                         _______ _______ _______ _____ _____    ______ ____
ROOT
ATOM      1  C   UNL     1      -0.398   0.416  -0.567  0.00  0.00    +0.020 A 
ATOM      2  C   UNL     1       0.601   1.041  -1.294  0.00  0.00    +0.122 A 
ATOM      3  C   UNL     1       0.386   2.293  -1.865  0.00  0.00    +0.046 A 
ATOM      4  C   UNL     1      -0.818   2.923  -1.716  0.00  0.00    +0.019 A 
ATOM      5  C   UNL     1      -1.835   2.307  -0.986  0.00  0.00    +0.068 A 
ATOM      6  C   UNL     1      -1.628   1.040  -0.410  0.00  0.00    +0.144 A 
ATOM      7  O   UNL     1      -2.616   0.457   0.297  0.00  0.00    -0.447 OA
ATOM      8  C   UNL     1      -3.812   1.035   0.471  0.00  0.00    +0.254 A 
ATOM      9  C   UNL     1      -4.119   2.243  -0.041  0.00  0.00    +0.222 A 
ATOM     10  C   UNL     1      -3.146   2.952  -0.801  0.00  0.00    +0.235 A 
ATOM     11  O   UNL     1      -3.388   4.048  -1.280  0.00  0.00    -0.283 OA
ENDROOT
BRANCH   8  12
ATOM     12  C   UNL     1      -4.857   0.304   1.273  0.00  0.00    +0.454 C 
ATOM     13  F   UNL     1      -5.621  -0.501   0.421  0.00  0.00    -0.163 F 
ATOM     14  F   UNL     1      -4.232  -0.498   2.234  0.00  0.00    -0.163 F 
ATOM     15  F   UNL     1      -5.690   1.231   1.910  0.00  0.00    -0.163 F 
ENDBRANCH   8  12
BRANCH   2  16
ATOM     16  O   UNL     1       1.802   0.428  -1.450  0.00  0.00    -0.506 OA
ATOM     17  H   UNL     1       1.857  -0.137  -2.233  0.00  0.00    +0.292 HD
ENDBRANCH   2  16
BRANCH   1  18
ATOM     18  C   UNL     1      -0.154  -0.938   0.046  0.00  0.00    -0.036 C 
BRANCH  18  19
ATOM     19  N   UNL     1       0.059  -0.770   1.499  0.00  0.00    +0.383 N 
ATOM     20  H   UNL     1      -0.668  -0.150   1.874  0.00  0.00    -0.081 HD
BRANCH  19  21
ATOM     21  C   UNL     1      -0.031  -2.081   2.178  0.00  0.00    -0.075 C 
BRANCH  21  23
ATOM     22  C   UNL     1      -1.518  -1.168   3.966  0.00  0.00    +0.005 C 
ATOM     23  C   UNL     1      -0.176  -1.846   3.683  0.00  0.00    -0.034 C 
ATOM     24  C   UNL     1      -0.117  -3.187   4.416  0.00  0.00    +0.005 C 
ENDBRANCH  21  23
ENDBRANCH  19  21
BRANCH  19  25
ATOM     25  C   UNL     1       1.383  -0.163   1.749  0.00  0.00    -0.075 C 
BRANCH  25  26
ATOM     26  C   UNL     1       1.234   1.359   1.722  0.00  0.00    -0.034 C 
ATOM     27  C   UNL     1       0.340   1.805   2.881  0.00  0.00    +0.005 C 
ATOM     28  C   UNL     1       2.611   2.010   1.860  0.00  0.00    +0.005 C 
ENDBRANCH  25  26
ENDBRANCH  19  25
ENDBRANCH  18  19
ENDBRANCH   1  18
BRANCH   9  29
ATOM     29  O   UNL     1      -5.351   2.783   0.169  0.00  0.00    -0.447 OA
BRANCH  29  30
ATOM     30  C   UNL     1      -6.329   2.510  -0.735  0.00  0.00    +0.147 A 
ATOM     31  C   UNL     1      -6.056   1.708  -1.834  0.00  0.00    +0.048 A 
ATOM     32  C   UNL     1      -7.053   1.428  -2.748  0.00  0.00    +0.004 A 
ATOM     33  C   UNL     1      -8.320   1.955  -2.575  0.00  0.00    +0.002 A 
ATOM     34  C   UNL     1      -8.594   2.759  -1.484  0.00  0.00    +0.024 A 
ATOM     35  C   UNL     1      -7.602   3.039  -0.563  0.00  0.00    +0.083 A 
ATOM     36 CL   UNL     1      -7.946   4.048   0.806  0.00  0.00    -0.080 Cl
ENDBRANCH  29  30
ENDBRANCH   9  29
TORSDOF 10
