REMARK  Name = ZINC39672257
REMARK  7 active torsions:
REMARK  status: ('A' for Active; 'I' for Inactive)
REMARK    1  A    between atoms: C_1  and  N_2
REMARK    2  A    between atoms: C_10  and  C_12
REMARK    3  A    between atoms: C_12  and  N_13
REMARK    4  A    between atoms: C_14  and  C_16
REMARK    5  A    between atoms: C_27  and  C_29
REMARK    6  A    between atoms: C_33  and  O_34
REMARK    7  A    between atoms: O_34  and  C_35
REMARK                            x       y       z     vdW  Elec       q    Type
REMARK                         _______ _______ _______ _____ _____    ______ ____
ROOT
ATOM      1  C   UNL     1       7.154  -3.751   2.424  0.00  0.00    +0.100 C 
ATOM      2  C   UNL     1       6.301  -4.651   3.345  0.00  0.00    +0.121 C 
ATOM      3  N   UNL     1       6.922  -5.992   3.238  0.00  0.00    -0.296 N 
ATOM      4  C   UNL     1       8.379  -5.722   3.205  0.00  0.00    +0.115 C 
ATOM      5  C   UNL     1       8.519  -4.455   2.337  0.00  0.00    -0.004 C 
ATOM      6  C   UNL     1       9.616  -3.552   2.893  0.00  0.00    -0.010 C 
ATOM      7  C   UNL     1      10.970  -4.250   2.743  0.00  0.00    -0.082 C 
ATOM      8  N   UNL     1      11.219  -4.540   1.325  0.00  0.00    +0.379 N 
ATOM      9  C   UNL     1      10.212  -5.483   0.824  0.00  0.00    -0.082 C 
ATOM     10  C   UNL     1       8.825  -4.837   0.892  0.00  0.00    -0.010 C 
ATOM     11  C   UNL     1       6.302  -7.188   3.184  0.00  0.00    +0.251 C 
ATOM     12  O   UNL     1       5.089  -7.241   3.120  0.00  0.00    -0.270 OA
ATOM     13  H   UNL     1      11.170  -3.684   0.794  0.00  0.00    -0.086 HD
ATOM     14  H   UNL     1      12.137  -4.945   1.222  0.00  0.00    -0.086 HD
ENDROOT
BRANCH  11  15
ATOM     15  C   UNL     1       7.093  -8.427   3.203  0.00  0.00    +0.087 A 
ATOM     16  C   UNL     1       8.348  -8.474   3.769  0.00  0.00    +0.063 A 
ATOM     17  S   UNL     1       8.841 -10.063   3.554  0.00  0.00    -0.081 S 
ATOM     18  C   UNL     1       7.417 -10.721   2.713  0.00  0.00    +0.120 A 
ATOM     19  C   UNL     1       6.588  -9.656   2.635  0.00  0.00    +0.158 A 
ATOM     20 CL   UNL     1       7.154 -12.338   2.140  0.00  0.00    -0.072 Cl
BRANCH  19  21
ATOM     21  O   UNL     1       5.359  -9.735   2.053  0.00  0.00    -0.492 OA
ATOM     22  C   UNL     1       5.286  -9.463   0.652  0.00  0.00    +0.277 C 
ENDBRANCH  19  21
ENDBRANCH  11  15
BRANCH   1  24
ATOM     23  N   UNL     1       6.844  -2.629   0.241  0.00  0.00    -0.311 N 
ATOM     24  C   UNL     1       6.526  -3.654   1.057  0.00  0.00    +0.218 C 
ATOM     25  O   UNL     1       5.736  -4.498   0.692  0.00  0.00    -0.275 OA
ATOM     26  H   UNL     1       7.476  -1.955   0.533  0.00  0.00    +0.149 HD
BRANCH  23  27
ATOM     27  C   UNL     1       6.234  -2.535  -1.088  0.00  0.00    +0.139 C 
BRANCH  27  37
ATOM     28  C   UNL     1       9.548   2.062  -4.321  0.00  0.00    +0.129 C 
ATOM     29  N   UNL     1       8.203   2.074  -3.742  0.00  0.00    -0.333 N 
ATOM     30  C   UNL     1       7.354   3.269  -3.849  0.00  0.00    +0.105 C 
ATOM     31  C   UNL     1       6.713   3.514  -2.477  0.00  0.00    +0.024 C 
ATOM     32  C   UNL     1       5.812   2.328  -2.135  0.00  0.00    +0.038 C 
ATOM     33  C   UNL     1       6.562   1.032  -2.296  0.00  0.00    -0.026 A 
ATOM     34  C   UNL     1       7.702   0.946  -3.083  0.00  0.00    +0.033 A 
ATOM     35  C   UNL     1       8.366  -0.268  -3.220  0.00  0.00    +0.024 A 
ATOM     36  C   UNL     1       7.890  -1.392  -2.575  0.00  0.00    +0.007 A 
ATOM     37  C   UNL     1       6.752  -1.309  -1.793  0.00  0.00    -0.030 A 
ATOM     38  C   UNL     1       6.095  -0.098  -1.647  0.00  0.00    +0.010 A 
ENDBRANCH  27  37
ENDBRANCH  23  27
ENDBRANCH   1  24
TORSDOF 5
