REMARK  Name = ZINC39672623
REMARK  6 active torsions:
REMARK  status: ('A' for Active; 'I' for Inactive)
REMARK    1  A    between atoms: C_1  and  C_2
REMARK    2  A    between atoms: C_5  and  C_7
REMARK    3  A    between atoms: C_7  and  N_8
REMARK    4  A    between atoms: C_9  and  C_11
REMARK    5  A    between atoms: C_22  and  C_24
REMARK    6  A    between atoms: C_27  and  C_29
REMARK                            x       y       z     vdW  Elec       q    Type
REMARK                         _______ _______ _______ _____ _____    ______ ____
ROOT
ATOM      1  C   UNL     1      -2.964  -4.452   4.101  0.00  0.00    +0.100 C 
ATOM      2  C   UNL     1      -3.724  -5.076   2.909  0.00  0.00    +0.121 C 
ATOM      3  N   UNL     1      -3.587  -6.539   3.103  0.00  0.00    -0.294 N 
ATOM      4  C   UNL     1      -3.726  -6.732   4.567  0.00  0.00    +0.115 C 
ATOM      5  C   UNL     1      -2.970  -5.540   5.188  0.00  0.00    -0.004 C 
ATOM      6  C   UNL     1      -1.542  -5.947   5.537  0.00  0.00    -0.010 C 
ATOM      7  C   UNL     1      -1.573  -6.989   6.659  0.00  0.00    -0.082 C 
ATOM      8  N   UNL     1      -2.243  -6.423   7.836  0.00  0.00    +0.379 N 
ATOM      9  C   UNL     1      -3.644  -6.120   7.517  0.00  0.00    -0.082 C 
ATOM     10  C   UNL     1      -3.700  -5.042   6.431  0.00  0.00    -0.010 C 
ATOM     11  C   UNL     1      -3.383  -7.481   2.162  0.00  0.00    +0.282 C 
ATOM     12  O   UNL     1      -3.292  -8.652   2.482  0.00  0.00    -0.267 OA
ATOM     13  H   UNL     1      -2.208  -7.088   8.593  0.00  0.00    -0.086 HD
ATOM     14  H   UNL     1      -1.772  -5.575   8.114  0.00  0.00    -0.086 HD
ENDROOT
BRANCH  11  15
ATOM     15  C   UNL     1      -3.270  -7.097   0.753  0.00  0.00    +0.190 A 
ATOM     16  C   UNL     1      -3.068  -7.955  -0.306  0.00  0.00    +0.055 A 
ATOM     17  C   UNL     1      -3.024  -7.167  -1.461  0.00  0.00    +0.050 A 
ATOM     18  C   UNL     1      -3.199  -5.871  -1.069  0.00  0.00    +0.136 A 
ATOM     19  O   UNL     1      -3.353  -5.841   0.265  0.00  0.00    -0.450 OA
BRANCH  18  20
ATOM     20  C   UNL     1      -3.223  -4.697  -1.965  0.00  0.00    +0.017 A 
ATOM     21  C   UNL     1      -3.062  -4.863  -3.342  0.00  0.00    +0.014 A 
ATOM     22  C   UNL     1      -3.085  -3.763  -4.174  0.00  0.00    +0.039 A 
ATOM     23  C   UNL     1      -3.267  -2.495  -3.645  0.00  0.00    +0.123 A 
ATOM     24  C   UNL     1      -3.426  -2.324  -2.279  0.00  0.00    +0.039 A 
ATOM     25  C   UNL     1      -3.411  -3.417  -1.438  0.00  0.00    +0.014 A 
ATOM     26  F   UNL     1      -3.289  -1.421  -4.464  0.00  0.00    -0.205 F 
ENDBRANCH  18  20
ENDBRANCH  11  15
BRANCH   1  28
ATOM     27  N   UNL     1      -0.899  -3.105   4.313  0.00  0.00    -0.309 N 
ATOM     28  C   UNL     1      -1.549  -4.116   3.703  0.00  0.00    +0.219 C 
ATOM     29  O   UNL     1      -0.996  -4.756   2.834  0.00  0.00    -0.275 OA
ATOM     30  H   UNL     1      -1.342  -2.594   5.008  0.00  0.00    +0.149 HD
BRANCH  27  31
ATOM     31  C   UNL     1       0.475  -2.779   3.926  0.00  0.00    +0.167 C 
BRANCH  31  36
ATOM     32  C   UNL     1       2.675  -0.566   7.839  0.00  0.00    +0.066 C 
ATOM     33  C   UNL     1       1.960  -0.538   6.512  0.00  0.00    +0.046 A 
ATOM     34  C   UNL     1       1.671   0.632   5.887  0.00  0.00    +0.070 A 
ATOM     35  S   UNL     1       0.854   0.026   4.419  0.00  0.00    -0.079 S 
ATOM     36  C   UNL     1       0.968  -1.619   4.753  0.00  0.00    +0.096 A 
ATOM     37  N   UNL     1       1.593  -1.648   5.904  0.00  0.00    -0.248 NA
ENDBRANCH  31  36
ENDBRANCH  27  31
ENDBRANCH   1  28
TORSDOF 5
