REMARK  Name = ZINC15675112
REMARK  6 active torsions:
REMARK  status: ('A' for Active; 'I' for Inactive)
REMARK    1  A    between atoms: C_7  and  C_11
REMARK    2  A    between atoms: C_11  and  N_50
REMARK    3  A    between atoms: C_13  and  O_32
REMARK    4  A    between atoms: C_16  and  C_18
REMARK    5  A    between atoms: C_20  and  C_23
REMARK    6  A    between atoms: C_23  and  C_24
REMARK                            x       y       z     vdW  Elec       q    Type
REMARK                         _______ _______ _______ _____ _____    ______ ____
ROOT
ATOM      1  C   UNL     1       2.051   1.165  -1.283  0.00  0.00    -0.046 C 
ATOM      2  C   UNL     1       1.286   1.562  -0.002  0.00  0.00    +0.097 C 
ATOM      3  C   UNL     1       1.167   3.098  -0.066  0.00  0.00    +0.023 C 
ATOM      4  C   UNL     1       1.869   3.501  -1.380  0.00  0.00    +0.025 C 
ATOM      5  N   UNL     1       2.780   2.380  -1.638  0.00  0.00    +0.392 N 
ATOM      6  H   UNL     1       3.620   2.468  -1.053  0.00  0.00    -0.080 HD
ENDROOT
BRANCH   4   7
ATOM      7  C   UNL     1       2.624   4.793  -1.199  0.00  0.00    +0.214 A 
ATOM      8  N   UNL     1       2.317   5.956  -1.719  0.00  0.00    -0.197 NA
ATOM      9  C   UNL     1       3.265   6.807  -1.287  0.00  0.00    +0.176 A 
ATOM     10  N   UNL     1       4.084   6.130  -0.540  0.00  0.00    -0.061 NA
ATOM     11  O   UNL     1       3.731   4.972  -0.471  0.00  0.00    -0.340 OA
BRANCH   9  12
ATOM     12  C   UNL     1       3.359   8.276  -1.611  0.00  0.00    +0.116 C 
BRANCH  12  13
ATOM     13  C   UNL     1       2.599   9.068  -0.578  0.00  0.00    -0.021 A 
ATOM     14  C   UNL     1       1.290   9.442  -0.820  0.00  0.00    +0.008 A 
ATOM     15  C   UNL     1       0.590  10.163   0.129  0.00  0.00    +0.039 A 
ATOM     16  C   UNL     1       1.204  10.522   1.317  0.00  0.00    +0.125 A 
ATOM     17  C   UNL     1       2.516  10.152   1.557  0.00  0.00    +0.058 A 
ATOM     18  C   UNL     1       3.214   9.426   0.608  0.00  0.00    +0.047 A 
ATOM     19 CL   UNL     1       4.860   8.963   0.907  0.00  0.00    -0.083 Cl
ATOM     20  F   UNL     1       0.522  11.231   2.243  0.00  0.00    -0.205 F 
ENDBRANCH  12  13
ENDBRANCH   9  12
ENDBRANCH   4   7
BRANCH   2  21
ATOM     21  O   UNL     1      -0.011   0.963   0.007  0.00  0.00    -0.394 OA
ATOM     22  H   UNL     1       0.002  -0.004   0.002  0.00  0.00    +0.210 HD
ENDBRANCH   2  21
BRANCH   5  23
ATOM     23  C   UNL     1       3.186   2.356  -3.079  0.00  0.00    -0.040 C 
BRANCH  23  30
ATOM     24  C   UNL     1       2.997  -2.305  -3.540  0.00  0.00    +0.001 A 
ATOM     25  C   UNL     1       4.246  -2.881  -3.729  0.00  0.00    +0.002 A 
ATOM     26  C   UNL     1       5.380  -2.100  -3.776  0.00  0.00    +0.026 A 
ATOM     27  C   UNL     1       5.276  -0.722  -3.619  0.00  0.00    +0.047 A 
ATOM     28  C   UNL     1       4.009  -0.143  -3.423  0.00  0.00    +0.001 A 
ATOM     29  C   UNL     1       2.872  -0.953  -3.388  0.00  0.00    +0.010 A 
ATOM     30  C   UNL     1       4.236   1.298  -3.298  0.00  0.00    -0.039 A 
ATOM     31  C   UNL     1       5.559   1.498  -3.410  0.00  0.00    +0.085 A 
ATOM     32  N   UNL     1       6.197   0.302  -3.602  0.00  0.00    -0.360 N 
ATOM     33  H   UNL     1       7.154   0.193  -3.711  0.00  0.00    +0.165 HD
ENDBRANCH  23  30
ENDBRANCH   5  23
TORSDOF 6
