REMARK  Name = ZINC22924945
REMARK  10 active torsions:
REMARK  status: ('A' for Active; 'I' for Inactive)
REMARK    1  A    between atoms: C_1  and  C_2
REMARK    2  A    between atoms: C_4  and  C_37
REMARK    3  A    between atoms: C_9  and  C_14
REMARK    4  A    between atoms: C_14  and  C_16
REMARK    5  A    between atoms: C_14  and  N_25
REMARK    6  A    between atoms: N_20  and  C_21
REMARK    7  A    between atoms: C_21  and  C_22
REMARK    8  A    between atoms: C_21  and  C_23
REMARK    9  A    between atoms: C_21  and  C_24
REMARK   10  A    between atoms: N_28  and  C_31
REMARK                            x       y       z     vdW  Elec       q    Type
REMARK                         _______ _______ _______ _____ _____    ______ ____
ROOT
ATOM      1  C   UNL     1       0.054  -5.075   3.704  0.00  0.00    +0.162 C 
ENDROOT
BRANCH   1  10
ATOM      2  C   UNL     1      -0.654   0.806  -0.828  0.00  0.00    +0.044 C 
ATOM      3  C   UNL     1      -0.597  -0.684  -0.607  0.00  0.00    -0.050 A 
ATOM      4  C   UNL     1      -0.723  -1.545  -1.689  0.00  0.00    +0.008 A 
ATOM      5  C   UNL     1      -0.673  -2.911  -1.510  0.00  0.00    -0.026 A 
ATOM      6  C   UNL     1      -0.495  -3.434  -0.233  0.00  0.00    +0.052 A 
ATOM      7  C   UNL     1      -0.368  -2.557   0.861  0.00  0.00    -0.001 A 
ATOM      8  C   UNL     1      -0.416  -1.175   0.655  0.00  0.00    +0.013 A 
ATOM      9  C   UNL     1      -0.181  -3.118   2.200  0.00  0.00    +0.021 A 
ATOM     10  C   UNL     1      -0.137  -4.466   2.339  0.00  0.00    +0.042 A 
ATOM     11  C   UNL     1      -0.270  -5.301   1.208  0.00  0.00    +0.254 A 
ATOM     12  O   UNL     1      -0.228  -6.510   1.355  0.00  0.00    -0.268 OA
ATOM     13  N   UNL     1      -0.442  -4.795  -0.026  0.00  0.00    -0.322 N 
ATOM     14  H   UNL     1      -0.530  -5.398  -0.781  0.00  0.00    +0.169 HD
ATOM     15  C   UNL     1      -0.812  -3.834  -2.693  0.00  0.00    +0.046 C 
ENDBRANCH   1  10
BRANCH   1  16
ATOM     16  N   UNL     1      -1.037  -6.020   3.975  0.00  0.00    -0.292 NA
ATOM     17  C   UNL     1      -2.346  -5.363   3.853  0.00  0.00    +0.067 C 
ATOM     18  C   UNL     1      -3.454  -6.393   4.085  0.00  0.00    -0.063 C 
ATOM     19  N   UNL     1      -3.304  -6.981   5.422  0.00  0.00    +0.383 N 
ATOM     20  C   UNL     1      -2.003  -7.655   5.521  0.00  0.00    -0.063 C 
ATOM     21  C   UNL     1      -0.883  -6.635   5.301  0.00  0.00    +0.067 C 
ATOM     22  H   UNL     1      -3.359  -6.252   6.118  0.00  0.00    -0.081 HD
BRANCH  19  23
ATOM     23  C   UNL     1      -4.379  -7.957   5.651  0.00  0.00    -0.068 C 
ATOM     24  C   UNL     1      -5.735  -7.255   5.550  0.00  0.00    -0.015 C 
ATOM     25  C   UNL     1      -6.853  -8.271   5.788  0.00  0.00    -0.002 C 
ATOM     26  C   UNL     1      -6.698  -8.884   7.181  0.00  0.00    -0.000 C 
ATOM     27  C   UNL     1      -5.342  -9.586   7.282  0.00  0.00    -0.002 C 
ATOM     28  C   UNL     1      -4.223  -8.569   7.044  0.00  0.00    -0.015 C 
ENDBRANCH  19  23
ENDBRANCH   1  16
BRANCH   1  29
ATOM     29  C   UNL     1       1.373  -5.803   3.749  0.00  0.00    +0.174 A 
ATOM     30  N   UNL     1       1.679  -6.907   3.112  0.00  0.00    -0.111 NA
ATOM     31  N   UNL     1       2.896  -7.212   3.407  0.00  0.00    -0.023 NA
ATOM     32  N   UNL     1       3.374  -6.331   4.215  0.00  0.00    -0.043 NA
ATOM     33  N   UNL     1       2.467  -5.442   4.446  0.00  0.00    -0.222 N 
BRANCH  33  34
ATOM     34  C   UNL     1       2.601  -4.265   5.307  0.00  0.00    +0.059 C 
ATOM     35  C   UNL     1       1.611  -4.368   6.469  0.00  0.00    +0.036 C 
ATOM     36  C   UNL     1       4.027  -4.195   5.856  0.00  0.00    +0.036 C 
ATOM     37  C   UNL     1       2.304  -3.003   4.495  0.00  0.00    +0.036 C 
ENDBRANCH  33  34
ENDBRANCH   1  29
TORSDOF 5
