REMARK  Name = ZINC40110222
REMARK  12 active torsions:
REMARK  status: ('A' for Active; 'I' for Inactive)
REMARK    1  A    between atoms: C_2  and  C_3
REMARK    2  A    between atoms: C_3  and  O_4
REMARK    3  A    between atoms: O_4  and  C_5
REMARK    4  A    between atoms: C_9  and  C_11
REMARK    5  A    between atoms: C_13  and  C_22
REMARK    6  A    between atoms: N_17  and  C_18
REMARK    7  A    between atoms: C_18  and  C_19
REMARK    8  A    between atoms: C_19  and  O_20
REMARK    9  A    between atoms: C_22  and  C_24
REMARK   10  A    between atoms: C_27  and  O_30
REMARK   11  A    between atoms: O_30  and  C_31
REMARK   12  A    between atoms: C_31  and  C_32
REMARK                            x       y       z     vdW  Elec       q    Type
REMARK                         _______ _______ _______ _____ _____    ______ ____
ROOT
ATOM      1  C   UNL     1      -3.435  -5.595  -3.059  0.00  0.00    +0.145 C 
ATOM      2  C   UNL     1      -4.314  -5.290  -4.250  0.00  0.00    +0.076 C 
ATOM      3  C   UNL     1      -5.274  -6.242  -4.282  0.00  0.00    +0.249 C 
ATOM      4  C   UNL     1      -5.070  -7.176  -3.155  0.00  0.00    +0.288 C 
ATOM      5  O   UNL     1      -5.768  -8.140  -2.912  0.00  0.00    -0.266 OA
ATOM      6  N   UNL     1      -3.994  -6.801  -2.436  0.00  0.00    -0.281 N 
ATOM      7  O   UNL     1      -6.264  -6.327  -5.201  0.00  0.00    -0.282 OA
ENDROOT
BRANCH   1  12
ATOM      8  C   UNL     1      -2.364  -2.622  -0.989  0.00  0.00    +0.121 A 
ATOM      9  C   UNL     1      -3.530  -2.338  -0.292  0.00  0.00    +0.045 A 
ATOM     10  C   UNL     1      -4.658  -3.108  -0.494  0.00  0.00    +0.004 A 
ATOM     11  C   UNL     1      -4.627  -4.161  -1.390  0.00  0.00    +0.006 A 
ATOM     12  C   UNL     1      -3.466  -4.446  -2.085  0.00  0.00    -0.019 A 
ATOM     13  C   UNL     1      -2.336  -3.675  -1.890  0.00  0.00    +0.051 A 
BRANCH   8  14
ATOM     14  O   UNL     1      -1.252  -1.865  -0.792  0.00  0.00    -0.488 OA
BRANCH  14  15
ATOM     15  C   UNL     1      -1.353  -0.796   0.152  0.00  0.00    +0.256 C 
BRANCH  15  17
ATOM     16  C   UNL     1      -0.001   1.235   0.233  0.00  0.00    +0.007 C 
ATOM     17  C   UNL     1      -0.033  -0.074   0.236  0.00  0.00    +0.006 C 
ENDBRANCH  15  17
ENDBRANCH  14  15
ENDBRANCH   8  14
ENDBRANCH   1  12
BRANCH   2  18
ATOM     18  C   UNL     1      -4.156  -4.175  -5.190  0.00  0.00    +0.195 C 
ATOM     19  O   UNL     1      -4.998  -3.299  -5.242  0.00  0.00    -0.287 OA
BRANCH  18  20
ATOM     20  C   UNL     1      -2.975  -4.116  -6.074  0.00  0.00    +0.022 A 
ATOM     21  C   UNL     1      -2.068  -5.180  -6.104  0.00  0.00    +0.015 A 
ATOM     22  C   UNL     1      -0.968  -5.122  -6.929  0.00  0.00    +0.046 A 
ATOM     23  C   UNL     1      -0.757  -4.006  -7.732  0.00  0.00    +0.121 A 
ATOM     24  C   UNL     1      -1.656  -2.946  -7.705  0.00  0.00    +0.046 A 
ATOM     25  C   UNL     1      -2.762  -2.999  -6.887  0.00  0.00    +0.015 A 
BRANCH  23  26
ATOM     26  O   UNL     1       0.328  -3.952  -8.544  0.00  0.00    -0.487 OA
BRANCH  26  27
ATOM     27  C   UNL     1       0.484  -2.777  -9.342  0.00  0.00    +0.264 C 
BRANCH  27  28
ATOM     28  C   UNL     1       1.736  -2.896 -10.173  0.00  0.00    -0.010 A 
ATOM     29  C   UNL     1       2.942  -2.442  -9.673  0.00  0.00    +0.010 A 
ATOM     30  C   UNL     1       4.091  -2.551 -10.433  0.00  0.00    +0.039 A 
ATOM     31  C   UNL     1       4.033  -3.114 -11.697  0.00  0.00    +0.123 A 
ATOM     32  C   UNL     1       2.824  -3.568 -12.197  0.00  0.00    +0.039 A 
ATOM     33  C   UNL     1       1.678  -3.463 -11.432  0.00  0.00    +0.010 A 
ATOM     34  F   UNL     1       5.155  -3.221 -12.441  0.00  0.00    -0.205 F 
ENDBRANCH  27  28
ENDBRANCH  26  27
ENDBRANCH  23  26
ENDBRANCH  18  20
ENDBRANCH   2  18
BRANCH   6  35
ATOM     35  C   UNL     1      -3.473  -7.476  -1.245  0.00  0.00    +0.137 C 
BRANCH  35  36
ATOM     36  C   UNL     1      -4.135  -6.889   0.004  0.00  0.00    +0.175 C 
BRANCH  36  37
ATOM     37  O   UNL     1      -5.534  -7.183  -0.016  0.00  0.00    -0.393 OA
ATOM     38  H   UNL     1      -6.018  -6.840   0.747  0.00  0.00    +0.209 HD
ENDBRANCH  36  37
ENDBRANCH  35  36
ENDBRANCH   6  35
TORSDOF 12
