REMARK  Name = ZINC37053347
REMARK  5 active torsions:
REMARK  status: ('A' for Active; 'I' for Inactive)
REMARK    1  A    between atoms: C_1  and  C_2
REMARK    2  A    between atoms: C_8  and  N_10
REMARK    3  A    between atoms: N_10  and  S_11
REMARK    4  A    between atoms: S_11  and  C_14
REMARK    5  A    between atoms: C_15  and  N_22
REMARK                            x       y       z     vdW  Elec       q    Type
REMARK                         _______ _______ _______ _____ _____    ______ ____
ROOT
ATOM      1  S   UNL     1       1.284   0.450   4.506  0.00  0.00    +0.062 S 
ATOM      2  O   UNL     1       0.539   1.007   5.581  0.00  0.00    -0.153 OA
ATOM      3  O   UNL     1       2.276  -0.547   4.704  0.00  0.00    -0.153 OA
ENDROOT
BRANCH   1   4
ATOM      4  C   UNL     1       2.078   1.796   3.692  0.00  0.00    +0.144 A 
ATOM      5  C   UNL     1       3.232   1.577   2.951  0.00  0.00    +0.054 A 
ATOM      6  C   UNL     1       3.855   2.640   2.310  0.00  0.00    +0.044 A 
ATOM      7  C   UNL     1       3.325   3.913   2.412  0.00  0.00    +0.044 A 
ATOM      8  C   UNL     1       2.175   4.128   3.151  0.00  0.00    +0.042 A 
ATOM      9  C   UNL     1       1.550   3.070   3.786  0.00  0.00    +0.070 A 
ATOM     10 CL   UNL     1       0.103   3.343   4.707  0.00  0.00    -0.081 Cl
ATOM     11 CL   UNL     1       4.103   5.243   1.612  0.00  0.00    -0.083 Cl
BRANCH   5  12
ATOM     12  N   UNL     1       3.765   0.290   2.850  0.00  0.00    -0.356 N 
ATOM     13  H   UNL     1       3.200  -0.483   3.009  0.00  0.00    +0.142 HD
ATOM     14  H   UNL     1       4.700   0.169   2.621  0.00  0.00    +0.142 HD
ENDBRANCH   5  12
ENDBRANCH   1   4
BRANCH   1  15
ATOM     15  N   UNL     1       0.181  -0.183   3.445  0.00  0.00    -0.187 NA
ATOM     16  H   UNL     1      -0.767  -0.135   3.644  0.00  0.00    +0.148 HD
BRANCH  15  23
ATOM     17  C   UNL     1      -0.486   0.978   0.876  0.00  0.00    +0.009 C 
ATOM     18  C   UNL     1      -0.368  -0.533   1.087  0.00  0.00    +0.005 C 
ATOM     19  C   UNL     1      -1.735  -1.101   1.476  0.00  0.00    +0.005 C 
ATOM     20  C   UNL     1      -1.617  -2.612   1.687  0.00  0.00    +0.000 C 
ATOM     21  C   UNL     1      -0.611  -2.894   2.804  0.00  0.00    +0.002 C 
ATOM     22  C   UNL     1       0.755  -2.326   2.416  0.00  0.00    +0.020 C 
ATOM     23  C   UNL     1       0.638  -0.815   2.205  0.00  0.00    +0.079 C 
ENDBRANCH  15  23
ENDBRANCH   1  15
TORSDOF 4
