REMARK  Name = ZINC63552604
REMARK  6 active torsions:
REMARK  status: ('A' for Active; 'I' for Inactive)
REMARK    1  A    between atoms: C_6  and  S_10
REMARK    2  A    between atoms: S_10  and  C_11
REMARK    3  A    between atoms: C_11  and  C_12
REMARK    4  A    between atoms: C_18  and  S_20
REMARK    5  A    between atoms: S_20  and  C_21
REMARK    6  A    between atoms: C_21  and  C_22
REMARK                            x       y       z     vdW  Elec       q    Type
REMARK                         _______ _______ _______ _____ _____    ______ ____
ROOT
ATOM      1  C   UNL     1       3.313  -2.560  -4.211  0.00  0.00    +0.229 C 
ATOM      2  O   UNL     1       4.002  -3.557  -4.234  0.00  0.00    -0.275 OA
ATOM      3  N   UNL     1       2.897  -2.000  -5.364  0.00  0.00    -0.263 N 
ATOM      4  C   UNL     1       3.260  -2.568  -6.584  0.00  0.00    +0.189 A 
ATOM      5  N   UNL     1       3.989  -3.642  -6.838  0.00  0.00    -0.125 NA
ATOM      6  N   UNL     1       4.226  -4.026  -8.016  0.00  0.00    -0.133 NA
ATOM      7  C   UNL     1       3.758  -3.376  -9.072  0.00  0.00    +0.160 A 
ATOM      8  S   UNL     1       2.865  -2.057  -8.254  0.00  0.00    -0.024 S 
ATOM      9  H   UNL     1       2.346  -1.202  -5.346  0.00  0.00    +0.157 HD
ENDROOT
BRANCH   1  10
ATOM     10  C   UNL     1       2.921  -1.946  -2.892  0.00  0.00    +0.169 C 
BRANCH  10  11
ATOM     11  S   UNL     1       3.629  -2.921  -1.536  0.00  0.00    -0.106 S 
BRANCH  11  17
ATOM     12  C   UNL     1      -0.016   1.344   0.009  0.00  0.00    +0.002 A 
ATOM     13  C   UNL     1       1.158   2.118   0.002  0.00  0.00    +0.002 A 
ATOM     14  C   UNL     1       2.389   1.570  -0.013  0.00  0.00    +0.027 A 
ATOM     15  C   UNL     1       2.533   0.108  -0.022  0.00  0.00    +0.061 A 
ATOM     16  N   UNL     1       3.569  -0.680  -0.036  0.00  0.00    -0.355 N 
ATOM     17  C   UNL     1       3.071  -2.062  -0.039  0.00  0.00    +0.236 C 
ATOM     18  N   UNL     1       1.606  -1.974  -0.024  0.00  0.00    -0.355 N 
ATOM     19  C   UNL     1       1.290  -0.712  -0.014  0.00  0.00    +0.061 A 
ATOM     20  C   UNL     1       0.002  -0.004   0.002  0.00  0.00    +0.027 A 
ATOM     21  H   UNL     1       4.499  -0.405  -0.045  0.00  0.00    +0.162 HD
ATOM     22  H   UNL     1       0.987  -2.721  -0.022  0.00  0.00    +0.162 HD
ENDBRANCH  11  17
ENDBRANCH  10  11
ENDBRANCH   1  10
BRANCH   7  23
ATOM     23  S   UNL     1       3.954  -3.715 -10.790  0.00  0.00    -0.092 S 
BRANCH  23  24
ATOM     24  C   UNL     1       4.978  -5.212 -10.827  0.00  0.00    +0.111 C 
BRANCH  24  25
ATOM     25  C   UNL     1       5.224  -5.617 -12.258  0.00  0.00    -0.037 A 
ATOM     26  C   UNL     1       4.346  -6.474 -12.894  0.00  0.00    +0.007 A 
ATOM     27  C   UNL     1       4.570  -6.845 -14.206  0.00  0.00    +0.038 A 
ATOM     28  C   UNL     1       5.676  -6.358 -14.883  0.00  0.00    +0.123 A 
ATOM     29  C   UNL     1       6.555  -5.500 -14.245  0.00  0.00    +0.038 A 
ATOM     30  C   UNL     1       6.325  -5.126 -12.934  0.00  0.00    +0.007 A 
ATOM     31  F   UNL     1       5.897  -6.721 -16.166  0.00  0.00    -0.205 F 
ENDBRANCH  24  25
ENDBRANCH  23  24
ENDBRANCH   7  23
TORSDOF 6
