REMARK  Name = ZINC14550838
REMARK  6 active torsions:
REMARK  status: ('A' for Active; 'I' for Inactive)
REMARK    1  A    between atoms: C_4  and  C_7
REMARK    2  A    between atoms: C_7  and  N_8
REMARK    3  A    between atoms: N_8  and  S_9
REMARK    4  A    between atoms: S_9  and  C_12
REMARK    5  A    between atoms: C_25  and  C_28
REMARK    6  A    between atoms: C_31  and  N_34
REMARK                            x       y       z     vdW  Elec       q    Type
REMARK                         _______ _______ _______ _____ _____    ______ ____
ROOT
ATOM      1  C   UNL     1      -3.204  -0.573   1.372  0.00  0.00    +0.106 A 
ATOM      2  C   UNL     1      -3.026  -1.873   1.811  0.00  0.00    +0.030 A 
ATOM      3  C   UNL     1      -1.814  -2.457   1.705  0.00  0.00    +0.025 A 
ATOM      4  C   UNL     1      -0.751  -1.799   1.099  0.00  0.00    +0.031 A 
ATOM      5  C   UNL     1      -0.933  -0.509   0.617  0.00  0.00    -0.018 A 
ATOM      6  C   UNL     1      -2.157   0.104   0.776  0.00  0.00    +0.034 A 
ATOM      7  C   UNL     1       0.215   0.165  -0.027  0.00  0.00    +0.049 C 
ATOM      8  C   UNL     1       0.360   1.643  -0.024  0.00  0.00    -0.023 C 
ATOM      9  C   UNL     1       1.653   1.942  -0.018  0.00  0.00    -0.030 C 
ATOM     10  C   UNL     1       2.487   0.660   0.018  0.00  0.00    +0.033 C 
ATOM     11  C   UNL     1       1.514  -0.322   0.683  0.00  0.00    +0.029 C 
ATOM     12  C   UNL     1       1.638  -1.794   0.334  0.00  0.00    +0.105 C 
ATOM     13  N   UNL     1       0.480  -2.454   0.975  0.00  0.00    -0.336 N 
ATOM     14  H   UNL     1       0.575  -3.358   1.316  0.00  0.00    +0.147 HD
ENDROOT
BRANCH  12  15
ATOM     15  C   UNL     1       1.582  -1.981  -1.161  0.00  0.00    -0.027 A 
ATOM     16  C   UNL     1       0.370  -2.216  -1.783  0.00  0.00    +0.008 A 
ATOM     17  C   UNL     1       0.318  -2.383  -3.154  0.00  0.00    +0.033 A 
ATOM     18  C   UNL     1       1.479  -2.324  -3.902  0.00  0.00    +0.126 A 
ATOM     19  C   UNL     1       2.691  -2.094  -3.280  0.00  0.00    +0.033 A 
ATOM     20  C   UNL     1       2.743  -1.923  -1.909  0.00  0.00    +0.008 A 
BRANCH  18  21
ATOM     21  N   UNL     1       1.424  -2.508  -5.370  0.00  0.00    +0.056 N 
ATOM     22  O   UNL     1       2.446  -2.456  -6.029  0.00  0.00    -0.126 OA
ATOM     23  O   UNL     1       0.355  -2.710  -5.918  0.00  0.00    -0.126 OA
ENDBRANCH  18  21
ENDBRANCH  12  15
BRANCH   1  24
ATOM     24  S   UNL     1      -4.765   0.219   1.572  0.00  0.00    +0.059 S 
ATOM     25  O   UNL     1      -5.419  -0.438   2.650  0.00  0.00    -0.153 OA
ATOM     26  O   UNL     1      -4.514   1.617   1.572  0.00  0.00    -0.153 OA
BRANCH  24  27
ATOM     27  N   UNL     1      -5.655  -0.102   0.213  0.00  0.00    -0.186 NA
ATOM     28  H   UNL     1      -5.909   0.620  -0.382  0.00  0.00    +0.148 HD
BRANCH  27  29
ATOM     29  C   UNL     1      -6.058  -1.478  -0.091  0.00  0.00    +0.141 C 
BRANCH  29  33
ATOM     30  C   UNL     1      -9.124  -1.440  -3.065  0.00  0.00    +0.000 A 
ATOM     31  C   UNL     1      -7.796  -1.500  -3.442  0.00  0.00    +0.000 A 
ATOM     32  C   UNL     1      -6.803  -1.512  -2.480  0.00  0.00    +0.005 A 
ATOM     33  C   UNL     1      -7.140  -1.464  -1.140  0.00  0.00    -0.032 A 
ATOM     34  C   UNL     1      -8.468  -1.410  -0.762  0.00  0.00    +0.005 A 
ATOM     35  C   UNL     1      -9.460  -1.393  -1.725  0.00  0.00    +0.000 A 
ENDBRANCH  29  33
ENDBRANCH  27  29
ENDBRANCH  24  27
ENDBRANCH   1  24
TORSDOF 6
