REMARK  Name = ZINC09957161
REMARK  11 active torsions:
REMARK  status: ('A' for Active; 'I' for Inactive)
REMARK    1  A    between atoms: C_1  and  C_2
REMARK    2  A    between atoms: C_2  and  N_63
REMARK    3  A    between atoms: C_3  and  C_4
REMARK    4  A    between atoms: C_3  and  N_63
REMARK    5  A    between atoms: C_5  and  C_6
REMARK    6  A    between atoms: C_5  and  N_63
REMARK    7  A    between atoms: C_6  and  C_7
REMARK    8  A    between atoms: C_7  and  N_8
REMARK    9  A    between atoms: C_18  and  S_19
REMARK   10  A    between atoms: S_19  and  C_20
REMARK   11  A    between atoms: C_20  and  C_21
REMARK                            x       y       z     vdW  Elec       q    Type
REMARK                         _______ _______ _______ _____ _____    ______ ____
ROOT
ATOM      1  N   UNL     1       1.030   1.994   2.252  0.00  0.00    -0.287 N 
ATOM      2  C   UNL     1       0.705   0.964   3.067  0.00  0.00    +0.262 A 
ATOM      3  O   UNL     1      -0.319   0.326   2.901  0.00  0.00    -0.267 OA
ATOM      4  C   UNL     1       1.637   0.640   4.155  0.00  0.00    +0.065 A 
ATOM      5  C   UNL     1       1.396  -0.406   5.045  0.00  0.00    +0.015 A 
ATOM      6  C   UNL     1       2.295  -0.662   6.043  0.00  0.00    +0.001 A 
ATOM      7  C   UNL     1       3.443   0.108   6.179  0.00  0.00    +0.002 A 
ATOM      8  C   UNL     1       3.704   1.139   5.322  0.00  0.00    +0.028 A 
ATOM      9  C   UNL     1       2.804   1.426   4.290  0.00  0.00    +0.079 A 
ATOM     10  N   UNL     1       3.023   2.433   3.422  0.00  0.00    -0.223 NA
ATOM     11  C   UNL     1       2.180   2.702   2.455  0.00  0.00    +0.173 A 
ENDROOT
BRANCH   1  12
ATOM     12  C   UNL     1       0.138   2.357   1.147  0.00  0.00    +0.125 C 
BRANCH  12  13
ATOM     13  C   UNL     1       0.539   1.579  -0.108  0.00  0.00    +0.003 C 
BRANCH  13  14
ATOM     14  C   UNL     1      -0.392   1.958  -1.262  0.00  0.00    -0.077 C 
BRANCH  14  15
ATOM     15  N   UNL     1       0.020   1.214  -2.471  0.00  0.00    +0.379 N 
ATOM     16  H   UNL     1       1.026   1.356  -2.623  0.00  0.00    -0.082 HD
BRANCH  15  18
ATOM     17  C   UNL     1      -1.727  -0.479  -2.035  0.00  0.00    -0.017 C 
ATOM     18  C   UNL     1      -0.239  -0.229  -2.289  0.00  0.00    -0.082 C 
ENDBRANCH  15  18
BRANCH  15  19
ATOM     19  C   UNL     1      -0.719   1.716  -3.649  0.00  0.00    -0.082 C 
ATOM     20  C   UNL     1      -0.029   1.206  -4.915  0.00  0.00    -0.017 C 
ENDBRANCH  15  19
ENDBRANCH  14  15
ENDBRANCH  13  14
ENDBRANCH  12  13
ENDBRANCH   1  12
BRANCH  11  21
ATOM     21  S   UNL     1       2.548   4.037   1.367  0.00  0.00    -0.080 S 
BRANCH  21  22
ATOM     22  C   UNL     1       4.120   4.593   2.072  0.00  0.00    +0.151 C 
BRANCH  22  23
ATOM     23  C   UNL     1       4.640   5.765   1.279  0.00  0.00    +0.121 A 
ATOM     24  N   UNL     1       5.812   6.346   1.641  0.00  0.00    -0.310 N 
ATOM     25  H   UNL     1       6.299   5.999   2.405  0.00  0.00    +0.170 HD
ATOM     26  C   UNL     1       6.315   7.392   0.957  0.00  0.00    +0.260 A 
ATOM     27  O   UNL     1       7.372   7.901   1.291  0.00  0.00    -0.267 OA
ATOM     28  C   UNL     1       5.584   7.897  -0.166  0.00  0.00    +0.075 A 
ATOM     29  C   UNL     1       5.936   9.022  -1.045  0.00  0.00    -0.023 A 
ATOM     30  C   UNL     1       5.080   9.304  -2.042  0.00  0.00    -0.004 A 
ATOM     31  S   UNL     1       3.771   8.113  -1.875  0.00  0.00    -0.073 S 
ATOM     32  C   UNL     1       4.384   7.237  -0.461  0.00  0.00    +0.116 A 
ATOM     33  N   UNL     1       3.952   6.204   0.259  0.00  0.00    -0.226 NA
ATOM     34  C   UNL     1       5.544  10.467  -2.877  0.00  0.00    +0.043 C 
ATOM     35  C   UNL     1       7.042  10.618  -2.533  0.00  0.00    +0.010 C 
ATOM     36  C   UNL     1       7.101  10.013  -1.117  0.00  0.00    +0.037 C 
ENDBRANCH  22  23
ENDBRANCH  21  22
ENDBRANCH  11  21
TORSDOF 9
