REMARK  Name = ZINC63142025
REMARK  9 active torsions:
REMARK  status: ('A' for Active; 'I' for Inactive)
REMARK    1  A    between atoms: C_1  and  O_2
REMARK    2  A    between atoms: O_2  and  C_3
REMARK    3  A    between atoms: C_5  and  C_13
REMARK    4  A    between atoms: C_7  and  O_11
REMARK    5  A    between atoms: C_8  and  O_9
REMARK    6  A    between atoms: O_9  and  C_10
REMARK    7  A    between atoms: O_11  and  C_12
REMARK    8  A    between atoms: N_32  and  C_35
REMARK    9  A    between atoms: C_35  and  C_36
REMARK                            x       y       z     vdW  Elec       q    Type
REMARK                         _______ _______ _______ _____ _____    ______ ____
ROOT
ATOM      1  C   UNL     1       2.402   0.386  -4.230  0.00  0.00    +0.134 C 
ATOM      2  C   UNL     1       1.518   0.340  -5.480  0.00  0.00    +0.131 C 
ATOM      3  C   UNL     1       1.635  -1.068  -6.049  0.00  0.00    -0.034 C 
ATOM      4  C   UNL     1       0.398  -1.542  -6.133  0.00  0.00    -0.001 A 
ATOM      5  C   UNL     1      -0.132  -2.807  -6.668  0.00  0.00    +0.010 A 
ATOM      6  C   UNL     1      -1.478  -2.977  -6.583  0.00  0.00    +0.001 A 
ATOM      7  C   UNL     1      -2.340  -2.026  -6.026  0.00  0.00    +0.002 A 
ATOM      8  C   UNL     1      -1.940  -0.834  -5.517  0.00  0.00    +0.026 A 
ATOM      9  C   UNL     1      -0.546  -0.539  -5.553  0.00  0.00    +0.043 A 
ATOM     10  N   UNL     1       0.103   0.539  -5.157  0.00  0.00    -0.375 N 
ATOM     11  C   UNL     1       2.967  -1.713  -6.340  0.00  0.00    +0.065 C 
ATOM     12  C   UNL     1       3.827  -1.537  -5.074  0.00  0.00    +0.167 C 
ATOM     13  N   UNL     1       3.728  -0.161  -4.596  0.00  0.00    -0.279 N 
ATOM     14  C   UNL     1       4.792   0.642  -4.474  0.00  0.00    +0.234 C 
ATOM     15  O   UNL     1       4.601   1.775  -4.086  0.00  0.00    -0.274 OA
ATOM     16  C   UNL     1       6.197   0.241  -4.779  0.00  0.00    +0.204 C 
ATOM     17  N   UNL     1       6.290  -1.139  -5.224  0.00  0.00    -0.286 N 
ATOM     18  C   UNL     1       5.234  -1.945  -5.362  0.00  0.00    +0.237 C 
ATOM     19  O   UNL     1       5.429  -3.080  -5.742  0.00  0.00    -0.274 OA
ATOM     20  H   UNL     1      -0.275   1.321  -4.726  0.00  0.00    +0.160 HD
ENDROOT
BRANCH   1  23
ATOM     21  C   UNL     1       1.000  -2.575  -2.346  0.00  0.00    +0.165 A 
ATOM     22  C   UNL     1       1.565  -1.800  -3.348  0.00  0.00    +0.055 A 
ATOM     23  C   UNL     1       1.787  -0.452  -3.139  0.00  0.00    -0.018 A 
ATOM     24  C   UNL     1       1.448   0.129  -1.931  0.00  0.00    +0.055 A 
ATOM     25  C   UNL     1       0.883  -0.639  -0.924  0.00  0.00    +0.165 A 
ATOM     26  C   UNL     1       0.653  -1.993  -1.133  0.00  0.00    +0.204 A 
BRANCH  21  28
ATOM     27  C   UNL     1       1.164  -4.432  -3.823  0.00  0.00    +0.277 C 
ATOM     28  O   UNL     1       0.782  -3.902  -2.552  0.00  0.00    -0.491 OA
ENDBRANCH  21  28
BRANCH  26  29
ATOM     29  O   UNL     1       0.093  -2.749  -0.149  0.00  0.00    -0.488 OA
ATOM     30  C   UNL     1       0.985  -3.372   0.778  0.00  0.00    +0.277 C 
ENDBRANCH  26  29
BRANCH  25  31
ATOM     31  O   UNL     1       0.550  -0.066   0.263  0.00  0.00    -0.491 OA
ATOM     32  C   UNL     1       0.811   1.332   0.405  0.00  0.00    +0.277 C 
ENDBRANCH  25  31
ENDBRANCH   1  23
BRANCH  17  33
ATOM     33  C   UNL     1       7.615  -1.677  -5.541  0.00  0.00    +0.150 C 
BRANCH  33  34
ATOM     34  C   UNL     1       8.221  -2.285  -4.303  0.00  0.00    +0.007 A 
ATOM     35  C   UNL     1       8.134  -3.558  -3.847  0.00  0.00    +0.013 A 
ATOM     36  C   UNL     1       8.780  -3.895  -2.672  0.00  0.00    +0.008 A 
ATOM     37  C   UNL     1       9.480  -2.942  -2.010  0.00  0.00    +0.045 A 
ATOM     38  S   UNL     1       9.245  -1.516  -3.058  0.00  0.00    -0.100 S 
ENDBRANCH  33  34
ENDBRANCH  17  33
TORSDOF 6
