REMARK  Name = ZINC36375284
REMARK  9 active torsions:
REMARK  status: ('A' for Active; 'I' for Inactive)
REMARK    1  A    between atoms: C_1  and  C_2
REMARK    2  A    between atoms: C_2  and  C_29
REMARK    3  A    between atoms: C_6  and  O_28
REMARK    4  A    between atoms: C_10  and  C_20
REMARK    5  A    between atoms: C_14  and  C_17
REMARK    6  A    between atoms: C_17  and  C_18
REMARK    7  A    between atoms: C_18  and  O_19
REMARK    8  A    between atoms: C_23  and  O_27
REMARK    9  A    between atoms: C_24  and  O_26
REMARK                            x       y       z     vdW  Elec       q    Type
REMARK                         _______ _______ _______ _____ _____    ______ ____
ROOT
ATOM      1  C   UNL     1      -0.019   1.526   0.010  0.00  0.00    +0.060 C 
ATOM      2  C   UNL     1       0.002  -0.004   0.002  0.00  0.00    +0.124 C 
ATOM      3  C   UNL     1      -1.413  -0.520  -0.015  0.00  0.00    +0.020 C 
ATOM      4  C   UNL     1      -1.696  -1.705   0.523  0.00  0.00    +0.015 C 
ATOM      5  C   UNL     1      -0.591  -2.472   1.136  0.00  0.00    +0.059 A 
ATOM      6  C   UNL     1      -0.719  -3.830   1.411  0.00  0.00    +0.142 A 
ATOM      7  C   UNL     1       0.356  -4.508   1.995  0.00  0.00    +0.107 A 
ATOM      8  C   UNL     1       0.268  -5.941   2.324  0.00  0.00    +0.204 A 
ATOM      9  O   UNL     1      -0.634  -6.646   1.905  0.00  0.00    -0.286 OA
ATOM     10  C   UNL     1       1.338  -6.473   3.191  0.00  0.00    +0.065 A 
ATOM     11  C   UNL     1       2.437  -5.702   3.398  0.00  0.00    +0.208 A 
ATOM     12  O   UNL     1       2.591  -4.499   2.840  0.00  0.00    -0.462 OA
ATOM     13  C   UNL     1       1.555  -3.833   2.292  0.00  0.00    +0.149 A 
ATOM     14  C   UNL     1       1.664  -2.476   2.012  0.00  0.00    +0.040 A 
ATOM     15  C   UNL     1       0.605  -1.797   1.440  0.00  0.00    +0.139 A 
ATOM     16  O   UNL     1       0.694  -0.472   1.160  0.00  0.00    -0.481 OA
ATOM     17  C   UNL     1       0.731  -0.492  -1.252  0.00  0.00    +0.060 C 
ENDROOT
BRANCH  10  18
ATOM     18  C   UNL     1       1.217  -7.811   3.818  0.00  0.00    -0.008 A 
ATOM     19  C   UNL     1       1.191  -8.956   3.023  0.00  0.00    +0.012 A 
ATOM     20  C   UNL     1       1.078 -10.201   3.607  0.00  0.00    +0.050 A 
ATOM     21  C   UNL     1       0.990 -10.317   4.986  0.00  0.00    +0.158 A 
ATOM     22  C   UNL     1       1.015  -9.177   5.786  0.00  0.00    +0.159 A 
ATOM     23  C   UNL     1       1.135  -7.927   5.205  0.00  0.00    +0.058 A 
BRANCH  22  24
ATOM     24  O   UNL     1       0.928  -9.293   7.138  0.00  0.00    -0.503 OA
ATOM     25  H   UNL     1       1.783  -9.383   7.581  0.00  0.00    +0.292 HD
ENDBRANCH  22  24
BRANCH  21  26
ATOM     26  O   UNL     1       0.878 -11.546   5.558  0.00  0.00    -0.503 OA
ATOM     27  H   UNL     1       1.726 -11.957   5.775  0.00  0.00    +0.292 HD
ENDBRANCH  21  26
ENDBRANCH  10  18
BRANCH   6  28
ATOM     28  O   UNL     1      -1.869  -4.486   1.116  0.00  0.00    -0.505 OA
ATOM     29  H   UNL     1      -1.887  -4.869   0.228  0.00  0.00    +0.292 HD
ENDBRANCH   6  28
BRANCH  14  30
ATOM     30  C   UNL     1       2.941  -1.742   2.332  0.00  0.00    +0.070 C 
BRANCH  30  31
ATOM     31  C   UNL     1       3.882  -1.806   1.128  0.00  0.00    +0.160 C 
BRANCH  31  32
ATOM     32  O   UNL     1       5.093  -1.111   1.432  0.00  0.00    -0.395 OA
ATOM     33  H   UNL     1       5.738  -1.111   0.712  0.00  0.00    +0.209 HD
ENDBRANCH  31  32
ENDBRANCH  30  31
ENDBRANCH  14  30
TORSDOF 7
