REMARK  Name = ZINC22725111
REMARK  12 active torsions:
REMARK  status: ('A' for Active; 'I' for Inactive)
REMARK    1  A    between atoms: C_1  and  C_2
REMARK    2  A    between atoms: C_6  and  C_8
REMARK    3  A    between atoms: C_11  and  S_14
REMARK    4  A    between atoms: N_12  and  C_13
REMARK    5  A    between atoms: S_14  and  C_15
REMARK    6  A    between atoms: C_15  and  C_16
REMARK    7  A    between atoms: N_18  and  C_19
REMARK    8  A    between atoms: C_20  and  C_32
REMARK    9  A    between atoms: C_21  and  C_31
REMARK   10  A    between atoms: C_22  and  C_30
REMARK   11  A    between atoms: N_23  and  C_24
REMARK   12  A    between atoms: C_24  and  C_25
REMARK                            x       y       z     vdW  Elec       q    Type
REMARK                         _______ _______ _______ _____ _____    ______ ____
ROOT
ATOM      1  C   UNL     1      -0.378   0.644   0.719  0.00  0.00    +0.229 C 
ATOM      2  O   UNL     1      -1.146   1.204   1.472  0.00  0.00    -0.275 OA
ATOM      3  N   UNL     1      -0.852  -0.186  -0.232  0.00  0.00    -0.270 N 
ATOM      4  H   UNL     1      -0.153  -0.723  -0.890  0.00  0.00    +0.156 HD
ENDROOT
BRANCH   3   5
ATOM      5  C   UNL     1      -2.219  -0.364  -0.379  0.00  0.00    +0.124 A 
ATOM      6  C   UNL     1      -3.157   0.640  -0.575  0.00  0.00    +0.095 A 
ATOM      7  C   UNL     1      -4.457  -0.035  -0.672  0.00  0.00    -0.011 A 
ATOM      8  C   UNL     1      -4.221  -1.349  -0.533  0.00  0.00    +0.022 A 
ATOM      9  N   UNL     1      -2.877  -1.552  -0.362  0.00  0.00    -0.324 N 
ATOM     10  C   UNL     1      -5.268  -2.432  -0.567  0.00  0.00    +0.064 C 
ATOM     11  C   UNL     1      -5.797   0.621  -0.886  0.00  0.00    +0.047 C 
BRANCH   6  12
ATOM     12  C   UNL     1      -2.908   2.048  -0.663  0.00  0.00    +0.103 C 
ATOM     13  N   UNL     1      -2.709   3.164  -0.733  0.00  0.00    -0.191 NA
ENDBRANCH   6  12
BRANCH   9  14
ATOM     14  C   UNL     1      -2.242  -2.860  -0.184  0.00  0.00    +0.197 C 
BRANCH  14  15
ATOM     15  C   UNL     1      -2.108  -3.157   1.288  0.00  0.00    +0.124 A 
ATOM     16  C   UNL     1      -3.022  -3.784   2.050  0.00  0.00    +0.046 A 
ATOM     17  C   UNL     1      -2.488  -3.851   3.357  0.00  0.00    +0.041 A 
ATOM     18  C   UNL     1      -1.284  -3.253   3.318  0.00  0.00    +0.195 A 
ATOM     19  O   UNL     1      -1.059  -2.834   2.062  0.00  0.00    -0.466 OA
ENDBRANCH  14  15
ENDBRANCH   9  14
ENDBRANCH   3   5
BRANCH   1  20
ATOM     20  C   UNL     1       1.105   0.877   0.845  0.00  0.00    +0.173 C 
BRANCH  20  21
ATOM     21  S   UNL     1       1.421   2.032   2.202  0.00  0.00    -0.077 S 
BRANCH  21  25
ATOM     22  C   UNL     1       5.272   2.616   2.507  0.00  0.00    +0.165 A 
ATOM     23  N   UNL     1       5.187   1.774   1.503  0.00  0.00    -0.128 NA
ATOM     24  N   UNL     1       3.956   1.478   1.283  0.00  0.00    -0.122 NA
ATOM     25  C   UNL     1       3.179   2.120   2.126  0.00  0.00    +0.192 A 
ATOM     26  N   UNL     1       3.989   2.863   2.937  0.00  0.00    -0.305 N 
ATOM     27  C   UNL     1       3.577   3.740   4.036  0.00  0.00    +0.153 C 
BRANCH  22  33
ATOM     28  C   UNL     1      10.132   3.660   2.067  0.00  0.00    +0.044 C 
ATOM     29  C   UNL     1       8.852   3.694   2.862  0.00  0.00    -0.050 A 
ATOM     30  C   UNL     1       8.838   4.264   4.123  0.00  0.00    +0.003 A 
ATOM     31  C   UNL     1       7.668   4.300   4.859  0.00  0.00    +0.001 A 
ATOM     32  C   UNL     1       6.506   3.766   4.340  0.00  0.00    +0.011 A 
ATOM     33  C   UNL     1       6.513   3.190   3.069  0.00  0.00    +0.020 A 
ATOM     34  C   UNL     1       7.699   3.153   2.333  0.00  0.00    +0.015 A 
ENDBRANCH  22  33
ENDBRANCH  21  25
ENDBRANCH  20  21
ENDBRANCH   1  20
TORSDOF 8
