REMARK  Name = ZINC45639329
REMARK  8 active torsions:
REMARK  status: ('A' for Active; 'I' for Inactive)
REMARK    1  A    between atoms: C_1  and  C_2
REMARK    2  A    between atoms: C_6  and  C_30
REMARK    3  A    between atoms: C_8  and  N_11
REMARK    4  A    between atoms: N_14  and  N_15
REMARK    5  A    between atoms: C_16  and  C_18
REMARK    6  A    between atoms: N_27  and  C_29
REMARK    7  A    between atoms: C_30  and  C_31
REMARK    8  A    between atoms: C_30  and  C_32
REMARK                            x       y       z     vdW  Elec       q    Type
REMARK                         _______ _______ _______ _____ _____    ______ ____
ROOT
ATOM      1  N   UNL     1      -0.612  -2.548   1.244  0.00  0.00    -0.295 N 
ATOM      2  C   UNL     1      -1.268  -2.692   2.412  0.00  0.00    +0.316 C 
ATOM      3  O   UNL     1      -0.719  -2.401   3.457  0.00  0.00    -0.251 OA
ATOM      4  N   UNL     1      -2.532  -3.158   2.421  0.00  0.00    -0.218 N 
ATOM      5  H   UNL     1      -1.049  -2.780   0.410  0.00  0.00    +0.151 HD
ATOM      6  H   UNL     1      -3.005  -3.262   3.262  0.00  0.00    +0.174 HD
ENDROOT
BRANCH   1  12
ATOM      7  C   UNL     1      -0.019   1.526   0.010  0.00  0.00    +0.007 C 
ATOM      8  C   UNL     1       0.002  -0.004   0.002  0.00  0.00    -0.012 C 
ATOM      9  C   UNL     1       0.718  -0.497  -1.257  0.00  0.00    +0.004 C 
ATOM     10  C   UNL     1       0.739  -2.027  -1.265  0.00  0.00    +0.006 C 
ATOM     11  C   UNL     1       1.479  -2.534  -0.026  0.00  0.00    +0.012 C 
ATOM     12  C   UNL     1       0.763  -2.041   1.233  0.00  0.00    +0.078 C 
ATOM     13  C   UNL     1       0.742  -0.511   1.242  0.00  0.00    +0.026 C 
BRANCH  11  14
ATOM     14  C   UNL     1       1.500  -4.064  -0.034  0.00  0.00    -0.012 C 
ATOM     15  C   UNL     1       2.216  -4.557  -1.293  0.00  0.00    +0.007 C 
ATOM     16  C   UNL     1       2.240  -4.571   1.205  0.00  0.00    +0.007 C 
ENDBRANCH  11  14
ENDBRANCH   1  12
BRANCH   4  17
ATOM     17  N   UNL     1      -3.164  -3.494   1.217  0.00  0.00    -0.228 N 
ATOM     18  C   UNL     1      -4.429  -3.960   1.226  0.00  0.00    +0.281 C 
ATOM     19  O   UNL     1      -5.021  -4.090   2.280  0.00  0.00    -0.267 OA
ATOM     20  H   UNL     1      -2.692  -3.390   0.376  0.00  0.00    +0.173 HD
BRANCH  18  21
ATOM     21  C   UNL     1      -5.095  -4.313  -0.043  0.00  0.00    +0.155 A 
ATOM     22  C   UNL     1      -6.478  -4.818  -0.043  0.00  0.00    +0.020 A 
ATOM     23  C   UNL     1      -7.218  -4.987   1.122  0.00  0.00    +0.011 A 
ATOM     24  C   UNL     1      -8.508  -5.466   1.040  0.00  0.00    +0.001 A 
ATOM     25  C   UNL     1      -9.074  -5.779  -0.189  0.00  0.00    +0.001 A 
ATOM     26  C   UNL     1      -8.358  -5.618  -1.356  0.00  0.00    +0.014 A 
ATOM     27  C   UNL     1      -7.054  -5.137  -1.294  0.00  0.00    +0.050 A 
ATOM     28  C   UNL     1      -6.220  -4.936  -2.488  0.00  0.00    +0.275 A 
ATOM     29  O   UNL     1      -6.650  -5.189  -3.598  0.00  0.00    -0.266 OA
ATOM     30  N   UNL     1      -4.967  -4.465  -2.324  0.00  0.00    -0.231 N 
ATOM     31  N   UNL     1      -4.464  -4.176  -1.184  0.00  0.00    -0.163 NA
ATOM     32  C   UNL     1      -4.140  -4.266  -3.517  0.00  0.00    +0.176 C 
ENDBRANCH  18  21
ENDBRANCH   4  17
TORSDOF 4
