REMARK  Name = ZINC09493293
REMARK  9 active torsions:
REMARK  status: ('A' for Active; 'I' for Inactive)
REMARK    1  A    between atoms: C_1  and  C_2
REMARK    2  A    between atoms: C_2  and  C_4
REMARK    3  A    between atoms: C_2  and  N_46
REMARK    4  A    between atoms: N_6  and  C_7
REMARK    5  A    between atoms: C_9  and  N_14
REMARK    6  A    between atoms: C_17  and  N_46
REMARK    7  A    between atoms: C_18  and  C_19
REMARK    8  A    between atoms: C_18  and  N_46
REMARK    9  A    between atoms: N_21  and  C_22
REMARK                            x       y       z     vdW  Elec       q    Type
REMARK                         _______ _______ _______ _____ _____    ______ ____
ROOT
ATOM      1  C   UNL     1      -7.047  -0.509  -0.847  0.00  0.00    -0.004 C 
ATOM      2  C   UNL     1      -6.015  -0.865   0.225  0.00  0.00    +0.017 C 
ENDROOT
BRANCH   2   3
ATOM      3  C   UNL     1      -6.551  -0.488   1.582  0.00  0.00    +0.203 C 
ATOM      4  O   UNL     1      -6.742  -1.346   2.419  0.00  0.00    -0.277 OA
ATOM      5  N   UNL     1      -6.819   0.801   1.867  0.00  0.00    -0.286 N 
ATOM      6  H   UNL     1      -6.728   1.479   1.179  0.00  0.00    +0.155 HD
BRANCH   5   7
ATOM      7  C   UNL     1      -7.228   1.164   3.155  0.00  0.00    +0.054 A 
ATOM      8  C   UNL     1      -7.983   0.283   3.919  0.00  0.00    +0.057 A 
ATOM      9  C   UNL     1      -8.386   0.644   5.190  0.00  0.00    +0.128 A 
ATOM     10  C   UNL     1      -8.043   1.882   5.701  0.00  0.00    +0.034 A 
ATOM     11  C   UNL     1      -7.287   2.760   4.946  0.00  0.00    +0.024 A 
ATOM     12  C   UNL     1      -6.881   2.405   3.673  0.00  0.00    +0.062 A 
ATOM     13 CL   UNL     1      -5.937   3.510   2.723  0.00  0.00    -0.082 Cl
BRANCH   9  14
ATOM     14  N   UNL     1      -9.190  -0.295   6.004  0.00  0.00    +0.056 N 
ATOM     15  O   UNL     1      -9.496  -1.384   5.553  0.00  0.00    -0.126 OA
ATOM     16  O   UNL     1      -9.542   0.020   7.127  0.00  0.00    -0.126 OA
ENDBRANCH   9  14
ENDBRANCH   5   7
ENDBRANCH   2   3
BRANCH   2  18
ATOM     17  C   UNL     1      -4.862  -2.652  -0.932  0.00  0.00    -0.094 C 
ATOM     18  N   UNL     1      -5.735  -2.317   0.212  0.00  0.00    +0.391 N 
ATOM     19  H   UNL     1      -5.255  -2.571   1.083  0.00  0.00    -0.080 HD
BRANCH  18  20
ATOM     20  C   UNL     1      -7.000  -3.075   0.122  0.00  0.00    +0.020 C 
BRANCH  20  21
ATOM     21  C   UNL     1      -6.707  -4.538   0.332  0.00  0.00    +0.201 C 
ATOM     22  O   UNL     1      -5.566  -4.907   0.518  0.00  0.00    -0.278 OA
ATOM     23  N   UNL     1      -7.711  -5.436   0.313  0.00  0.00    -0.287 N 
ATOM     24  H   UNL     1      -8.610  -5.154   0.086  0.00  0.00    +0.155 HD
BRANCH  23  25
ATOM     25  C   UNL     1      -7.456  -6.778   0.622  0.00  0.00    +0.035 A 
ATOM     26  C   UNL     1      -8.191  -7.784   0.009  0.00  0.00    +0.025 A 
ATOM     27  C   UNL     1      -7.933  -9.107   0.310  0.00  0.00    +0.023 A 
ATOM     28  C   UNL     1      -6.952  -9.431   1.231  0.00  0.00    +0.059 A 
ATOM     29  C   UNL     1      -6.222  -8.429   1.848  0.00  0.00    +0.061 A 
ATOM     30  C   UNL     1      -6.472  -7.104   1.545  0.00  0.00    +0.044 A 
ATOM     31 CL   UNL     1      -4.992  -8.838   3.003  0.00  0.00    -0.082 Cl
ATOM     32 CL   UNL     1      -6.637 -11.094   1.613  0.00  0.00    -0.082 Cl
ENDBRANCH  23  25
ENDBRANCH  20  21
ENDBRANCH  18  20
ENDBRANCH   2  18
TORSDOF 7
