REMARK  Name = ZINC21838717
REMARK  8 active torsions:
REMARK  status: ('A' for Active; 'I' for Inactive)
REMARK    1  A    between atoms: C_4  and  C_7
REMARK    2  A    between atoms: C_7  and  C_8
REMARK    3  A    between atoms: C_8  and  C_10
REMARK    4  A    between atoms: C_8  and  N_28
REMARK    5  A    between atoms: C_10  and  O_12
REMARK    6  A    between atoms: O_12  and  C_13
REMARK    7  A    between atoms: C_13  and  C_14
REMARK    8  A    between atoms: C_29  and  C_31
REMARK                            x       y       z     vdW  Elec       q    Type
REMARK                         _______ _______ _______ _____ _____    ______ ____
ROOT
ATOM      1  C   UNL     1      -3.073  -1.671  -0.855  0.00  0.00    +0.328 C 
ATOM      2  O   UNL     1      -3.542  -2.038   0.197  0.00  0.00    -0.249 OA
ENDROOT
BRANCH   1   3
ATOM      3  C   UNL     1      -3.796  -1.962  -2.144  0.00  0.00    +0.186 C 
BRANCH   3   4
ATOM      4  N   UNL     1      -5.032  -2.695  -1.857  0.00  0.00    -0.298 N 
ATOM      5  C   UNL     1      -6.067  -2.634  -2.718  0.00  0.00    +0.245 C 
ATOM      6  O   UNL     1      -5.976  -1.972  -3.733  0.00  0.00    -0.270 OA
ATOM      7  H   UNL     1      -5.115  -3.294  -0.939  0.00  0.00    +0.150 HD
BRANCH   5   8
ATOM      8  C   UNL     1      -7.314  -3.374  -2.428  0.00  0.00    +0.037 A 
ATOM      9  C   UNL     1      -7.420  -4.140  -1.266  0.00  0.00    +0.013 A 
ATOM     10  C   UNL     1      -8.588  -4.823  -0.999  0.00  0.00    +0.001 A 
ATOM     11  C   UNL     1      -9.649  -4.759  -1.885  0.00  0.00    +0.000 A 
ATOM     12  C   UNL     1      -9.548  -4.006  -3.041  0.00  0.00    +0.001 A 
ATOM     13  C   UNL     1      -8.388  -3.313  -3.317  0.00  0.00    +0.013 A 
ENDBRANCH   5   8
ENDBRANCH   3   4
BRANCH   3  14
ATOM     14  C   UNL     1      -2.901  -2.808  -3.052  0.00  0.00    +0.069 C 
BRANCH  14  18
ATOM     15  C   UNL     1      -4.806  -3.340  -6.838  0.00  0.00    +0.000 A 
ATOM     16  C   UNL     1      -3.969  -2.259  -6.631  0.00  0.00    +0.000 A 
ATOM     17  C   UNL     1      -3.353  -2.087  -5.406  0.00  0.00    +0.004 A 
ATOM     18  C   UNL     1      -3.573  -2.995  -4.388  0.00  0.00    -0.045 A 
ATOM     19  C   UNL     1      -4.406  -4.079  -4.596  0.00  0.00    +0.004 A 
ATOM     20  C   UNL     1      -5.026  -4.248  -5.820  0.00  0.00    +0.000 A 
ENDBRANCH  14  18
ENDBRANCH   3  14
ENDBRANCH   1   3
BRANCH   1  21
ATOM     21  O   UNL     1      -1.908  -1.004  -0.874  0.00  0.00    -0.455 OA
BRANCH  21  22
ATOM     22  C   UNL     1      -1.267  -0.759   0.406  0.00  0.00    +0.308 C 
BRANCH  22  23
ATOM     23  C   UNL     1       0.018  -0.004   0.187  0.00  0.00    +0.170 A 
ATOM     24  N   UNL     1       0.000   1.317   0.188  0.00  0.00    -0.214 NA
ATOM     25  C   UNL     1       1.094   2.037   0.003  0.00  0.00    +0.128 A 
ATOM     26  C   UNL     1       2.334   1.371  -0.205  0.00  0.00    +0.051 A 
ATOM     27  C   UNL     1       3.659   1.951  -0.429  0.00  0.00    -0.025 A 
ATOM     28  C   UNL     1       4.683   1.089  -0.600  0.00  0.00    -0.004 A 
ATOM     29  S   UNL     1       3.957  -0.523  -0.475  0.00  0.00    -0.073 S 
ATOM     30  C   UNL     1       2.274  -0.037  -0.193  0.00  0.00    +0.114 A 
ATOM     31  N   UNL     1       1.137  -0.677   0.000  0.00  0.00    -0.221 NA
ATOM     32  C   UNL     1       6.122   1.428  -0.842  0.00  0.00    +0.043 C 
ATOM     33  C   UNL     1       6.213   2.908  -1.239  0.00  0.00    +0.005 C 
ATOM     34  C   UNL     1       5.382   3.733  -0.252  0.00  0.00    +0.005 C 
ATOM     35  C   UNL     1       3.893   3.458  -0.471  0.00  0.00    +0.037 C 
ATOM     36  N   UNL     1       1.034   3.419   0.010  0.00  0.00    -0.343 N 
ATOM     37  H   UNL     1       1.948   4.010  -0.145  0.00  0.00    +0.144 HD
ATOM     38  H   UNL     1       0.071   3.926   0.172  0.00  0.00    +0.144 HD
ENDBRANCH  22  23
ENDBRANCH  21  22
ENDBRANCH   1  21
TORSDOF 8
