REMARK  Name = ZINC35702507
REMARK  12 active torsions:
REMARK  status: ('A' for Active; 'I' for Inactive)
REMARK    1  A    between atoms: C_1  and  C_2
REMARK    2  A    between atoms: N_10  and  C_11
REMARK    3  A    between atoms: C_11  and  C_12
REMARK    4  A    between atoms: C_20  and  S_23
REMARK    5  A    between atoms: S_23  and  C_24
REMARK    6  A    between atoms: C_24  and  C_26
REMARK    7  A    between atoms: C_24  and  C_27
REMARK    8  A    between atoms: N_29  and  C_30
REMARK    9  A    between atoms: C_30  and  C_31
REMARK   10  A    between atoms: C_31  and  C_32
REMARK   11  A    between atoms: C_32  and  N_33
REMARK   12  A    between atoms: C_38  and  C_40
REMARK                            x       y       z     vdW  Elec       q    Type
REMARK                         _______ _______ _______ _____ _____    ______ ____
ROOT
ATOM      1  C   UNL     1      -0.018   1.503   0.010  0.00  0.00    +0.044 C 
ATOM      2  C   UNL     1       0.002  -0.004   0.002  0.00  0.00    -0.050 A 
ATOM      3  C   UNL     1       0.006  -0.688  -1.204  0.00  0.00    +0.005 A 
ATOM      4  C   UNL     1       0.024  -2.066  -1.228  0.00  0.00    +0.027 A 
ATOM      5  C   UNL     1       0.039  -2.784  -0.036  0.00  0.00    +0.053 A 
ATOM      6  C   UNL     1       0.035  -2.090   1.184  0.00  0.00    +0.029 A 
ATOM      7  C   UNL     1       0.023  -0.697   1.193  0.00  0.00    +0.015 A 
ATOM      8  C   UNL     1       0.054  -3.113   2.244  0.00  0.00    +0.138 A 
ATOM      9  C   UNL     1       0.067  -4.362   1.589  0.00  0.00    +0.165 A 
ATOM     10  N   UNL     1       0.058  -4.143   0.233  0.00  0.00    -0.319 N 
ATOM     11  N   UNL     1       0.085  -5.464   2.332  0.00  0.00    -0.201 NA
ATOM     12  C   UNL     1       0.090  -5.355   3.654  0.00  0.00    +0.212 A 
ATOM     13  N   UNL     1       0.077  -4.167   4.248  0.00  0.00    -0.122 NA
ATOM     14  N   UNL     1       0.059  -3.072   3.568  0.00  0.00    -0.143 NA
ENDROOT
BRANCH  10  15
ATOM     15  C   UNL     1       0.066  -5.197  -0.784  0.00  0.00    +0.162 C 
BRANCH  15  16
ATOM     16  C   UNL     1       1.490  -5.540  -1.140  0.00  0.00    +0.007 A 
ATOM     17  C   UNL     1       2.096  -4.936  -2.225  0.00  0.00    +0.008 A 
ATOM     18  C   UNL     1       3.402  -5.250  -2.552  0.00  0.00    +0.000 A 
ATOM     19  C   UNL     1       4.104  -6.169  -1.793  0.00  0.00    +0.003 A 
ATOM     20  C   UNL     1       3.500  -6.774  -0.707  0.00  0.00    +0.039 A 
ATOM     21  C   UNL     1       2.193  -6.455  -0.376  0.00  0.00    +0.128 A 
ATOM     22  F   UNL     1       1.603  -7.042   0.689  0.00  0.00    -0.205 F 
ENDBRANCH  15  16
ENDBRANCH  10  15
BRANCH  12  23
ATOM     23  S   UNL     1       0.113  -6.815   4.641  0.00  0.00    -0.072 S 
BRANCH  23  24
ATOM     24  C   UNL     1       0.114  -6.192   6.345  0.00  0.00    +0.137 C 
ATOM     25  C   UNL     1       1.413  -5.428   6.608  0.00  0.00    +0.029 C 
BRANCH  24  26
ATOM     26  C   UNL     1       0.010  -7.351   7.303  0.00  0.00    +0.226 C 
ATOM     27  O   UNL     1       0.387  -8.453   6.965  0.00  0.00    -0.275 OA
ATOM     28  N   UNL     1      -0.503  -7.162   8.535  0.00  0.00    -0.314 N 
ATOM     29  H   UNL     1      -0.804  -6.281   8.805  0.00  0.00    +0.149 HD
BRANCH  28  30
ATOM     30  C   UNL     1      -0.604  -8.288   9.466  0.00  0.00    +0.102 C 
BRANCH  30  31
ATOM     31  C   UNL     1      -1.215  -7.807  10.784  0.00  0.00    +0.000 C 
BRANCH  31  32
ATOM     32  C   UNL     1      -1.321  -8.983  11.757  0.00  0.00    -0.077 C 
BRANCH  32  33
ATOM     33  N   UNL     1      -1.908  -8.521  13.022  0.00  0.00    +0.381 N 
ATOM     34  C   UNL     1      -3.286  -8.076  12.786  0.00  0.00    -0.078 C 
ATOM     35  C   UNL     1      -3.875  -7.518  14.084  0.00  0.00    -0.019 C 
ATOM     36  C   UNL     1      -3.866  -8.613  15.154  0.00  0.00    -0.003 C 
ATOM     37  C   UNL     1      -2.434  -9.123  15.338  0.00  0.00    -0.016 C 
ATOM     38  C   UNL     1      -1.899  -9.621  13.994  0.00  0.00    -0.072 C 
ATOM     39  C   UNL     1      -0.467 -10.131  14.173  0.00  0.00    -0.013 C 
ATOM     40  H   UNL     1      -1.364  -7.751  13.382  0.00  0.00    -0.081 HD
ENDBRANCH  32  33
ENDBRANCH  31  32
ENDBRANCH  30  31
ENDBRANCH  28  30
ENDBRANCH  24  26
ENDBRANCH  23  24
ENDBRANCH  12  23
TORSDOF 9
