REMARK  Name = ZINC00959810
REMARK  6 active torsions:
REMARK  status: ('A' for Active; 'I' for Inactive)
REMARK    1  A    between atoms: C_1  and  C_2
REMARK    2  A    between atoms: C_2  and  C_38
REMARK    3  A    between atoms: C_6  and  C_26
REMARK    4  A    between atoms: C_13  and  S_17
REMARK    5  A    between atoms: S_17  and  C_18
REMARK    6  A    between atoms: C_18  and  C_19
REMARK                            x       y       z     vdW  Elec       q    Type
REMARK                         _______ _______ _______ _____ _____    ______ ____
ROOT
ATOM      1  C   UNL     1      -1.252   2.773  -3.517  0.00  0.00    +0.011 C 
ATOM      2  C   UNL     1      -0.961   4.268  -3.668  0.00  0.00    -0.023 C 
ATOM      3  C   UNL     1      -1.506   5.024  -2.454  0.00  0.00    +0.058 C 
ATOM      4  C   UNL     1      -0.820   4.534  -1.202  0.00  0.00    +0.017 C 
ATOM      5  C   UNL     1       0.451   4.083  -1.238  0.00  0.00    +0.024 C 
ATOM      6  C   UNL     1       1.143   3.595   0.010  0.00  0.00    +0.093 C 
ATOM      7  C   UNL     1       0.438   4.067   1.246  0.00  0.00    +0.069 A 
ATOM      8  C   UNL     1       1.090   4.047   2.485  0.00  0.00    +0.258 A 
ATOM      9  O   UNL     1       2.240   3.649   2.575  0.00  0.00    -0.267 OA
ATOM     10  N   UNL     1       0.423   4.477   3.577  0.00  0.00    -0.302 N 
ATOM     11  H   UNL     1       0.859   4.471   4.443  0.00  0.00    +0.171 HD
ATOM     12  C   UNL     1      -0.861   4.918   3.464  0.00  0.00    +0.171 A 
ATOM     13  N   UNL     1      -1.479   4.939   2.301  0.00  0.00    -0.208 NA
ATOM     14  C   UNL     1      -0.866   4.528   1.186  0.00  0.00    +0.135 A 
ATOM     15  N   UNL     1      -1.523   4.563  -0.028  0.00  0.00    -0.302 N 
ATOM     16  C   UNL     1       1.174   4.051  -2.443  0.00  0.00    +0.162 C 
ATOM     17  O   UNL     1       2.324   3.657  -2.438  0.00  0.00    -0.292 OA
ATOM     18  C   UNL     1       0.553   4.495  -3.739  0.00  0.00    +0.086 C 
ATOM     19  C   UNL     1      -1.622   4.795  -4.943  0.00  0.00    +0.011 C 
ATOM     20  H   UNL     1      -2.492   4.609  -0.049  0.00  0.00    +0.153 HD
ENDROOT
BRANCH   6  21
ATOM     21  C   UNL     1       1.169   2.089   0.002  0.00  0.00    -0.032 A 
ATOM     22  C   UNL     1      -0.017   1.378   0.010  0.00  0.00    +0.008 A 
ATOM     23  C   UNL     1       0.002  -0.004   0.002  0.00  0.00    +0.050 A 
ATOM     24  C   UNL     1       1.211  -0.681  -0.013  0.00  0.00    +0.166 A 
ATOM     25  C   UNL     1       2.405   0.035  -0.021  0.00  0.00    +0.167 A 
ATOM     26  C   UNL     1       2.379   1.420  -0.013  0.00  0.00    +0.054 A 
ATOM     27  O   UNL     1       3.444  -0.851  -0.036  0.00  0.00    -0.453 OA
ATOM     28  C   UNL     1       2.881  -2.111   0.375  0.00  0.00    +0.466 C 
ATOM     29  O   UNL     1       1.501  -2.015  -0.024  0.00  0.00    -0.453 OA
ENDBRANCH   6  21
BRANCH  12  30
ATOM     30  S   UNL     1      -1.712   5.471   4.904  0.00  0.00    -0.083 S 
BRANCH  30  31
ATOM     31  C   UNL     1      -3.307   5.917   4.174  0.00  0.00    +0.114 C 
BRANCH  31  32
ATOM     32  C   UNL     1      -4.226   6.432   5.252  0.00  0.00    -0.019 A 
ATOM     33  C   UNL     1      -5.051   5.557   5.933  0.00  0.00    +0.006 A 
ATOM     34  C   UNL     1      -5.891   6.029   6.925  0.00  0.00    +0.000 A 
ATOM     35  C   UNL     1      -5.914   7.377   7.228  0.00  0.00    +0.001 A 
ATOM     36  C   UNL     1      -5.094   8.254   6.544  0.00  0.00    +0.020 A 
ATOM     37  C   UNL     1      -4.249   7.782   5.555  0.00  0.00    +0.045 A 
ATOM     38 CL   UNL     1      -3.219   8.883   4.694  0.00  0.00    -0.083 Cl
ENDBRANCH  31  32
ENDBRANCH  30  31
ENDBRANCH  12  30
TORSDOF 4
