REMARK  Name = ZINC39693222
REMARK  14 active torsions:
REMARK  status: ('A' for Active; 'I' for Inactive)
REMARK    1  A    between atoms: C_1  and  C_2
REMARK    2  A    between atoms: C_4  and  S_14
REMARK    3  A    between atoms: C_8  and  C_9
REMARK    4  A    between atoms: C_9  and  C_10
REMARK    5  A    between atoms: C_10  and  C_11
REMARK    6  A    between atoms: C_11  and  O_13
REMARK    7  A    between atoms: S_14  and  C_15
REMARK    8  A    between atoms: C_15  and  C_16
REMARK    9  A    between atoms: N_18  and  C_19
REMARK   10  A    between atoms: C_21  and  C_30
REMARK   11  A    between atoms: C_30  and  O_32
REMARK   12  A    between atoms: O_32  and  C_33
REMARK   13  A    between atoms: C_33  and  C_34
REMARK   14  A    between atoms: C_33  and  C_35
REMARK                            x       y       z     vdW  Elec       q    Type
REMARK                         _______ _______ _______ _____ _____    ______ ____
ROOT
ATOM      1  C   UNL     1       0.003  -2.017  -5.356  0.00  0.00    +0.224 C 
ATOM      2  O   UNL     1       0.018  -3.218  -5.520  0.00  0.00    -0.275 OA
ATOM      3  N   UNL     1      -0.015  -1.192  -6.422  0.00  0.00    -0.301 N 
ATOM      4  H   UNL     1      -0.027  -0.230  -6.291  0.00  0.00    +0.150 HD
ENDROOT
BRANCH   3   5
ATOM      5  C   UNL     1      -0.014  -1.746  -7.778  0.00  0.00    +0.153 C 
ATOM      6  C   UNL     1      -1.124  -1.113  -8.651  0.00  0.00    +0.155 C 
ATOM      7  C   UNL     1      -2.396  -1.921  -8.606  0.00  0.00    -0.044 C 
ATOM      8  C   UNL     1      -2.309  -3.181  -8.196  0.00  0.00    -0.013 C 
ATOM      9  S   UNL     1      -0.604  -3.491  -7.795  0.00  0.00    -0.106 S 
ATOM     10  C   UNL     1      -3.432  -4.174  -8.084  0.00  0.00    +0.042 C 
ATOM     11  C   UNL     1      -4.766  -3.421  -8.143  0.00  0.00    +0.005 C 
ATOM     12  C   UNL     1      -4.722  -2.445  -9.323  0.00  0.00    +0.005 C 
ATOM     13  C   UNL     1      -3.737  -1.317  -9.015  0.00  0.00    +0.032 C 
BRANCH   6  14
ATOM     14  C   UNL     1      -1.410   0.279  -8.150  0.00  0.00    +0.317 C 
ATOM     15  O   UNL     1      -2.510   0.558  -7.737  0.00  0.00    -0.250 OA
BRANCH  14  16
ATOM     16  O   UNL     1      -0.442   1.209  -8.163  0.00  0.00    -0.461 OA
BRANCH  16  17
ATOM     17  C   UNL     1      -0.784   2.508  -7.673  0.00  0.00    +0.170 C 
ATOM     18  C   UNL     1      -0.507   2.575  -6.170  0.00  0.00    +0.052 C 
ATOM     19  C   UNL     1       0.058   3.562  -8.394  0.00  0.00    +0.052 C 
ENDBRANCH  16  17
ENDBRANCH  14  16
ENDBRANCH   6  14
ENDBRANCH   3   5
BRANCH   1  20
ATOM     20  C   UNL     1       0.002  -1.446  -3.961  0.00  0.00    +0.173 C 
BRANCH  20  21
ATOM     21  S   UNL     1       0.027  -2.800  -2.754  0.00  0.00    -0.078 S 
BRANCH  21  25
ATOM     22  C   UNL     1      -0.018   1.503   0.010  0.00  0.00    +0.066 C 
ATOM     23  C   UNL     1       0.002  -0.004   0.002  0.00  0.00    +0.049 A 
ATOM     24  N   UNL     1       0.006  -0.662  -1.155  0.00  0.00    -0.228 NA
ATOM     25  C   UNL     1       0.024  -1.980  -1.194  0.00  0.00    +0.170 A 
ATOM     26  N   UNL     1       0.040  -2.719  -0.050  0.00  0.00    -0.302 N 
ATOM     27  C   UNL     1       0.037  -2.097   1.149  0.00  0.00    +0.256 A 
ATOM     28  O   UNL     1       0.051  -2.743   2.184  0.00  0.00    -0.267 OA
ATOM     29  C   UNL     1       0.023  -0.692   1.181  0.00  0.00    +0.038 A 
ATOM     30  H   UNL     1       0.053  -3.687  -0.096  0.00  0.00    +0.171 HD
BRANCH  29  31
ATOM     31  C   UNL     1       0.025   0.044   2.497  0.00  0.00    +0.053 C 
BRANCH  31  32
ATOM     32  C   UNL     1      -1.409   0.164   3.017  0.00  0.00    +0.125 C 
BRANCH  32  33
ATOM     33  C   UNL     1      -1.406   0.899   4.332  0.00  0.00    +0.305 C 
ATOM     34  O   UNL     1      -0.365   1.288   4.805  0.00  0.00    -0.251 OA
BRANCH  33  35
ATOM     35  O   UNL     1      -2.562   1.122   4.978  0.00  0.00    -0.481 OA
ATOM     36  H   UNL     1      -2.459   1.601   5.812  0.00  0.00    +0.295 HD
ENDBRANCH  33  35
ENDBRANCH  32  33
ENDBRANCH  31  32
ENDBRANCH  29  31
ENDBRANCH  21  25
ENDBRANCH  20  21
ENDBRANCH   1  20
TORSDOF 11
