REMARK  Name = ZINC34872020
REMARK  7 active torsions:
REMARK  status: ('A' for Active; 'I' for Inactive)
REMARK    1  A    between atoms: C_1  and  C_2
REMARK    2  A    between atoms: C_2  and  C_3
REMARK    3  A    between atoms: C_2  and  C_4
REMARK    4  A    between atoms: C_2  and  C_5
REMARK    5  A    between atoms: C_11  and  N_13
REMARK    6  A    between atoms: C_14  and  C_16
REMARK    7  A    between atoms: C_16  and  C_17
REMARK                            x       y       z     vdW  Elec       q    Type
REMARK                         _______ _______ _______ _____ _____    ______ ____
ROOT
ATOM      1  N   UNL     1       2.513  -1.417  -0.238  0.00  0.00    -0.312 N 
ATOM      2  C   UNL     1       3.746  -1.020   0.135  0.00  0.00    +0.217 C 
ATOM      3  O   UNL     1       4.329  -0.172  -0.506  0.00  0.00    -0.276 OA
ATOM      4  H   UNL     1       2.046  -2.096   0.275  0.00  0.00    +0.149 HD
ENDROOT
BRANCH   1  10
ATOM      5  C   UNL     1       0.362  -0.799  -1.222  0.00  0.00    +0.015 C 
ATOM      6  C   UNL     1      -0.301  -0.181  -2.455  0.00  0.00    +0.006 C 
ATOM      7  C   UNL     1       0.039  -1.017  -3.690  0.00  0.00    +0.000 C 
ATOM      8  C   UNL     1       1.556  -1.044  -3.886  0.00  0.00    +0.002 C 
ATOM      9  C   UNL     1       2.219  -1.662  -2.654  0.00  0.00    +0.022 C 
ATOM     10  C   UNL     1       1.879  -0.826  -1.419  0.00  0.00    +0.077 C 
BRANCH   5  12
ATOM     11  C   UNL     1       0.676   1.416  -0.109  0.00  0.00    +0.011 C 
ATOM     12  C   UNL     1       0.022   0.038   0.013  0.00  0.00    -0.033 C 
ATOM     13  C   UNL     1       0.545  -0.667   1.266  0.00  0.00    +0.011 C 
ATOM     14  C   UNL     1      -1.496   0.201   0.116  0.00  0.00    +0.011 C 
ENDBRANCH   5  12
ENDBRANCH   1  10
BRANCH   2  15
ATOM     15  C   UNL     1       4.398  -1.628   1.350  0.00  0.00    +0.150 C 
BRANCH  15  16
ATOM     16  C   UNL     1       5.782  -1.006   1.551  0.00  0.00    +0.268 C 
ATOM     17  C   UNL     1       6.484  -1.702   2.689  0.00  0.00    +0.259 C 
ATOM     18  O   UNL     1       7.218  -2.642   2.468  0.00  0.00    -0.271 OA
ATOM     19  N   UNL     1       6.293  -1.275   3.955  0.00  0.00    -0.280 N 
ATOM     20  C   UNL     1       5.543  -0.112   4.178  0.00  0.00    +0.076 A 
ATOM     21  C   UNL     1       5.136   0.229   5.458  0.00  0.00    +0.027 A 
ATOM     22  C   UNL     1       4.386   1.373   5.660  0.00  0.00    +0.002 A 
ATOM     23  C   UNL     1       4.041   2.176   4.589  0.00  0.00    +0.004 A 
ATOM     24  C   UNL     1       4.449   1.844   3.310  0.00  0.00    +0.047 A 
ATOM     25  C   UNL     1       5.205   0.704   3.101  0.00  0.00    +0.143 A 
ATOM     26  O   UNL     1       5.639   0.384   1.853  0.00  0.00    -0.477 OA
ATOM     27  H   UNL     1       6.669  -1.768   4.701  0.00  0.00    +0.155 HD
ENDBRANCH  15  16
ENDBRANCH   2  15
TORSDOF 4
