REMARK  Name = ZINC21229474
REMARK  11 active torsions:
REMARK  status: ('A' for Active; 'I' for Inactive)
REMARK    1  A    between atoms: C_1  and  C_2
REMARK    2  A    between atoms: N_13  and  C_32
REMARK    3  A    between atoms: C_14  and  S_16
REMARK    4  A    between atoms: S_16  and  C_17
REMARK    5  A    between atoms: C_17  and  C_19
REMARK    6  A    between atoms: C_17  and  C_20
REMARK    7  A    between atoms: N_22  and  C_23
REMARK    8  A    between atoms: C_26  and  C_29
REMARK    9  A    between atoms: C_32  and  C_33
REMARK   10  A    between atoms: C_33  and  C_34
REMARK   11  A    between atoms: C_33  and  C_35
REMARK                            x       y       z     vdW  Elec       q    Type
REMARK                         _______ _______ _______ _____ _____    ______ ____
ROOT
ATOM      1  C   UNL     1      -6.568  -1.072   6.071  0.00  0.00    +0.008 C 
ATOM      2  C   UNL     1      -5.742  -0.316   5.029  0.00  0.00    -0.009 C 
ATOM      3  C   UNL     1      -4.842  -1.299   4.274  0.00  0.00    +0.008 C 
ATOM      4  C   UNL     1      -4.204  -0.601   3.072  0.00  0.00    +0.037 C 
ATOM      5  C   UNL     1      -3.524   0.679   3.550  0.00  0.00    -0.023 A 
ATOM      6  C   UNL     1      -3.849   1.230   4.738  0.00  0.00    -0.004 A 
ATOM      7  S   UNL     1      -2.826   2.671   4.872  0.00  0.00    -0.073 S 
ATOM      8  C   UNL     1      -1.964   2.531   3.327  0.00  0.00    +0.117 A 
ATOM      9  C   UNL     1      -2.502   1.364   2.758  0.00  0.00    +0.076 A 
ATOM     10  C   UNL     1      -1.979   0.997   1.477  0.00  0.00    +0.263 A 
ATOM     11  O   UNL     1      -2.386  -0.000   0.906  0.00  0.00    -0.267 OA
ATOM     12  N   UNL     1      -1.032   1.768   0.911  0.00  0.00    -0.287 N 
ATOM     13  C   UNL     1      -0.561   2.885   1.538  0.00  0.00    +0.173 A 
ATOM     14  N   UNL     1      -1.028   3.248   2.716  0.00  0.00    -0.216 NA
ATOM     15  C   UNL     1      -4.856   0.726   5.726  0.00  0.00    +0.046 C 
ENDROOT
BRANCH  13  16
ATOM     16  S   UNL     1       0.685   3.858   0.760  0.00  0.00    -0.075 S 
BRANCH  16  17
ATOM     17  C   UNL     1       0.900   5.151   2.009  0.00  0.00    +0.137 C 
ATOM     18  C   UNL     1       1.460   4.532   3.291  0.00  0.00    +0.029 C 
BRANCH  17  19
ATOM     19  C   UNL     1       1.859   6.193   1.493  0.00  0.00    +0.230 C 
ATOM     20  O   UNL     1       2.617   5.923   0.586  0.00  0.00    -0.274 OA
ATOM     21  N   UNL     1       1.874   7.424   2.040  0.00  0.00    -0.285 N 
ATOM     22  H   UNL     1       1.129   7.697   2.803  0.00  0.00    +0.155 HD
BRANCH  21  23
ATOM     23  C   UNL     1       2.833   8.354   1.640  0.00  0.00    +0.033 A 
ATOM     24  C   UNL     1       4.108   7.925   1.284  0.00  0.00    +0.024 A 
ATOM     25  C   UNL     1       5.056   8.840   0.884  0.00  0.00    +0.015 A 
ATOM     26  C   UNL     1       4.740  10.200   0.845  0.00  0.00    +0.037 A 
ATOM     27  C   UNL     1       3.460  10.628   1.208  0.00  0.00    +0.015 A 
ATOM     28  C   UNL     1       2.515   9.708   1.603  0.00  0.00    +0.024 A 
BRANCH  26  29
ATOM     29  C   UNL     1       5.756  11.184   0.422  0.00  0.00    +0.242 C 
ATOM     30  O   UNL     1       5.479  12.367   0.388  0.00  0.00    -0.270 OA
ATOM     31  N   UNL     1       6.990  10.770   0.072  0.00  0.00    -0.325 N 
ATOM     32  H   UNL     1       7.747  11.503  -0.244  0.00  0.00    +0.145 HD
ATOM     33  H   UNL     1       7.240   9.700   0.102  0.00  0.00    +0.145 HD
ENDBRANCH  26  29
ENDBRANCH  21  23
ENDBRANCH  17  19
ENDBRANCH  16  17
ENDBRANCH  13  16
BRANCH  12  34
ATOM     34  C   UNL     1      -0.493   1.399  -0.400  0.00  0.00    +0.130 C 
BRANCH  34  35
ATOM     35  C   UNL     1      -1.329   2.056  -1.499  0.00  0.00    +0.003 C 
ATOM     36  C   UNL     1      -1.180   3.576  -1.414  0.00  0.00    +0.009 C 
ATOM     37  C   UNL     1      -0.845   1.571  -2.867  0.00  0.00    +0.009 C 
ENDBRANCH  34  35
ENDBRANCH  12  34
TORSDOF 7
