REMARK  Name = ZINC08820601
REMARK  10 active torsions:
REMARK  status: ('A' for Active; 'I' for Inactive)
REMARK    1  A    between atoms: C_1  and  C_2
REMARK    2  A    between atoms: C_2  and  C_10
REMARK    3  A    between atoms: C_3  and  C_4
REMARK    4  A    between atoms: N_14  and  C_18
REMARK    5  A    between atoms: C_18  and  C_19
REMARK    6  A    between atoms: C_19  and  C_20
REMARK    7  A    between atoms: C_20  and  C_21
REMARK    8  A    between atoms: N_23  and  N_24
REMARK    9  A    between atoms: C_25  and  C_27
REMARK   10  A    between atoms: C_31  and  N_33
REMARK                            x       y       z     vdW  Elec       q    Type
REMARK                         _______ _______ _______ _____ _____    ______ ____
ROOT
ATOM      1  C   UNL     1      -3.279  -4.813   0.291  0.00  0.00    +0.029 C 
ENDROOT
BRANCH   1   2
ATOM      2  C   UNL     1      -4.729  -5.295   0.220  0.00  0.00    +0.115 C 
BRANCH   2   7
ATOM      3  C   UNL     1      -4.879  -9.880   2.120  0.00  0.00    +0.023 C 
ATOM      4  C   UNL     1      -4.828  -8.922   1.150  0.00  0.00    +0.077 C 
ATOM      5  C   UNL     1      -4.806  -7.453   1.280  0.00  0.00    +0.258 C 
ATOM      6  O   UNL     1      -4.832  -6.908   2.368  0.00  0.00    -0.269 OA
ATOM      7  N   UNL     1      -4.754  -6.759   0.156  0.00  0.00    -0.255 N 
ATOM      8  C   UNL     1      -4.730  -7.367  -1.047  0.00  0.00    +0.121 C 
ATOM      9  S   UNL     1      -4.671  -6.650  -2.600  0.00  0.00    -0.027 S 
ATOM     10  S   UNL     1      -4.771  -9.102  -0.627  0.00  0.00    -0.061 S 
BRANCH   3  12
ATOM     11  C   UNL     1      -4.402 -11.627   0.359  0.00  0.00    +0.044 C 
ATOM     12  C   UNL     1      -4.741 -11.240   1.776  0.00  0.00    -0.049 C 
ATOM     13  C   UNL     1      -4.912 -12.198   2.717  0.00  0.00    +0.011 C 
BRANCH  13  14
ATOM     14  C   UNL     1      -4.885 -13.617   2.335  0.00  0.00    -0.025 A 
ATOM     15  C   UNL     1      -5.431 -14.027   1.113  0.00  0.00    +0.008 A 
ATOM     16  C   UNL     1      -5.397 -15.359   0.760  0.00  0.00    +0.001 A 
ATOM     17  C   UNL     1      -4.835 -16.292   1.615  0.00  0.00    +0.000 A 
ATOM     18  C   UNL     1      -4.298 -15.895   2.828  0.00  0.00    +0.001 A 
ATOM     19  C   UNL     1      -4.319 -14.566   3.193  0.00  0.00    +0.008 A 
ENDBRANCH  13  14
ENDBRANCH   3  12
ENDBRANCH   2   7
ENDBRANCH   1   2
BRANCH   1  20
ATOM     20  C   UNL     1      -3.253  -3.284   0.357  0.00  0.00    +0.099 C 
BRANCH  20  21
ATOM     21  C   UNL     1      -1.825  -2.809   0.427  0.00  0.00    +0.229 C 
ATOM     22  O   UNL     1      -0.917  -3.613   0.424  0.00  0.00    -0.274 OA
ATOM     23  N   UNL     1      -1.556  -1.490   0.493  0.00  0.00    -0.234 N 
ATOM     24  H   UNL     1      -2.282  -0.846   0.495  0.00  0.00    +0.173 HD
BRANCH  23  25
ATOM     25  N   UNL     1      -0.228  -1.048   0.558  0.00  0.00    -0.230 N 
ATOM     26  C   UNL     1       0.041   0.271   0.623  0.00  0.00    +0.260 C 
ATOM     27  O   UNL     1      -0.869   1.077   0.626  0.00  0.00    -0.269 OA
ATOM     28  H   UNL     1       0.498  -1.691   0.556  0.00  0.00    +0.173 HD
BRANCH  26  29
ATOM     29  C   UNL     1       1.442   0.738   0.692  0.00  0.00    +0.040 A 
ATOM     30  C   UNL     1       2.489  -0.186   0.689  0.00  0.00    +0.013 A 
ATOM     31  C   UNL     1       3.795   0.256   0.748  0.00  0.00    +0.003 A 
ATOM     32  C   UNL     1       4.067   1.611   0.814  0.00  0.00    +0.033 A 
ATOM     33  C   UNL     1       3.034   2.531   0.822  0.00  0.00    +0.127 A 
ATOM     34  C   UNL     1       1.724   2.103   0.765  0.00  0.00    +0.045 A 
BRANCH  33  35
ATOM     35  N   UNL     1       3.335   3.979   0.892  0.00  0.00    +0.056 N 
ATOM     36  O   UNL     1       4.491   4.359   0.943  0.00  0.00    -0.126 OA
ATOM     37  O   UNL     1       2.426   4.790   0.900  0.00  0.00    -0.126 OA
ENDBRANCH  33  35
ENDBRANCH  26  29
ENDBRANCH  23  25
ENDBRANCH  20  21
ENDBRANCH   1  20
TORSDOF 9
