REMARK  Name = ZINC39444649
REMARK  5 active torsions:
REMARK  status: ('A' for Active; 'I' for Inactive)
REMARK    1  A    between atoms: C_1  and  C_2
REMARK    2  A    between atoms: C_2  and  C_4
REMARK    3  A    between atoms: C_2  and  S_19
REMARK    4  A    between atoms: C_9  and  C_14
REMARK    5  A    between atoms: S_19  and  C_20
REMARK                            x       y       z     vdW  Elec       q    Type
REMARK                         _______ _______ _______ _____ _____    ______ ____
ROOT
ATOM      1  C   UNL     1      -0.019   1.526   0.010  0.00  0.00    +0.027 C 
ATOM      2  C   UNL     1       0.002  -0.004   0.002  0.00  0.00    +0.116 C 
ENDROOT
BRANCH   2   3
ATOM      3  C   UNL     1      -1.412  -0.526   0.013  0.00  0.00    +0.137 C 
ATOM      4  N   UNL     1      -2.050  -0.650  -1.129  0.00  0.00    -0.160 NA
ATOM      5  C   UNL     1      -3.304  -1.105  -1.193  0.00  0.00    +0.272 C 
ATOM      6  O   UNL     1      -3.877  -1.212  -2.266  0.00  0.00    -0.268 OA
ATOM      7  C   UNL     1      -3.986  -1.480   0.076  0.00  0.00    +0.076 C 
ATOM      8  C   UNL     1      -5.277  -1.969   0.224  0.00  0.00    -0.009 C 
ATOM      9  C   UNL     1      -5.726  -2.272   1.636  0.00  0.00    +0.113 C 
ATOM     10  S   UNL     1      -4.228  -1.814   2.596  0.00  0.00    -0.100 S 
ATOM     11  C   UNL     1      -3.197  -1.303   1.244  0.00  0.00    +0.112 C 
ATOM     12  N   UNL     1      -1.963  -0.847   1.170  0.00  0.00    -0.226 NA
BRANCH   8  13
ATOM     13  C   UNL     1      -6.118  -2.172  -0.875  0.00  0.00    +0.017 A 
ATOM     14  C   UNL     1      -6.646  -3.369  -1.375  0.00  0.00    +0.016 A 
ATOM     15  C   UNL     1      -7.446  -3.247  -2.477  0.00  0.00    +0.008 A 
ATOM     16  C   UNL     1      -7.670  -2.009  -3.000  0.00  0.00    +0.046 A 
ATOM     17  S   UNL     1      -6.804  -0.972  -2.002  0.00  0.00    -0.097 S 
ENDBRANCH   8  13
ENDBRANCH   2   3
BRANCH   2  18
ATOM     18  S   UNL     1       0.879  -0.605   1.472  0.00  0.00    -0.075 S 
BRANCH  18  19
ATOM     19  C   UNL     1       2.533  -0.042   1.241  0.00  0.00    +0.192 A 
ATOM     20  N   UNL     1       3.452  -0.326   2.157  0.00  0.00    -0.207 NA
ATOM     21  C   UNL     1       4.708   0.069   2.038  0.00  0.00    +0.129 A 
ATOM     22  C   UNL     1       5.096   0.823   0.895  0.00  0.00    +0.047 A 
ATOM     23  C   UNL     1       6.397   1.365   0.539  0.00  0.00    +0.021 A 
ATOM     24  C   UNL     1       6.529   2.052  -0.604  0.00  0.00    +0.048 A 
ATOM     25  S   UNL     1       4.888   2.022  -1.300  0.00  0.00    -0.077 S 
ATOM     26  C   UNL     1       4.069   1.087  -0.036  0.00  0.00    +0.114 A 
ATOM     27  N   UNL     1       2.838   0.652   0.153  0.00  0.00    -0.215 NA
ATOM     28  N   UNL     1       5.635  -0.246   3.014  0.00  0.00    -0.343 N 
ATOM     29  H   UNL     1       5.365  -0.760   3.792  0.00  0.00    +0.144 HD
ATOM     30  H   UNL     1       6.555   0.046   2.922  0.00  0.00    +0.144 HD
ENDBRANCH  18  19
ENDBRANCH   2  18
TORSDOF 4
