REMARK  Name = ZINC13151247
REMARK  4 active torsions:
REMARK  status: ('A' for Active; 'I' for Inactive)
REMARK    1  A    between atoms: C_1  and  C_2
REMARK    2  A    between atoms: C_8  and  C_20
REMARK    3  A    between atoms: C_11  and  C_13
REMARK    4  A    between atoms: C_23  and  N_26
REMARK                            x       y       z     vdW  Elec       q    Type
REMARK                         _______ _______ _______ _____ _____    ______ ____
ROOT
ATOM      1  C   UNL     1      -0.061   1.529   0.147  0.00  0.00    +0.044 C 
ATOM      2  C   UNL     1      -0.035   0.023   0.100  0.00  0.00    -0.050 A 
ATOM      3  C   UNL     1      -0.055  -0.618  -1.142  0.00  0.00    +0.005 A 
ATOM      4  C   UNL     1      -0.033  -1.975  -1.250  0.00  0.00    +0.029 A 
ATOM      5  C   UNL     1       0.010  -2.757  -0.081  0.00  0.00    +0.075 A 
ATOM      6  C   UNL     1       0.031  -2.076   1.231  0.00  0.00    +0.028 A 
ATOM      7  C   UNL     1       0.012  -0.676   1.270  0.00  0.00    +0.015 A 
ATOM      8  C   UNL     1       0.075  -2.677   2.509  0.00  0.00    +0.098 C 
ATOM      9  N   UNL     1       0.105  -4.001   2.763  0.00  0.00    -0.180 NA
ATOM     10  N   UNL     1       0.101  -4.987   1.940  0.00  0.00    -0.220 N 
ATOM     11  C   UNL     1       0.067  -5.044   0.588  0.00  0.00    +0.146 C 
ATOM     12  N   UNL     1       0.027  -4.067  -0.315  0.00  0.00    -0.230 NA
ATOM     13  H   UNL     1       0.128  -5.856   2.370  0.00  0.00    +0.176 HD
ENDROOT
BRANCH  11  14
ATOM     14  C   UNL     1       0.076  -6.407   0.026  0.00  0.00    +0.016 A 
ATOM     15  C   UNL     1      -0.027  -7.516   0.871  0.00  0.00    +0.012 A 
ATOM     16  C   UNL     1      -0.018  -8.787   0.339  0.00  0.00    +0.016 A 
ATOM     17  C   UNL     1       0.094  -8.967  -1.031  0.00  0.00    +0.018 A 
ATOM     18  C   UNL     1       0.196  -7.873  -1.874  0.00  0.00    +0.016 A 
ATOM     19  C   UNL     1       0.182  -6.596  -1.355  0.00  0.00    +0.012 A 
ATOM     20 BR   UNL     1       0.106 -10.715  -1.752  0.00  0.00    -0.050 Br
ENDBRANCH  11  14
BRANCH   8  21
ATOM     21  C   UNL     1       0.090  -1.773   3.672  0.00  0.00    +0.003 A 
ATOM     22  C   UNL     1      -1.113  -1.291   4.204  0.00  0.00    +0.012 A 
ATOM     23  C   UNL     1      -1.090  -0.446   5.292  0.00  0.00    +0.033 A 
ATOM     24  C   UNL     1       0.117  -0.073   5.859  0.00  0.00    +0.126 A 
ATOM     25  C   UNL     1       1.311  -0.546   5.339  0.00  0.00    +0.033 A 
ATOM     26  C   UNL     1       1.306  -1.396   4.255  0.00  0.00    +0.012 A 
BRANCH  24  27
ATOM     27  N   UNL     1       0.132   0.835   7.028  0.00  0.00    +0.056 N 
ATOM     28  O   UNL     1      -1.001   1.287   7.525  0.00  0.00    -0.126 OA
ATOM     29  O   UNL     1       1.277   1.192   7.570  0.00  0.00    -0.126 OA
ENDBRANCH  24  27
ENDBRANCH   8  21
TORSDOF 3
