REMARK  Name = ZINC41586608
REMARK  10 active torsions:
REMARK  status: ('A' for Active; 'I' for Inactive)
REMARK    1  A    between atoms: C_1  and  C_2
REMARK    2  A    between atoms: C_2  and  O_3
REMARK    3  A    between atoms: O_3  and  C_4
REMARK    4  A    between atoms: C_4  and  C_6
REMARK    5  A    between atoms: N_11  and  C_13
REMARK    6  A    between atoms: C_13  and  C_14
REMARK    7  A    between atoms: C_15  and  O_33
REMARK    8  A    between atoms: C_22  and  C_25
REMARK    9  A    between atoms: C_30  and  O_31
REMARK   10  A    between atoms: O_31  and  C_32
REMARK                            x       y       z     vdW  Elec       q    Type
REMARK                         _______ _______ _______ _____ _____    ______ ____
ROOT
ATOM      1  C   UNL     1       2.620  -6.455  -4.920  0.00  0.00    +0.020 A 
ATOM      2  C   UNL     1       1.805  -6.653  -6.022  0.00  0.00    +0.122 A 
ATOM      3  C   UNL     1       2.325  -7.169  -7.207  0.00  0.00    +0.046 A 
ATOM      4  C   UNL     1       3.651  -7.484  -7.298  0.00  0.00    +0.019 A 
ATOM      5  C   UNL     1       4.485  -7.287  -6.197  0.00  0.00    +0.065 A 
ATOM      6  C   UNL     1       3.971  -6.768  -4.996  0.00  0.00    +0.143 A 
ATOM      7  O   UNL     1       4.777  -6.589  -3.932  0.00  0.00    -0.462 OA
ATOM      8  C   UNL     1       6.107  -6.595  -4.048  0.00  0.00    +0.208 A 
ATOM      9  C   UNL     1       6.746  -7.075  -5.147  0.00  0.00    +0.068 A 
ATOM     10  C   UNL     1       5.924  -7.606  -6.255  0.00  0.00    +0.200 A 
ATOM     11  O   UNL     1       6.406  -8.255  -7.167  0.00  0.00    -0.286 OA
ENDROOT
BRANCH   9  12
ATOM     12  C   UNL     1       8.227  -7.077  -5.227  0.00  0.00    +0.030 A 
ATOM     13  C   UNL     1       8.934  -8.267  -5.077  0.00  0.00    +0.012 A 
ATOM     14  C   UNL     1      10.312  -8.264  -5.152  0.00  0.00    +0.001 A 
ATOM     15  C   UNL     1      10.995  -7.081  -5.376  0.00  0.00    +0.004 A 
ATOM     16  C   UNL     1      10.303  -5.894  -5.527  0.00  0.00    +0.046 A 
ATOM     17  C   UNL     1       8.919  -5.884  -5.460  0.00  0.00    +0.128 A 
BRANCH  17  18
ATOM     18  O   UNL     1       8.237  -4.719  -5.614  0.00  0.00    -0.494 OA
ATOM     19  C   UNL     1       9.011  -3.541  -5.849  0.00  0.00    +0.277 C 
ENDBRANCH  17  18
ENDBRANCH   9  12
BRANCH   2  20
ATOM     20  O   UNL     1       0.486  -6.341  -5.947  0.00  0.00    -0.506 OA
ATOM     21  H   UNL     1       0.281  -5.432  -6.203  0.00  0.00    +0.292 HD
ENDBRANCH   2  20
BRANCH   1  22
ATOM     22  C   UNL     1       2.043  -5.897  -3.645  0.00  0.00    -0.036 C 
BRANCH  22  27
ATOM     23  C   UNL     1       1.468  -2.353  -2.550  0.00  0.00    +0.081 C 
ATOM     24  C   UNL     1       2.919  -1.864  -2.583  0.00  0.00    +0.011 C 
ATOM     25  C   UNL     1       3.635  -2.500  -3.778  0.00  0.00    -0.018 C 
ATOM     26  C   UNL     1       3.539  -4.024  -3.670  0.00  0.00    -0.078 C 
ATOM     27  N   UNL     1       2.129  -4.430  -3.670  0.00  0.00    +0.383 N 
ATOM     28  C   UNL     1       1.452  -3.882  -2.488  0.00  0.00    -0.064 C 
ATOM     29  H   UNL     1       1.680  -4.083  -4.504  0.00  0.00    -0.081 HD
BRANCH  23  30
ATOM     30  C   UNL     1       0.775  -1.794  -1.334  0.00  0.00    +0.308 C 
ATOM     31  O   UNL     1       0.314  -2.540  -0.504  0.00  0.00    -0.251 OA
BRANCH  30  32
ATOM     32  O   UNL     1       0.671  -0.465  -1.174  0.00  0.00    -0.465 OA
BRANCH  32  34
ATOM     33  C   UNL     1      -0.019   1.526   0.010  0.00  0.00    +0.048 C 
ATOM     34  C   UNL     1       0.002  -0.004   0.002  0.00  0.00    +0.229 C 
ENDBRANCH  32  34
ENDBRANCH  30  32
ENDBRANCH  23  30
ENDBRANCH  22  27
ENDBRANCH   1  22
TORSDOF 8
