REMARK  Name = ZINC01034633
REMARK  9 active torsions:
REMARK  status: ('A' for Active; 'I' for Inactive)
REMARK    1  A    between atoms: C_4  and  C_7
REMARK    2  A    between atoms: C_8  and  C_34
REMARK    3  A    between atoms: N_11  and  C_20
REMARK    4  A    between atoms: C_13  and  C_14
REMARK    5  A    between atoms: C_20  and  C_21
REMARK    6  A    between atoms: N_23  and  N_24
REMARK    7  A    between atoms: N_24  and  C_25
REMARK    8  A    between atoms: C_25  and  N_27
REMARK    9  A    between atoms: N_27  and  C_28
REMARK                            x       y       z     vdW  Elec       q    Type
REMARK                         _______ _______ _______ _____ _____    ______ ____
ROOT
ATOM      1  C   UNL     1       0.461  -8.838   0.577  0.00  0.00    +0.032 A 
ATOM      2  C   UNL     1       0.621  -8.236  -0.682  0.00  0.00    +0.127 A 
ATOM      3  C   UNL     1       1.159  -6.920  -0.713  0.00  0.00    +0.286 A 
ATOM      4  O   UNL     1       1.322  -6.346  -1.776  0.00  0.00    -0.265 OA
ATOM      5  N   UNL     1       1.488  -6.313   0.443  0.00  0.00    -0.219 N 
ATOM      6  N   UNL     1       1.339  -6.880   1.583  0.00  0.00    -0.167 NA
ATOM      7  C   UNL     1       0.847  -8.088   1.722  0.00  0.00    +0.100 A 
ENDROOT
BRANCH   1  11
ATOM      8  C   UNL     1      -1.122 -12.761   0.953  0.00  0.00    +0.000 A 
ATOM      9  C   UNL     1       0.104 -12.569   0.342  0.00  0.00    +0.001 A 
ATOM     10  C   UNL     1       0.625 -11.297   0.217  0.00  0.00    +0.008 A 
ATOM     11  C   UNL     1      -0.090 -10.203   0.707  0.00  0.00    -0.014 A 
ATOM     12  C   UNL     1      -1.325 -10.404   1.327  0.00  0.00    +0.008 A 
ATOM     13  C   UNL     1      -1.836 -11.681   1.441  0.00  0.00    +0.001 A 
ENDBRANCH   1  11
BRANCH   7  14
ATOM     14  C   UNL     1       0.699  -8.675   3.075  0.00  0.00    +0.003 A 
ATOM     15  C   UNL     1       0.285  -7.878   4.141  0.00  0.00    +0.010 A 
ATOM     16  C   UNL     1       0.143  -8.431   5.398  0.00  0.00    +0.001 A 
ATOM     17  C   UNL     1       0.422  -9.771   5.602  0.00  0.00    +0.000 A 
ATOM     18  C   UNL     1       0.838 -10.565   4.549  0.00  0.00    +0.001 A 
ATOM     19  C   UNL     1       0.978 -10.024   3.287  0.00  0.00    +0.010 A 
ENDBRANCH   7  14
BRANCH   2  20
ATOM     20  C   UNL     1       0.257  -8.920  -1.886  0.00  0.00    +0.105 C 
ATOM     21  N   UNL     1      -0.032  -9.463  -2.841  0.00  0.00    -0.191 NA
ENDBRANCH   2  20
BRANCH   5  22
ATOM     22  C   UNL     1       2.041  -4.958   0.396  0.00  0.00    +0.244 C 
BRANCH  22  23
ATOM     23  C   UNL     1       0.919  -3.954   0.470  0.00  0.00    +0.251 C 
ATOM     24  O   UNL     1      -0.230  -4.334   0.554  0.00  0.00    -0.272 OA
ATOM     25  N   UNL     1       1.192  -2.635   0.443  0.00  0.00    -0.234 N 
ATOM     26  H   UNL     1       2.111  -2.331   0.376  0.00  0.00    +0.173 HD
BRANCH  25  27
ATOM     27  N   UNL     1       0.149  -1.702   0.512  0.00  0.00    -0.246 N 
ATOM     28  H   UNL     1      -0.769  -2.006   0.579  0.00  0.00    +0.172 HD
BRANCH  27  29
ATOM     29  C   UNL     1       0.422  -0.383   0.485  0.00  0.00    +0.151 C 
ATOM     30  S   UNL     1      -0.852   0.757   0.569  0.00  0.00    -0.017 S 
BRANCH  29  31
ATOM     31  N   UNL     1       1.699   0.040   0.392  0.00  0.00    -0.296 N 
ATOM     32  H   UNL     1       2.415  -0.603   0.268  0.00  0.00    +0.154 HD
BRANCH  31  33
ATOM     33  C   UNL     1       1.992   1.405   0.474  0.00  0.00    +0.033 A 
ATOM     34  C   UNL     1       2.940   1.966  -0.373  0.00  0.00    +0.023 A 
ATOM     35  C   UNL     1       3.222   3.315  -0.293  0.00  0.00    +0.002 A 
ATOM     36  C   UNL     1       2.571   4.106   0.636  0.00  0.00    +0.000 A 
ATOM     37  C   UNL     1       1.631   3.550   1.484  0.00  0.00    +0.002 A 
ATOM     38  C   UNL     1       1.340   2.202   1.406  0.00  0.00    +0.023 A 
ENDBRANCH  31  33
ENDBRANCH  29  31
ENDBRANCH  27  29
ENDBRANCH  25  27
ENDBRANCH  22  23
ENDBRANCH   5  22
TORSDOF 9
