REMARK  Name = ZINC09187603
REMARK  9 active torsions:
REMARK  status: ('A' for Active; 'I' for Inactive)
REMARK    1  A    between atoms: C_1  and  C_2
REMARK    2  A    between atoms: C_4  and  C_32
REMARK    3  A    between atoms: C_6  and  N_8
REMARK    4  A    between atoms: C_9  and  C_11
REMARK    5  A    between atoms: C_11  and  S_12
REMARK    6  A    between atoms: S_12  and  C_13
REMARK    7  A    between atoms: C_16  and  C_19
REMARK    8  A    between atoms: N_17  and  N_18
REMARK    9  A    between atoms: C_21  and  C_25
REMARK                            x       y       z     vdW  Elec       q    Type
REMARK                         _______ _______ _______ _____ _____    ______ ____
ROOT
ATOM      1  C   UNL     1       0.536  -2.770   7.657  0.00  0.00    +0.209 A 
ATOM      2  N   UNL     1       0.561  -4.084   7.663  0.00  0.00    -0.120 NA
ATOM      3  N   UNL     1       0.677  -4.517   8.868  0.00  0.00    -0.125 NA
ATOM      4  C   UNL     1       0.732  -3.507   9.704  0.00  0.00    +0.202 A 
ATOM      5  N   UNL     1       0.650  -2.357   8.954  0.00  0.00    -0.222 N 
ENDROOT
BRANCH   4   6
ATOM      6  C   UNL     1       0.864  -3.590  11.175  0.00  0.00    +0.132 A 
ATOM      7  C   UNL     1       0.958  -4.774  11.929  0.00  0.00    +0.061 A 
ATOM      8  C   UNL     1       1.066  -4.424  13.242  0.00  0.00    +0.066 A 
ATOM      9  N   UNL     1       1.040  -3.062  13.309  0.00  0.00    -0.276 N 
ATOM     10  H   UNL     1       1.100  -2.530  14.118  0.00  0.00    +0.189 HD
ATOM     11  N   UNL     1       0.918  -2.567  12.005  0.00  0.00    -0.170 NA
BRANCH   8  12
ATOM     12  C   UNL     1       1.189  -5.354  14.388  0.00  0.00    -0.000 A 
ATOM     13  C   UNL     1       1.207  -6.732  14.172  0.00  0.00    +0.013 A 
ATOM     14  C   UNL     1       1.323  -7.593  15.242  0.00  0.00    +0.039 A 
ATOM     15  C   UNL     1       1.420  -7.093  16.531  0.00  0.00    +0.123 A 
ATOM     16  C   UNL     1       1.402  -5.725  16.750  0.00  0.00    +0.039 A 
ATOM     17  C   UNL     1       1.292  -4.854  15.686  0.00  0.00    +0.013 A 
ATOM     18  F   UNL     1       1.532  -7.941  17.576  0.00  0.00    -0.205 F 
ENDBRANCH   8  12
ENDBRANCH   4   6
BRANCH   5  19
ATOM     19  N   UNL     1       0.673  -1.070   9.412  0.00  0.00    -0.295 N 
ATOM     20  H   UNL     1      -0.258  -0.743   9.620  0.00  0.00    +0.163 HD
ATOM     21  H   UNL     1       1.275  -0.984  10.217  0.00  0.00    +0.163 HD
ENDBRANCH   5  19
BRANCH   1  22
ATOM     22  S   UNL     1       0.391  -1.734   6.239  0.00  0.00    -0.075 S 
BRANCH  22  23
ATOM     23  C   UNL     1       0.280  -2.900   4.854  0.00  0.00    +0.173 C 
BRANCH  23  25
ATOM     24  N   UNL     1       0.052  -2.797   2.393  0.00  0.00    -0.285 N 
ATOM     25  C   UNL     1       0.150  -2.134   3.562  0.00  0.00    +0.227 C 
ATOM     26  O   UNL     1       0.134  -0.922   3.575  0.00  0.00    -0.275 OA
ATOM     27  H   UNL     1      -0.012  -3.765   2.388  0.00  0.00    +0.155 HD
BRANCH  24  33
ATOM     28  C   UNL     1      -1.512  -2.365  -2.248  0.00  0.00    +0.044 C 
ATOM     29  C   UNL     1      -0.707  -1.857  -1.080  0.00  0.00    -0.048 A 
ATOM     30  C   UNL     1       0.025  -0.690  -1.201  0.00  0.00    +0.006 A 
ATOM     31  C   UNL     1       0.765  -0.220  -0.131  0.00  0.00    -0.048 A 
ATOM     32  C   UNL     1       0.776  -0.917   1.061  0.00  0.00    +0.026 A 
ATOM     33  C   UNL     1       0.043  -2.089   1.186  0.00  0.00    +0.034 A 
ATOM     34  C   UNL     1      -0.704  -2.555   0.112  0.00  0.00    +0.026 A 
ATOM     35  C   UNL     1       1.561   1.052  -0.268  0.00  0.00    +0.044 C 
ENDBRANCH  24  33
ENDBRANCH  23  25
ENDBRANCH  22  23
ENDBRANCH   1  22
TORSDOF 7
