REMARK  Name = ZINC37136178
REMARK  7 active torsions:
REMARK  status: ('A' for Active; 'I' for Inactive)
REMARK    1  A    between atoms: C_1  and  C_2
REMARK    2  A    between atoms: C_7  and  C_23
REMARK    3  A    between atoms: C_9  and  N_10
REMARK    4  A    between atoms: N_10  and  C_11
REMARK    5  A    between atoms: C_14  and  N_18
REMARK    6  A    between atoms: N_18  and  S_19
REMARK    7  A    between atoms: S_19  and  C_22
REMARK                            x       y       z     vdW  Elec       q    Type
REMARK                         _______ _______ _______ _____ _____    ______ ____
ROOT
ATOM      1  C   UNL     1       3.250  -0.135   0.209  0.00  0.00    +0.029 A 
ATOM      2  C   UNL     1       2.785  -1.194  -0.561  0.00  0.00    +0.025 A 
ATOM      3  C   UNL     1       3.678  -1.997  -1.243  0.00  0.00    +0.028 A 
ATOM      4  C   UNL     1       5.041  -1.747  -1.158  0.00  0.00    +0.066 A 
ATOM      5  C   UNL     1       5.507  -0.688  -0.387  0.00  0.00    +0.065 A 
ATOM      6  C   UNL     1       4.612   0.119   0.290  0.00  0.00    +0.044 A 
ATOM      7 CL   UNL     1       7.211  -0.376  -0.281  0.00  0.00    -0.082 Cl
ENDROOT
BRANCH   1   8
ATOM      8  N   UNL     1       2.344   0.679   0.899  0.00  0.00    -0.340 N 
ATOM      9  H   UNL     1       2.662   1.458   1.380  0.00  0.00    +0.146 HD
BRANCH   8  16
ATOM     10  C   UNL     1       0.440   2.462  -0.360  0.00  0.00    +0.009 C 
ATOM     11  C   UNL     1       0.263   0.943  -0.359  0.00  0.00    +0.006 C 
ATOM     12  C   UNL     1      -1.229   0.603  -0.365  0.00  0.00    +0.005 C 
ATOM     13  C   UNL     1      -1.891   1.194   0.881  0.00  0.00    +0.001 C 
ATOM     14  C   UNL     1      -1.239   0.605   2.133  0.00  0.00    +0.005 C 
ATOM     15  C   UNL     1       0.253   0.944   2.139  0.00  0.00    +0.006 C 
ATOM     16  C   UNL     1       0.915   0.353   0.893  0.00  0.00    +0.076 C 
ATOM     17  C   UNL     1       0.905   0.355   3.391  0.00  0.00    +0.009 C 
ENDBRANCH   8  16
ENDBRANCH   1   8
BRANCH   4  18
ATOM     18  N   UNL     1       5.947  -2.562  -1.848  0.00  0.00    -0.219 N 
ATOM     19  H   UNL     1       6.813  -2.763  -1.459  0.00  0.00    +0.173 HD
BRANCH  18  20
ATOM     20  S   UNL     1       5.541  -3.183  -3.328  0.00  0.00    +0.040 S 
ATOM     21  O   UNL     1       6.706  -3.868  -3.767  0.00  0.00    -0.155 OA
ATOM     22  O   UNL     1       4.327  -3.888  -3.105  0.00  0.00    -0.155 OA
ATOM     23  C   UNL     1       5.238  -1.733  -4.375  0.00  0.00    +0.218 C 
ENDBRANCH  18  20
ENDBRANCH   4  18
TORSDOF 4
