REMARK  Name = ZINC35337842
REMARK  10 active torsions:
REMARK  status: ('A' for Active; 'I' for Inactive)
REMARK    1  A    between atoms: C_1  and  C_2
REMARK    2  A    between atoms: C_4  and  C_35
REMARK    3  A    between atoms: C_5  and  S_9
REMARK    4  A    between atoms: C_6  and  C_8
REMARK    5  A    between atoms: S_9  and  N_12
REMARK    6  A    between atoms: N_12  and  C_13
REMARK    7  A    between atoms: C_17  and  C_19
REMARK    8  A    between atoms: C_21  and  C_31
REMARK    9  A    between atoms: C_22  and  C_30
REMARK   10  A    between atoms: N_33  and  C_34
REMARK                            x       y       z     vdW  Elec       q    Type
REMARK                         _______ _______ _______ _____ _____    ______ ____
ROOT
ATOM      1  C   UNL     1       1.953  -6.372   1.018  0.00  0.00    +0.048 A 
ATOM      2  C   UNL     1       2.045  -4.989   0.937  0.00  0.00    +0.024 A 
ATOM      3  C   UNL     1       2.776  -4.290   1.877  0.00  0.00    +0.002 A 
ATOM      4  C   UNL     1       3.418  -4.968   2.898  0.00  0.00    +0.006 A 
ATOM      5  C   UNL     1       3.329  -6.345   2.982  0.00  0.00    -0.021 A 
ATOM      6  C   UNL     1       2.594  -7.049   2.048  0.00  0.00    +0.030 A 
ENDROOT
BRANCH   5   7
ATOM      7  C   UNL     1       4.030  -7.078   4.096  0.00  0.00    +0.143 C 
ATOM      8  C   UNL     1       3.214  -6.980   5.361  0.00  0.00    +0.058 C 
ATOM      9  C   UNL     1       3.476  -5.982   6.250  0.00  0.00    +0.025 C 
ATOM     10  N   UNL     1       4.476  -5.126   6.043  0.00  0.00    -0.341 N 
ATOM     11  C   UNL     1       5.404  -5.351   5.128  0.00  0.00    +0.135 C 
ATOM     12  N   UNL     1       5.350  -6.467   4.338  0.00  0.00    -0.300 N 
ATOM     13  C   UNL     1       6.528  -7.094   3.753  0.00  0.00    +0.109 C 
ATOM     14  C   UNL     1       7.484  -6.084   3.135  0.00  0.00    +0.030 C 
ATOM     15  C   UNL     1       8.069  -5.193   4.239  0.00  0.00    +0.078 C 
ATOM     16  S   UNL     1       6.704  -4.174   4.916  0.00  0.00    -0.092 S 
ATOM     17  C   UNL     1       2.623  -5.843   7.484  0.00  0.00    +0.064 C 
ATOM     18  H   UNL     1       4.524  -4.318   6.577  0.00  0.00    +0.167 HD
BRANCH   8  19
ATOM     19  C   UNL     1       2.190  -7.910   5.620  0.00  0.00    +0.244 C 
ATOM     20  O   UNL     1       1.614  -7.899   6.694  0.00  0.00    -0.270 OA
ATOM     21  N   UNL     1       1.847  -8.813   4.681  0.00  0.00    -0.315 N 
ATOM     22  C   UNL     1       0.781  -9.782   4.950  0.00  0.00    +0.128 C 
ATOM     23  H   UNL     1       2.305  -8.822   3.826  0.00  0.00    +0.149 HD
ENDBRANCH   8  19
ENDBRANCH   5   7
BRANCH   1  24
ATOM     24  N   UNL     1       1.213  -7.082   0.069  0.00  0.00    -0.216 N 
ATOM     25  H   UNL     1       1.587  -7.876  -0.343  0.00  0.00    +0.174 HD
BRANCH  24  26
ATOM     26  S   UNL     1      -0.303  -6.566  -0.353  0.00  0.00    +0.073 S 
ATOM     27  O   UNL     1      -1.002  -6.325   0.861  0.00  0.00    -0.150 OA
ATOM     28  O   UNL     1      -0.780  -7.471  -1.340  0.00  0.00    -0.150 OA
BRANCH  26  33
ATOM     29  C   UNL     1       0.326  -1.217  -3.072  0.00  0.00    +0.044 C 
ATOM     30  C   UNL     1       0.168  -2.553  -2.393  0.00  0.00    -0.050 A 
ATOM     31  C   UNL     1      -0.202  -2.613  -1.063  0.00  0.00    +0.008 A 
ATOM     32  C   UNL     1      -0.346  -3.838  -0.440  0.00  0.00    -0.023 A 
ATOM     33  C   UNL     1      -0.121  -5.004  -1.147  0.00  0.00    +0.114 A 
ATOM     34  C   UNL     1       0.249  -4.945  -2.478  0.00  0.00    -0.023 A 
ATOM     35  C   UNL     1       0.389  -3.719  -3.102  0.00  0.00    +0.008 A 
ATOM     36  C   UNL     1       0.495  -6.216  -3.249  0.00  0.00    +0.046 C 
ATOM     37  C   UNL     1      -0.749  -3.903   1.011  0.00  0.00    +0.046 C 
ENDBRANCH  26  33
ENDBRANCH  24  26
ENDBRANCH   1  24
TORSDOF 5
