REMARK  Name = ZINC39324831
REMARK  10 active torsions:
REMARK  status: ('A' for Active; 'I' for Inactive)
REMARK    1  A    between atoms: C_1  and  C_2
REMARK    2  A    between atoms: C_2  and  C_3
REMARK    3  A    between atoms: C_2  and  C_4
REMARK    4  A    between atoms: C_2  and  O_5
REMARK    5  A    between atoms: O_5  and  C_6
REMARK    6  A    between atoms: C_15  and  C_27
REMARK    7  A    between atoms: C_17  and  C_23
REMARK    8  A    between atoms: C_17  and  C_25
REMARK    9  A    between atoms: C_18  and  N_22
REMARK   10  A    between atoms: C_19  and  C_20
REMARK                            x       y       z     vdW  Elec       q    Type
REMARK                         _______ _______ _______ _____ _____    ______ ____
ROOT
ATOM      1  C   UNL     1       1.966  -0.356  -0.688  0.00  0.00    +0.404 C 
ATOM      2  O   UNL     1       2.578   0.316   0.120  0.00  0.00    -0.226 OA
ATOM      3  N   UNL     1       2.514  -0.630  -1.888  0.00  0.00    -0.263 N 
ATOM      4  C   UNL     1       1.797  -1.437  -2.893  0.00  0.00    +0.138 C 
ATOM      5  C   UNL     1       2.691  -2.599  -3.246  0.00  0.00    -0.003 C 
ATOM      6  C   UNL     1       4.002  -2.505  -3.152  0.00  0.00    -0.026 C 
ATOM      7  C   UNL     1       4.734  -1.265  -2.733  0.00  0.00    +0.048 C 
ATOM      8  C   UNL     1       3.845  -0.135  -2.252  0.00  0.00    +0.120 C 
ATOM      9  C   UNL     1       5.787  -1.655  -1.694  0.00  0.00    +0.068 C 
ATOM     10  C   UNL     1       6.804  -2.590  -2.350  0.00  0.00    +0.188 C 
ATOM     11  C   UNL     1       6.134  -3.720  -3.072  0.00  0.00    +0.054 C 
ATOM     12  C   UNL     1       4.836  -3.697  -3.465  0.00  0.00    +0.074 C 
ENDROOT
BRANCH   9  13
ATOM     13  C   UNL     1       6.484  -0.417  -1.193  0.00  0.00    -0.038 A 
ATOM     14  C   UNL     1       6.893   0.556  -2.087  0.00  0.00    +0.004 A 
ATOM     15  C   UNL     1       7.533   1.692  -1.629  0.00  0.00    +0.003 A 
ATOM     16  C   UNL     1       7.766   1.857  -0.276  0.00  0.00    +0.038 A 
ATOM     17  C   UNL     1       7.357   0.883   0.620  0.00  0.00    +0.124 A 
ATOM     18  C   UNL     1       6.711  -0.252   0.160  0.00  0.00    +0.042 A 
ATOM     19  F   UNL     1       7.585   1.043   1.942  0.00  0.00    -0.205 F 
ENDBRANCH   9  13
BRANCH  11  20
ATOM     20  N   UNL     1       6.872  -4.835  -3.350  0.00  0.00    -0.358 N 
ATOM     21  H   UNL     1       7.803  -4.880  -3.081  0.00  0.00    +0.142 HD
ATOM     22  H   UNL     1       6.466  -5.582  -3.816  0.00  0.00    +0.142 HD
ENDBRANCH  11  20
BRANCH  12  23
ATOM     23  C   UNL     1       4.274  -4.808  -4.173  0.00  0.00    +0.101 C 
ATOM     24  N   UNL     1       3.828  -5.689  -4.734  0.00  0.00    -0.191 NA
ENDBRANCH  12  23
BRANCH  10  25
ATOM     25  C   UNL     1       7.614  -1.821  -3.308  0.00  0.00    +0.091 C 
ATOM     26  N   UNL     1       8.240  -1.228  -4.048  0.00  0.00    -0.194 NA
ENDBRANCH  10  25
BRANCH  10  27
ATOM     27  C   UNL     1       7.688  -3.142  -1.310  0.00  0.00    +0.091 C 
ATOM     28  N   UNL     1       8.370  -3.568  -0.508  0.00  0.00    -0.194 NA
ENDBRANCH  10  27
BRANCH   1  29
ATOM     29  O   UNL     1       0.742  -0.825  -0.383  0.00  0.00    -0.445 OA
BRANCH  29  31
ATOM     30  C   UNL     1       0.126   1.025   1.044  0.00  0.00    +0.055 C 
ATOM     31  C   UNL     1       0.223  -0.495   0.907  0.00  0.00    +0.107 C 
ATOM     32  C   UNL     1       1.156  -1.046   1.988  0.00  0.00    +0.055 C 
ATOM     33  C   UNL     1      -1.167  -1.112   1.071  0.00  0.00    +0.055 C 
ENDBRANCH  29  31
ENDBRANCH   1  29
TORSDOF 7
