REMARK  Name = ZINC36072573
REMARK  14 active torsions:
REMARK  status: ('A' for Active; 'I' for Inactive)
REMARK    1  A    between atoms: C_1  and  C_2
REMARK    2  A    between atoms: C_2  and  C_3
REMARK    3  A    between atoms: C_2  and  C_4
REMARK    4  A    between atoms: C_4  and  N_5
REMARK    5  A    between atoms: C_6  and  C_8
REMARK    6  A    between atoms: C_11  and  C_13
REMARK    7  A    between atoms: C_13  and  N_14
REMARK    8  A    between atoms: N_14  and  C_15
REMARK    9  A    between atoms: N_14  and  C_27
REMARK   10  A    between atoms: C_15  and  C_16
REMARK   11  A    between atoms: C_16  and  C_17
REMARK   12  A    between atoms: C_27  and  C_28
REMARK   13  A    between atoms: C_33  and  O_34
REMARK   14  A    between atoms: O_34  and  C_35
REMARK                            x       y       z     vdW  Elec       q    Type
REMARK                         _______ _______ _______ _____ _____    ______ ____
ROOT
ATOM      1  N   UNL     1      -0.390  -7.860   0.584  0.00  0.00    +0.388 N 
ATOM      2  H   UNL     1      -1.005  -8.127   1.339  0.00  0.00    -0.081 HD
ENDROOT
BRANCH   1   3
ATOM      3  C   UNL     1      -1.189  -7.391  -0.556  0.00  0.00    +0.019 C 
BRANCH   3   7
ATOM      4  C   UNL     1      -4.027  -9.588  -1.048  0.00  0.00    +0.163 A 
ATOM      5  C   UNL     1      -3.106 -10.195  -1.846  0.00  0.00    +0.230 A 
ATOM      6  O   UNL     1      -1.977  -9.473  -1.760  0.00  0.00    -0.449 OA
ATOM      7  C   UNL     1      -2.199  -8.445  -0.929  0.00  0.00    +0.179 A 
ATOM      8  N   UNL     1      -3.424  -8.498  -0.499  0.00  0.00    -0.210 NA
BRANCH   4  10
ATOM      9  N   UNL     1      -6.252  -9.267  -0.088  0.00  0.00    -0.310 N 
ATOM     10  C   UNL     1      -5.417 -10.025  -0.827  0.00  0.00    +0.266 C 
ATOM     11  O   UNL     1      -5.811 -11.069  -1.311  0.00  0.00    -0.268 OA
ATOM     12  H   UNL     1      -5.918  -8.474   0.360  0.00  0.00    +0.149 HD
BRANCH   9  13
ATOM     13  C   UNL     1      -7.662  -9.642   0.039  0.00  0.00    +0.107 C 
BRANCH  13  15
ATOM     14  C   UNL     1      -9.879  -8.943   0.955  0.00  0.00    +0.009 C 
ATOM     15  C   UNL     1      -8.383  -8.623   0.924  0.00  0.00    -0.000 C 
ATOM     16  C   UNL     1      -7.817  -8.691   2.344  0.00  0.00    +0.009 C 
ENDBRANCH  13  15
ENDBRANCH   9  13
ENDBRANCH   4  10
ENDBRANCH   3   7
ENDBRANCH   1   3
BRANCH   1  17
ATOM     17  C   UNL     1       0.414  -9.019   0.174  0.00  0.00    -0.073 C 
BRANCH  17  18
ATOM     18  C   UNL     1       1.151  -9.585   1.391  0.00  0.00    +0.019 C 
BRANCH  18  19
ATOM     19  C   UNL     1       1.975 -10.774   0.970  0.00  0.00    -0.024 A 
ATOM     20  C   UNL     1       1.607 -12.063   1.033  0.00  0.00    +0.087 A 
ATOM     21  N   UNL     1       2.616 -12.860   0.564  0.00  0.00    -0.360 N 
ATOM     22  H   UNL     1       2.583 -13.828   0.511  0.00  0.00    +0.165 HD
ATOM     23  C   UNL     1       3.685 -12.083   0.178  0.00  0.00    +0.047 A 
ATOM     24  C   UNL     1       3.328 -10.742   0.409  0.00  0.00    +0.003 A 
ATOM     25  C   UNL     1       4.227  -9.719   0.102  0.00  0.00    +0.010 A 
ATOM     26  C   UNL     1       5.449 -10.026  -0.426  0.00  0.00    +0.001 A 
ATOM     27  C   UNL     1       5.805 -11.347  -0.660  0.00  0.00    +0.002 A 
ATOM     28  C   UNL     1       4.936 -12.373  -0.356  0.00  0.00    +0.026 A 
ENDBRANCH  18  19
ENDBRANCH  17  18
ENDBRANCH   1  17
BRANCH   1  29
ATOM     29  C   UNL     1       0.500  -6.782   1.035  0.00  0.00    -0.039 C 
BRANCH  29  30
ATOM     30  C   UNL     1      -0.325  -5.644   1.579  0.00  0.00    -0.022 A 
ATOM     31  C   UNL     1      -0.516  -4.505   0.821  0.00  0.00    +0.005 A 
ATOM     32  C   UNL     1      -1.273  -3.460   1.319  0.00  0.00    +0.000 A 
ATOM     33  C   UNL     1      -1.840  -3.553   2.577  0.00  0.00    +0.004 A 
ATOM     34  C   UNL     1      -1.652  -4.689   3.338  0.00  0.00    +0.046 A 
ATOM     35  C   UNL     1      -0.898  -5.741   2.838  0.00  0.00    +0.121 A 
BRANCH  35  36
ATOM     36  O   UNL     1      -0.717  -6.863   3.584  0.00  0.00    -0.495 OA
ATOM     37  C   UNL     1      -1.336  -6.894   4.871  0.00  0.00    +0.277 C 
ENDBRANCH  35  36
ENDBRANCH  29  30
ENDBRANCH   1  29
TORSDOF 11
