REMARK  Name = ZINC12403500
REMARK  11 active torsions:
REMARK  status: ('A' for Active; 'I' for Inactive)
REMARK    1  A    between atoms: C_1  and  C_2
REMARK    2  A    between atoms: C_2  and  C_3
REMARK    3  A    between atoms: C_2  and  C_4
REMARK    4  A    between atoms: C_2  and  C_5
REMARK    5  A    between atoms: C_8  and  O_12
REMARK    6  A    between atoms: O_12  and  C_13
REMARK    7  A    between atoms: C_13  and  C_14
REMARK    8  A    between atoms: N_16  and  N_17
REMARK    9  A    between atoms: C_18  and  C_20
REMARK   10  A    between atoms: C_20  and  C_21
REMARK   11  A    between atoms: C_20  and  C_27
REMARK                            x       y       z     vdW  Elec       q    Type
REMARK                         _______ _______ _______ _____ _____    ______ ____
ROOT
ATOM      1  C   UNL     1      -0.296  -4.182   2.455  0.00  0.00    +0.267 C 
ATOM      2  O   UNL     1       0.150  -4.754   1.483  0.00  0.00    -0.271 OA
ATOM      3  N   UNL     1      -0.482  -2.847   2.425  0.00  0.00    -0.232 N 
ATOM      4  H   UNL     1      -0.839  -2.390   3.203  0.00  0.00    +0.173 HD
ENDROOT
BRANCH   3   5
ATOM      5  N   UNL     1      -0.159  -2.121   1.272  0.00  0.00    -0.234 N 
ATOM      6  C   UNL     1      -0.345  -0.786   1.243  0.00  0.00    +0.241 C 
ATOM      7  O   UNL     1      -0.791  -0.214   2.215  0.00  0.00    -0.273 OA
ATOM      8  H   UNL     1       0.198  -2.578   0.495  0.00  0.00    +0.173 HD
BRANCH   6   9
ATOM      9  C   UNL     1       0.002  -0.004   0.002  0.00  0.00    +0.136 C 
BRANCH   9  10
ATOM     10  C   UNL     1      -0.297   1.456   0.228  0.00  0.00    -0.031 A 
ATOM     11  C   UNL     1      -1.551   1.845   0.661  0.00  0.00    +0.005 A 
ATOM     12  C   UNL     1      -1.824   3.183   0.873  0.00  0.00    +0.000 A 
ATOM     13  C   UNL     1      -0.846   4.133   0.642  0.00  0.00    +0.000 A 
ATOM     14  C   UNL     1       0.406   3.744   0.204  0.00  0.00    +0.000 A 
ATOM     15  C   UNL     1       0.680   2.405  -0.003  0.00  0.00    +0.005 A 
ENDBRANCH   9  10
BRANCH   9  16
ATOM     16  C   UNL     1      -0.817  -0.511  -1.157  0.00  0.00    -0.031 A 
ATOM     17  C   UNL     1      -2.184  -0.668  -1.021  0.00  0.00    +0.005 A 
ATOM     18  C   UNL     1      -2.936  -1.129  -2.086  0.00  0.00    +0.000 A 
ATOM     19  C   UNL     1      -2.320  -1.442  -3.283  0.00  0.00    +0.000 A 
ATOM     20  C   UNL     1      -0.952  -1.291  -3.417  0.00  0.00    +0.000 A 
ATOM     21  C   UNL     1      -0.201  -0.825  -2.354  0.00  0.00    +0.005 A 
ENDBRANCH   9  16
ENDBRANCH   6   9
ENDBRANCH   3   5
BRANCH   1  22
ATOM     22  C   UNL     1      -0.643  -4.964   3.696  0.00  0.00    +0.326 C 
BRANCH  22  23
ATOM     23  O   UNL     1      -0.359  -6.348   3.481  0.00  0.00    -0.482 OA
BRANCH  23  27
ATOM     24  C   UNL     1      -1.145  -8.927   6.605  0.00  0.00    -0.041 A 
ATOM     25  C   UNL     1      -1.395  -7.574   6.746  0.00  0.00    +0.008 A 
ATOM     26  C   UNL     1      -1.133  -6.709   5.702  0.00  0.00    +0.047 A 
ATOM     27  C   UNL     1      -0.618  -7.197   4.510  0.00  0.00    +0.135 A 
ATOM     28  C   UNL     1      -0.371  -8.556   4.369  0.00  0.00    +0.060 A 
ATOM     29  C   UNL     1      -0.631  -9.417   5.419  0.00  0.00    +0.023 A 
ATOM     30 BR   UNL     1       0.325  -9.228   2.744  0.00  0.00    -0.047 Br
BRANCH  24  32
ATOM     31  C   UNL     1      -2.919  -9.802   8.100  0.00  0.00    +0.015 C 
ATOM     32  C   UNL     1      -1.432  -9.868   7.746  0.00  0.00    -0.013 C 
ATOM     33  C   UNL     1      -1.069 -11.296   7.333  0.00  0.00    +0.015 C 
ATOM     34  C   UNL     1      -0.600  -9.462   8.964  0.00  0.00    +0.015 C 
ENDBRANCH  24  32
ENDBRANCH  23  27
ENDBRANCH  22  23
ENDBRANCH   1  22
TORSDOF 8
