REMARK  Name = ZINC00244816
REMARK  2 active torsions:
REMARK  status: ('A' for Active; 'I' for Inactive)
REMARK    1  A    between atoms: C_3  and  C_6
REMARK    2  A    between atoms: N_10  and  C_11
REMARK                            x       y       z     vdW  Elec       q    Type
REMARK                         _______ _______ _______ _____ _____    ______ ____
ROOT
ATOM      1  C   UNL     1       3.568   0.618  -0.029  0.00  0.00    +0.205 A 
ATOM      2  N   UNL     1       4.372   1.623  -0.301  0.00  0.00    -0.125 NA
ATOM      3  N   UNL     1       5.596   1.240  -0.222  0.00  0.00    -0.121 NA
ATOM      4  C   UNL     1       5.654  -0.032   0.103  0.00  0.00    +0.207 A 
ATOM      5  N   UNL     1       4.365  -0.474   0.244  0.00  0.00    -0.267 N 
ATOM      6  S   UNL     1       7.117  -0.989   0.325  0.00  0.00    -0.009 SA
ENDROOT
BRANCH   5   7
ATOM      7  C   UNL     1       3.945  -1.766   0.590  0.00  0.00    +0.051 A 
ATOM      8  C   UNL     1       3.264  -1.980   1.781  0.00  0.00    +0.028 A 
ATOM      9  C   UNL     1       2.851  -3.253   2.120  0.00  0.00    +0.022 A 
ATOM     10  C   UNL     1       3.115  -4.316   1.273  0.00  0.00    +0.041 A 
ATOM     11  C   UNL     1       3.793  -4.105   0.086  0.00  0.00    +0.022 A 
ATOM     12  C   UNL     1       4.203  -2.832  -0.260  0.00  0.00    +0.028 A 
ATOM     13 CL   UNL     1       2.595  -5.915   1.702  0.00  0.00    -0.084 Cl
ENDBRANCH   5   7
BRANCH   1  16
ATOM     14  C   UNL     1      -0.016   1.344   0.009  0.00  0.00    +0.042 A 
ATOM     15  C   UNL     1       1.324   1.776  -0.001  0.00  0.00    +0.053 A 
ATOM     16  C   UNL     1       2.098   0.653  -0.015  0.00  0.00    +0.172 A 
ATOM     17  O   UNL     1       1.280  -0.418  -0.012  0.00  0.00    -0.460 OA
ATOM     18  C   UNL     1       0.002  -0.004   0.002  0.00  0.00    +0.196 A 
ENDBRANCH   1  16
TORSDOF 2
