REMARK  Name = ZINC39726484
REMARK  3 active torsions:
REMARK  status: ('A' for Active; 'I' for Inactive)
REMARK    1  A    between atoms: C_3  and  C_6
REMARK    2  A    between atoms: N_11  and  C_12
REMARK    3  A    between atoms: C_12  and  C_13
REMARK                            x       y       z     vdW  Elec       q    Type
REMARK                         _______ _______ _______ _____ _____    ______ ____
ROOT
ATOM      1  C   UNL     1       5.972   0.947   2.862  0.00  0.00    +0.201 C 
ATOM      2  O   UNL     1       5.904  -0.261   2.773  0.00  0.00    -0.278 OA
ATOM      3  N   UNL     1       6.628   1.510   3.897  0.00  0.00    -0.286 N 
ATOM      4  C   UNL     1       7.887   1.196   4.128  0.00  0.00    +0.050 C 
ATOM      5  C   UNL     1       8.621   0.333   3.178  0.00  0.00    +0.054 C 
ATOM      6  C   UNL     1       9.917   0.016   3.425  0.00  0.00    +0.097 C 
ATOM      7  N   UNL     1      10.861  -0.731   2.782  0.00  0.00    -0.190 NA
ATOM      8  C   UNL     1      11.966  -0.690   3.490  0.00  0.00    +0.369 C 
ATOM      9  O   UNL     1      13.114  -1.322   3.147  0.00  0.00    -0.243 OA
ATOM     10  N   UNL     1      11.816   0.058   4.596  0.00  0.00    -0.190 NA
ATOM     11  C   UNL     1      10.585   0.532   4.637  0.00  0.00    +0.096 C 
ATOM     12  C   UNL     1       9.850   1.386   5.574  0.00  0.00    +0.047 C 
ATOM     13  C   UNL     1       8.564   1.708   5.328  0.00  0.00    +0.041 C 
ATOM     14 BR   UNL     1       7.625   2.817   6.537  0.00  0.00    -0.048 Br
ATOM     15  H   UNL     1       6.174   2.147   4.470  0.00  0.00    +0.155 HD
ENDROOT
BRANCH   1  16
ATOM     16  C   UNL     1       5.323   1.817   1.817  0.00  0.00    +0.020 C 
BRANCH  16  21
ATOM     17  C   UNL     1       3.941   1.814  -0.152  0.00  0.00    -0.030 C 
ATOM     18  C   UNL     1       4.561   1.581  -1.545  0.00  0.00    -0.012 C 
ATOM     19  C   UNL     1       5.980   1.048  -1.211  0.00  0.00    -0.020 C 
ATOM     20  C   UNL     1       5.707   0.207   0.060  0.00  0.00    -0.077 C 
ATOM     21  N   UNL     1       4.678   0.970   0.806  0.00  0.00    +0.390 N 
ATOM     22  H   UNL     1       4.040   0.331   1.256  0.00  0.00    -0.080 HD
BRANCH  17  25
ATOM     23  C   UNL     1       0.137   1.629  -0.242  0.00  0.00    +0.008 A 
ATOM     24  C   UNL     1       1.389   2.215  -0.244  0.00  0.00    +0.009 A 
ATOM     25  C   UNL     1       2.486   1.422  -0.167  0.00  0.00    -0.024 A 
ATOM     26  S   UNL     1       1.759  -0.207  -0.088  0.00  0.00    -0.103 S 
ATOM     27  C   UNL     1       0.043   0.279  -0.163  0.00  0.00    +0.045 A 
ENDBRANCH  17  25
ENDBRANCH  16  21
ENDBRANCH   1  16
TORSDOF 3
