REMARK  Name = ZINC16401697
REMARK  5 active torsions:
REMARK  status: ('A' for Active; 'I' for Inactive)
REMARK    1  A    between atoms: C_6  and  C_7
REMARK    2  A    between atoms: C_7  and  O_8
REMARK    3  A    between atoms: O_8  and  C_9
REMARK    4  A    between atoms: C_12  and  C_15
REMARK    5  A    between atoms: N_21  and  C_22
REMARK                            x       y       z     vdW  Elec       q    Type
REMARK                         _______ _______ _______ _____ _____    ______ ____
ROOT
ATOM      1  C   UNL     1      -6.491  -3.847  -2.037  0.00  0.00    +0.028 C 
ATOM      2  C   UNL     1      -7.313  -3.545  -3.074  0.00  0.00    +0.078 C 
ATOM      3  C   UNL     1      -8.652  -4.077  -3.393  0.00  0.00    +0.256 C 
ATOM      4  O   UNL     1      -9.189  -4.912  -2.688  0.00  0.00    -0.269 OA
ATOM      5  N   UNL     1      -9.242  -3.606  -4.478  0.00  0.00    -0.260 N 
ATOM      6  C   UNL     1      -8.617  -2.661  -5.263  0.00  0.00    +0.166 C 
ATOM      7  N   UNL     1      -9.057  -2.092  -6.363  0.00  0.00    -0.226 NA
ATOM      8  S   UNL     1      -7.068  -2.391  -4.417  0.00  0.00    -0.049 S 
ATOM      9  H   UNL     1     -10.123  -3.929  -4.725  0.00  0.00    +0.157 HD
ENDROOT
BRANCH   7  10
ATOM     10  C   UNL     1      -8.285  -1.165  -7.010  0.00  0.00    +0.067 A 
ATOM     11  C   UNL     1      -7.634  -0.165  -6.284  0.00  0.00    +0.030 A 
ATOM     12  C   UNL     1      -6.857   0.766  -6.941  0.00  0.00    +0.040 A 
ATOM     13  C   UNL     1      -6.722   0.711  -8.319  0.00  0.00    +0.124 A 
ATOM     14  C   UNL     1      -7.365  -0.278  -9.044  0.00  0.00    +0.040 A 
ATOM     15  C   UNL     1      -8.140  -1.218  -8.398  0.00  0.00    +0.030 A 
ATOM     16  F   UNL     1      -5.960   1.626  -8.957  0.00  0.00    -0.205 F 
ENDBRANCH   7  10
BRANCH   1  20
ATOM     17  C   UNL     1      -2.548  -2.288  -1.934  0.00  0.00    +0.121 A 
ATOM     18  C   UNL     1      -3.122  -2.797  -0.775  0.00  0.00    +0.046 A 
ATOM     19  C   UNL     1      -4.402  -3.305  -0.803  0.00  0.00    +0.011 A 
ATOM     20  C   UNL     1      -5.125  -3.307  -2.002  0.00  0.00    -0.024 A 
ATOM     21  C   UNL     1      -4.543  -2.792  -3.166  0.00  0.00    +0.011 A 
ATOM     22  C   UNL     1      -3.264  -2.282  -3.126  0.00  0.00    +0.046 A 
BRANCH  17  23
ATOM     23  O   UNL     1      -1.286  -1.789  -1.901  0.00  0.00    -0.487 OA
BRANCH  23  24
ATOM     24  C   UNL     1      -0.607  -1.825  -0.644  0.00  0.00    +0.264 C 
BRANCH  24  30
ATOM     25  C   UNL     1       0.966   0.121  -0.605  0.00  0.00    +0.008 A 
ATOM     26  C   UNL     1       2.229   0.665  -0.748  0.00  0.00    +0.015 A 
ATOM     27  C   UNL     1       3.297  -0.147  -1.087  0.00  0.00    +0.018 A 
ATOM     28  C   UNL     1       3.100  -1.502  -1.282  0.00  0.00    +0.015 A 
ATOM     29  C   UNL     1       1.837  -2.045  -1.139  0.00  0.00    +0.008 A 
ATOM     30  C   UNL     1       0.770  -1.233  -0.800  0.00  0.00    -0.010 A 
ATOM     31 BR   UNL     1       5.025   0.596  -1.283  0.00  0.00    -0.050 Br
ENDBRANCH  24  30
ENDBRANCH  23  24
ENDBRANCH  17  23
ENDBRANCH   1  20
TORSDOF 5
