REMARK  Name = ZINC64436093
REMARK  5 active torsions:
REMARK  status: ('A' for Active; 'I' for Inactive)
REMARK    1  A    between atoms: C_6  and  C_11
REMARK    2  A    between atoms: C_11  and  C_12
REMARK    3  A    between atoms: C_12  and  N_13
REMARK    4  A    between atoms: C_14  and  C_16
REMARK    5  A    between atoms: C_16  and  N_17
REMARK                            x       y       z     vdW  Elec       q    Type
REMARK                         _______ _______ _______ _____ _____    ______ ____
ROOT
ATOM      1  N   UNL     1       5.000  -3.595  -1.503  0.00  0.00    -0.314 N 
ATOM      2  C   UNL     1       5.312  -4.189  -2.672  0.00  0.00    +0.232 C 
ATOM      3  O   UNL     1       5.184  -3.581  -3.714  0.00  0.00    -0.274 OA
ATOM      4  H   UNL     1       5.102  -4.081  -0.670  0.00  0.00    +0.149 HD
ENDROOT
BRANCH   1   5
ATOM      5  C   UNL     1       4.508  -2.215  -1.491  0.00  0.00    +0.108 C 
BRANCH   5   6
ATOM      6  C   UNL     1       4.231  -1.785  -0.049  0.00  0.00    +0.052 C 
BRANCH   6  12
ATOM      7  C   UNL     1      -0.017   1.399   0.010  0.00  0.00    +0.022 A 
ATOM      8  C   UNL     1       1.109   2.143   0.003  0.00  0.00    +0.027 A 
ATOM      9  C   UNL     1       2.385   1.516  -0.013  0.00  0.00    +0.043 A 
ATOM     10  N   UNL     1       3.600   2.009  -0.022  0.00  0.00    -0.380 N 
ATOM     11  C   UNL     1       4.557   0.897  -0.038  0.00  0.00    +0.144 C 
ATOM     12  C   UNL     1       3.724  -0.366  -0.036  0.00  0.00    -0.040 C 
ATOM     13  C   UNL     1       2.433   0.036  -0.021  0.00  0.00    +0.000 A 
ATOM     14  C   UNL     1       1.163  -0.699  -0.013  0.00  0.00    +0.030 A 
ATOM     15  C   UNL     1       0.002  -0.004   0.002  0.00  0.00    +0.042 A 
ATOM     16 CL   UNL     1      -1.502  -0.870   0.012  0.00  0.00    -0.084 Cl
ATOM     17  H   UNL     1       3.828   2.952  -0.020  0.00  0.00    +0.160 HD
ENDBRANCH   6  12
ENDBRANCH   5   6
ENDBRANCH   1   5
BRANCH   2  18
ATOM     18  C   UNL     1       5.819  -5.608  -2.685  0.00  0.00    +0.222 C 
BRANCH  18  19
ATOM     19  N   UNL     1       6.083  -6.020  -4.066  0.00  0.00    -0.224 N 
ATOM     20  C   UNL     1       5.081  -6.501  -4.826  0.00  0.00    +0.253 C 
ATOM     21  O   UNL     1       4.006  -6.779  -4.329  0.00  0.00    -0.269 OA
ATOM     22  C   UNL     1       5.306  -6.684  -6.268  0.00  0.00    +0.069 C 
ATOM     23  C   UNL     1       6.411  -6.155  -6.825  0.00  0.00    -0.046 C 
ATOM     24  C   UNL     1       6.562  -6.314  -8.305  0.00  0.00    +0.032 C 
ATOM     25  C   UNL     1       7.154  -5.144  -9.018  0.00  0.00    +0.004 C 
ATOM     26  C   UNL     1       8.660  -5.027  -8.924  0.00  0.00    +0.000 C 
ATOM     27  C   UNL     1       9.085  -4.476  -7.587  0.00  0.00    +0.002 C 
ATOM     28  C   UNL     1       8.783  -5.428  -6.459  0.00  0.00    +0.025 C 
ATOM     29  C   UNL     1       7.370  -5.413  -5.954  0.00  0.00    +0.099 C 
ATOM     30  N   UNL     1       7.338  -5.910  -4.577  0.00  0.00    -0.230 NA
ATOM     31  H   UNL     1       7.838  -6.783  -4.499  0.00  0.00    +0.145 HD
ENDBRANCH  18  19
ENDBRANCH   2  18
TORSDOF 5
