REMARK  Name = ZINC59404483
REMARK  4 active torsions:
REMARK  status: ('A' for Active; 'I' for Inactive)
REMARK    1  A    between atoms: C_3  and  C_7
REMARK    2  A    between atoms: N_12  and  C_13
REMARK    3  A    between atoms: C_13  and  C_14
REMARK    4  A    between atoms: N_16  and  C_17
REMARK                            x       y       z     vdW  Elec       q    Type
REMARK                         _______ _______ _______ _____ _____    ______ ____
ROOT
ATOM      1  C   UNL     1       3.603   0.679  -0.032  0.00  0.00    -0.020 C 
ATOM      2  C   UNL     1       4.159   0.601   1.412  0.00  0.00    -0.011 C 
ATOM      3  C   UNL     1       5.567  -0.005   1.174  0.00  0.00    -0.020 C 
ATOM      4  C   UNL     1       5.331  -0.983   0.004  0.00  0.00    -0.077 C 
ATOM      5  N   UNL     1       4.114  -0.537  -0.702  0.00  0.00    +0.391 N 
ATOM      6  H   UNL     1       3.415  -1.264  -0.665  0.00  0.00    -0.080 HD
ENDROOT
BRANCH   1   9
ATOM      7  C   UNL     1      -0.032   1.317   0.009  0.00  0.00    +0.019 A 
ATOM      8  C   UNL     1       1.304   1.766  -0.004  0.00  0.00    +0.021 A 
ATOM      9  C   UNL     1       2.097   0.675  -0.016  0.00  0.00    +0.002 A 
ATOM     10  N   UNL     1       1.300  -0.431  -0.011  0.00  0.00    -0.366 N 
ATOM     11  H   UNL     1       1.609  -1.350  -0.017  0.00  0.00    +0.165 HD
ATOM     12  C   UNL     1      -0.004  -0.032   0.004  0.00  0.00    +0.082 A 
ENDBRANCH   1   9
BRANCH   5  13
ATOM     13  C   UNL     1       4.434  -0.232  -2.103  0.00  0.00    +0.020 C 
BRANCH  13  14
ATOM     14  C   UNL     1       4.836  -1.499  -2.813  0.00  0.00    +0.201 C 
ATOM     15  O   UNL     1       4.854  -2.552  -2.211  0.00  0.00    -0.278 OA
ATOM     16  N   UNL     1       5.176  -1.462  -4.116  0.00  0.00    -0.287 N 
ATOM     17  H   UNL     1       5.097  -0.634  -4.615  0.00  0.00    +0.155 HD
BRANCH  16  18
ATOM     18  C   UNL     1       5.642  -2.619  -4.751  0.00  0.00    +0.033 A 
ATOM     19  C   UNL     1       6.623  -2.528  -5.730  0.00  0.00    +0.024 A 
ATOM     20  C   UNL     1       7.081  -3.671  -6.355  0.00  0.00    +0.016 A 
ATOM     21  C   UNL     1       6.564  -4.906  -6.006  0.00  0.00    +0.013 A 
ATOM     22  C   UNL     1       5.587  -5.000  -5.031  0.00  0.00    +0.016 A 
ATOM     23  C   UNL     1       5.129  -3.860  -4.399  0.00  0.00    +0.024 A 
ATOM     24  I   UNL     1       7.262  -6.638  -6.957  0.00  0.00    -0.044 I 
ENDBRANCH  16  18
ENDBRANCH  13  14
ENDBRANCH   5  13
TORSDOF 4
