REMARK  Name = ZINC63994385
REMARK  12 active torsions:
REMARK  status: ('A' for Active; 'I' for Inactive)
REMARK    1  A    between atoms: C_1  and  C_2
REMARK    2  A    between atoms: C_5  and  C_8
REMARK    3  A    between atoms: C_8  and  N_9
REMARK    4  A    between atoms: N_9  and  C_10
REMARK    5  A    between atoms: N_16  and  C_29
REMARK    6  A    between atoms: C_17  and  C_25
REMARK    7  A    between atoms: C_19  and  N_21
REMARK    8  A    between atoms: C_22  and  C_24
REMARK    9  A    between atoms: C_25  and  O_27
REMARK   10  A    between atoms: O_27  and  C_28
REMARK   11  A    between atoms: C_29  and  C_30
REMARK   12  A    between atoms: C_30  and  C_31
REMARK                            x       y       z     vdW  Elec       q    Type
REMARK                         _______ _______ _______ _____ _____    ______ ____
ROOT
ATOM      1  C   UNL     1       1.284  -6.282   0.385  0.00  0.00    +0.044 A 
ATOM      2  C   UNL     1       2.631  -6.603   0.217  0.00  0.00    +0.033 A 
ATOM      3  C   UNL     1       2.979  -7.933   0.078  0.00  0.00    +0.015 A 
ATOM      4  C   UNL     1       1.998  -8.914   0.106  0.00  0.00    +0.105 A 
ATOM      5  N   UNL     1       0.723  -8.564   0.269  0.00  0.00    -0.348 N 
ATOM      6  C   UNL     1       0.353  -7.308   0.411  0.00  0.00    +0.107 A 
ATOM      7  N   UNL     1       2.544 -10.186  -0.050  0.00  0.00    -0.301 N 
ATOM      8  C   UNL     1       3.999 -10.098  -0.198  0.00  0.00    +0.208 C 
ATOM      9  C   UNL     1       4.322  -8.596  -0.116  0.00  0.00    +0.138 C 
ATOM     10  H   UNL     1       0.044  -9.257   0.288  0.00  0.00    +0.167 HD
ENDROOT
BRANCH   9  11
ATOM     11  N   UNL     1       5.198  -8.322   1.026  0.00  0.00    -0.306 N 
ATOM     12  C   UNL     1       5.944  -7.200   1.048  0.00  0.00    +0.210 C 
ATOM     13  O   UNL     1       5.891  -6.418   0.123  0.00  0.00    -0.276 OA
ATOM     14  C   UNL     1       6.845  -6.918   2.223  0.00  0.00    +0.109 C 
ATOM     15  H   UNL     1       5.240  -8.948   1.765  0.00  0.00    +0.149 HD
ENDBRANCH   9  11
BRANCH   1  16
ATOM     16  N   UNL     1       0.881  -4.949   0.530  0.00  0.00    -0.339 N 
ATOM     17  H   UNL     1       1.541  -4.238   0.511  0.00  0.00    +0.146 HD
BRANCH  16  18
ATOM     18  C   UNL     1      -0.536  -4.628   0.712  0.00  0.00    +0.137 C 
BRANCH  18  23
ATOM     19  C   UNL     1      -1.170   1.094   1.214  0.00  0.00    +0.044 C 
ATOM     20  C   UNL     1      -1.004  -0.398   1.083  0.00  0.00    -0.050 A 
ATOM     21  C   UNL     1      -1.060  -0.993  -0.163  0.00  0.00    +0.003 A 
ATOM     22  C   UNL     1      -0.908  -2.361  -0.283  0.00  0.00    +0.005 A 
ATOM     23  C   UNL     1      -0.701  -3.135   0.843  0.00  0.00    -0.030 A 
ATOM     24  C   UNL     1      -0.645  -2.541   2.090  0.00  0.00    +0.005 A 
ATOM     25  C   UNL     1      -0.792  -1.171   2.209  0.00  0.00    +0.003 A 
ENDBRANCH  18  23
ENDBRANCH  16  18
ENDBRANCH   1  16
BRANCH   8  26
ATOM     26  C   UNL     1       4.424 -10.654  -1.532  0.00  0.00    +0.330 C 
ATOM     27  O   UNL     1       3.653 -10.648  -2.462  0.00  0.00    -0.249 OA
BRANCH  26  28
ATOM     28  O   UNL     1       5.659 -11.158  -1.687  0.00  0.00    -0.467 OA
ATOM     29  C   UNL     1       5.994 -11.668  -2.979  0.00  0.00    +0.280 C 
ENDBRANCH  26  28
ENDBRANCH   8  26
BRANCH   7  30
ATOM     30  C   UNL     1       1.775 -11.433  -0.063  0.00  0.00    +0.112 C 
BRANCH  30  31
ATOM     31  C   UNL     1       1.607 -11.944   1.369  0.00  0.00    +0.052 C 
BRANCH  31  32
ATOM     32  C   UNL     1       0.862 -13.254   1.351  0.00  0.00    -0.040 C 
ATOM     33  C   UNL     1       1.399 -14.495   1.361  0.00  0.00    -0.001 A 
ATOM     34  C   UNL     1       2.784 -14.979   1.390  0.00  0.00    +0.010 A 
ATOM     35  C   UNL     1       3.013 -16.312   1.392  0.00  0.00    +0.001 A 
ATOM     36  C   UNL     1       1.964 -17.240   1.368  0.00  0.00    +0.002 A 
ATOM     37  C   UNL     1       0.665 -16.873   1.341  0.00  0.00    +0.026 A 
ATOM     38  C   UNL     1       0.308 -15.496   1.337  0.00  0.00    +0.043 A 
ATOM     39  N   UNL     1      -0.858 -14.897   1.312  0.00  0.00    -0.380 N 
ATOM     40  C   UNL     1      -0.638 -13.446   1.325  0.00  0.00    +0.144 C 
ATOM     41  H   UNL     1      -1.721 -15.338   1.293  0.00  0.00    +0.160 HD
ENDBRANCH  31  32
ENDBRANCH  30  31
ENDBRANCH   7  30
TORSDOF 9
