REMARK  Name = ZINC12697475
REMARK  3 active torsions:
REMARK  status: ('A' for Active; 'I' for Inactive)
REMARK    1  A    between atoms: C_6  and  C_7
REMARK    2  A    between atoms: N_9  and  N_10
REMARK    3  A    between atoms: C_11  and  C_13
REMARK                            x       y       z     vdW  Elec       q    Type
REMARK                         _______ _______ _______ _____ _____    ______ ____
ROOT
ATOM      1  C   UNL     1       3.707  -0.636  -0.051  0.00  0.00    +0.260 C 
ATOM      2  O   UNL     1       3.738  -1.851  -0.062  0.00  0.00    -0.269 OA
ATOM      3  N   UNL     1       4.857   0.068  -0.061  0.00  0.00    -0.230 N 
ATOM      4  H   UNL     1       4.832   1.037  -0.053  0.00  0.00    +0.173 HD
ENDROOT
BRANCH   1  10
ATOM      5  C   UNL     1       2.378   1.466  -0.018  0.00  0.00    +0.014 A 
ATOM      6  C   UNL     1       1.166   2.121   0.002  0.00  0.00    +0.017 A 
ATOM      7  C   UNL     1      -0.017   1.395   0.010  0.00  0.00    +0.030 A 
ATOM      8  C   UNL     1       0.002  -0.004   0.002  0.00  0.00    +0.048 A 
ATOM      9  C   UNL     1       1.221  -0.662  -0.019  0.00  0.00    +0.037 A 
ATOM     10  C   UNL     1       2.412   0.069  -0.029  0.00  0.00    +0.040 A 
ATOM     11  N   UNL     1      -1.175  -0.748   0.021  0.00  0.00    -0.284 N 
ATOM     12  C   UNL     1      -2.379  -0.325  -0.354  0.00  0.00    +0.227 C 
ATOM     13  O   UNL     1      -3.307  -1.104  -0.288  0.00  0.00    -0.275 OA
ATOM     14  C   UNL     1      -2.655   1.066  -0.857  0.00  0.00    +0.170 C 
ATOM     15  S   UNL     1      -1.572   2.232   0.022  0.00  0.00    -0.114 S 
ATOM     16  H   UNL     1      -1.111  -1.663   0.337  0.00  0.00    +0.155 HD
ENDBRANCH   1  10
BRANCH   3  17
ATOM     17  N   UNL     1       6.088  -0.602  -0.082  0.00  0.00    -0.230 N 
ATOM     18  C   UNL     1       7.237   0.102  -0.092  0.00  0.00    +0.267 C 
ATOM     19  O   UNL     1       7.206   1.318  -0.082  0.00  0.00    -0.268 OA
ATOM     20  H   UNL     1       6.112  -1.571  -0.090  0.00  0.00    +0.173 HD
BRANCH  18  21
ATOM     21  C   UNL     1       8.525  -0.599  -0.114  0.00  0.00    +0.076 A 
ATOM     22  C   UNL     1       9.800  -0.078  -0.127  0.00  0.00    +0.024 A 
ATOM     23  C   UNL     1      10.879  -0.965  -0.135  0.00  0.00    -0.036 A 
ATOM     24  C   UNL     1      10.589  -2.281  -0.188  0.00  0.00    -0.006 A 
ATOM     25  S   UNL     1       8.855  -2.350  -0.125  0.00  0.00    -0.088 S 
ATOM     26  C   UNL     1      11.445  -3.511  -0.345  0.00  0.00    +0.043 C 
ATOM     27  C   UNL     1      12.930  -3.172  -0.483  0.00  0.00    +0.005 C 
ATOM     28  C   UNL     1      13.545  -2.881   0.875  0.00  0.00    +0.000 C 
ATOM     29  C   UNL     1      12.608  -2.122   1.794  0.00  0.00    +0.000 C 
ATOM     30  C   UNL     1      12.754  -0.635   1.455  0.00  0.00    +0.005 C 
ATOM     31  C   UNL     1      12.287  -0.407   0.017  0.00  0.00    +0.036 C 
ENDBRANCH  18  21
ENDBRANCH   3  17
TORSDOF 3
