REMARK  Name = ZINC06409195
REMARK  10 active torsions:
REMARK  status: ('A' for Active; 'I' for Inactive)
REMARK    1  A    between atoms: C_1  and  C_2
REMARK    2  A    between atoms: C_9  and  C_14
REMARK    3  A    between atoms: C_14  and  C_16
REMARK    4  A    between atoms: C_14  and  N_68
REMARK    5  A    between atoms: N_20  and  C_21
REMARK    6  A    between atoms: C_21  and  C_22
REMARK    7  A    between atoms: C_28  and  C_29
REMARK    8  A    between atoms: C_28  and  N_68
REMARK    9  A    between atoms: C_35  and  C_36
REMARK   10  A    between atoms: C_35  and  N_68
REMARK                            x       y       z     vdW  Elec       q    Type
REMARK                         _______ _______ _______ _____ _____    ______ ____
ROOT
ATOM      1  C   UNL     1       2.526   4.964   2.561  0.00  0.00    +0.040 C 
ENDROOT
BRANCH   1  10
ATOM      2  C   UNL     1       6.612  10.665   0.029  0.00  0.00    +0.044 C 
ATOM      3  C   UNL     1       5.383  10.135   0.720  0.00  0.00    -0.050 A 
ATOM      4  C   UNL     1       4.419  11.019   1.186  0.00  0.00    +0.005 A 
ATOM      5  C   UNL     1       3.288  10.556   1.823  0.00  0.00    +0.026 A 
ATOM      6  C   UNL     1       3.107   9.188   2.000  0.00  0.00    +0.049 A 
ATOM      7  C   UNL     1       4.086   8.294   1.527  0.00  0.00    -0.001 A 
ATOM      8  C   UNL     1       5.227   8.787   0.884  0.00  0.00    +0.013 A 
ATOM      9  C   UNL     1       3.887   6.857   1.718  0.00  0.00    +0.017 A 
ATOM     10  C   UNL     1       2.762   6.437   2.348  0.00  0.00    +0.011 A 
ATOM     11  C   UNL     1       1.808   7.375   2.799  0.00  0.00    +0.251 A 
ATOM     12  O   UNL     1       0.801   6.976   3.358  0.00  0.00    -0.268 OA
ATOM     13  N   UNL     1       1.985   8.697   2.632  0.00  0.00    -0.322 N 
ATOM     14  H   UNL     1       1.311   9.314   2.958  0.00  0.00    +0.169 HD
ENDBRANCH   1  10
BRANCH   1  15
ATOM     15  C   UNL     1       1.247   4.556   1.876  0.00  0.00    +0.143 A 
ATOM     16  N   UNL     1       0.027   4.792   2.290  0.00  0.00    -0.115 NA
ATOM     17  N   UNL     1      -0.790   4.285   1.433  0.00  0.00    -0.023 NA
ATOM     18  N   UNL     1      -0.122   3.735   0.479  0.00  0.00    -0.044 NA
ATOM     19  N   UNL     1       1.138   3.876   0.719  0.00  0.00    -0.228 N 
BRANCH  19  20
ATOM     20  C   UNL     1       2.241   3.393  -0.115  0.00  0.00    +0.178 C 
BRANCH  20  21
ATOM     21  C   UNL     1       2.537   1.932   0.227  0.00  0.00    +0.140 C 
ATOM     22  C   UNL     1       3.701   1.393  -0.643  0.00  0.00    +0.035 C 
ATOM     23  C   UNL     1       3.428  -0.131  -0.641  0.00  0.00    +0.031 C 
ATOM     24  C   UNL     1       1.936  -0.247  -0.276  0.00  0.00    +0.160 C 
ATOM     25  O   UNL     1       1.424   1.089  -0.141  0.00  0.00    -0.375 OA
ENDBRANCH  20  21
ENDBRANCH  19  20
ENDBRANCH   1  15
BRANCH   1  26
ATOM     26  N   UNL     1       2.396   4.703   4.011  0.00  0.00    +0.397 N 
ATOM     27  H   UNL     1       1.585   5.219   4.371  0.00  0.00    -0.079 HD
BRANCH  26  28
ATOM     28  C   UNL     1       2.190   3.259   4.247  0.00  0.00    -0.041 C 
BRANCH  28  29
ATOM     29  C   UNL     1       0.737   2.935   4.014  0.00  0.00    -0.064 A 
ATOM     30  C   UNL     1      -0.230   3.446   4.860  0.00  0.00    +0.002 A 
ATOM     31  C   UNL     1      -1.563   3.153   4.642  0.00  0.00    +0.000 A 
ATOM     32  C   UNL     1      -1.929   2.340   3.586  0.00  0.00    +0.000 A 
ATOM     33  C   UNL     1      -0.962   1.825   2.743  0.00  0.00    +0.000 A 
ATOM     34  C   UNL     1       0.371   2.122   2.957  0.00  0.00    +0.002 A 
ENDBRANCH  28  29
ENDBRANCH  26  28
BRANCH  26  35
ATOM     35  C   UNL     1       3.611   5.163   4.717  0.00  0.00    -0.001 C 
BRANCH  35  36
ATOM     36  C   UNL     1       3.441   6.619   5.066  0.00  0.00    +0.089 A 
ATOM     37  C   UNL     1       2.784   7.099   6.138  0.00  0.00    +0.042 A 
ATOM     38  C   UNL     1       2.874   8.508   6.075  0.00  0.00    +0.041 A 
ATOM     39  C   UNL     1       3.574   8.805   4.966  0.00  0.00    +0.195 A 
ATOM     40  O   UNL     1       3.915   7.657   4.359  0.00  0.00    -0.470 OA
ENDBRANCH  35  36
ENDBRANCH  26  35
ENDBRANCH   1  26
TORSDOF 9
