REMARK  Name = ZINC06358277
REMARK  9 active torsions:
REMARK  status: ('A' for Active; 'I' for Inactive)
REMARK    1  A    between atoms: C_1  and  C_2
REMARK    2  A    between atoms: C_2  and  C_3
REMARK    3  A    between atoms: C_3  and  C_5
REMARK    4  A    between atoms: C_3  and  N_6
REMARK    5  A    between atoms: C_7  and  C_9
REMARK    6  A    between atoms: C_9  and  S_10
REMARK    7  A    between atoms: S_10  and  C_11
REMARK    8  A    between atoms: C_14  and  C_17
REMARK    9  A    between atoms: N_15  and  N_16
REMARK                            x       y       z     vdW  Elec       q    Type
REMARK                         _______ _______ _______ _____ _____    ______ ____
ROOT
ATOM      1  C   UNL     1      -0.003  -0.824  -1.091  0.00  0.00    +0.209 A 
ATOM      2  N   UNL     1       0.023  -2.061  -0.649  0.00  0.00    -0.121 NA
ATOM      3  N   UNL     1       0.035  -2.071   0.635  0.00  0.00    -0.127 NA
ATOM      4  C   UNL     1       0.024  -0.841   1.094  0.00  0.00    +0.183 A 
ATOM      5  N   UNL     1       0.002  -0.004   0.002  0.00  0.00    -0.224 N 
ENDROOT
BRANCH   4   6
ATOM      6  C   UNL     1       0.033  -0.432   2.514  0.00  0.00    +0.039 A 
ATOM      7  C   UNL     1       0.025   0.921   2.854  0.00  0.00    +0.014 A 
ATOM      8  C   UNL     1       0.029   1.297   4.181  0.00  0.00    +0.021 A 
ATOM      9  C   UNL     1       0.051   0.334   5.176  0.00  0.00    +0.042 A 
ATOM     10  C   UNL     1       0.064  -1.011   4.847  0.00  0.00    +0.040 A 
ATOM     11  C   UNL     1       0.056  -1.399   3.522  0.00  0.00    +0.053 A 
ATOM     12 CL   UNL     1       0.073  -3.086   3.110  0.00  0.00    -0.083 Cl
ATOM     13 CL   UNL     1       0.062   0.815   6.845  0.00  0.00    -0.083 Cl
ENDBRANCH   4   6
BRANCH   5  14
ATOM     14  N   UNL     1      -0.016   1.362   0.009  0.00  0.00    -0.295 N 
ATOM     15  H   UNL     1       0.920   1.736   0.003  0.00  0.00    +0.163 HD
ATOM     16  H   UNL     1      -0.555   1.720  -0.765  0.00  0.00    +0.163 HD
ENDBRANCH   5  14
BRANCH   1  17
ATOM     17  S   UNL     1      -0.035  -0.316  -2.778  0.00  0.00    -0.075 S 
BRANCH  17  18
ATOM     18  C   UNL     1      -0.026  -1.932  -3.593  0.00  0.00    +0.173 C 
BRANCH  18  20
ATOM     19  N   UNL     1      -0.048  -2.814  -5.904  0.00  0.00    -0.312 N 
ATOM     20  C   UNL     1      -0.051  -1.741  -5.087  0.00  0.00    +0.224 C 
ATOM     21  O   UNL     1      -0.073  -0.623  -5.556  0.00  0.00    -0.275 OA
ATOM     22  H   UNL     1      -0.030  -3.708  -5.529  0.00  0.00    +0.149 HD
BRANCH  19  23
ATOM     23  C   UNL     1      -0.073  -2.628  -7.357  0.00  0.00    +0.070 C 
ATOM     24  C   UNL     1       1.354  -2.419  -7.868  0.00  0.00    +0.028 C 
BRANCH  23  26
ATOM     25  C   UNL     1      -2.142  -4.007  -7.604  0.00  0.00    +0.005 C 
ATOM     26  C   UNL     1      -0.675  -3.869  -8.019  0.00  0.00    +0.018 C 
ENDBRANCH  23  26
ENDBRANCH  19  23
ENDBRANCH  18  20
ENDBRANCH  17  18
ENDBRANCH   1  17
TORSDOF 7
