REMARK  Name = ZINC01050684
REMARK  9 active torsions:
REMARK  status: ('A' for Active; 'I' for Inactive)
REMARK    1  A    between atoms: C_1  and  C_2
REMARK    2  A    between atoms: C_2  and  C_4
REMARK    3  A    between atoms: C_4  and  N_5
REMARK    4  A    between atoms: C_15  and  S_16
REMARK    5  A    between atoms: S_16  and  C_17
REMARK    6  A    between atoms: C_17  and  C_18
REMARK    7  A    between atoms: N_20  and  N_21
REMARK    8  A    between atoms: C_22  and  C_23
REMARK    9  A    between atoms: C_28  and  O_29
REMARK                            x       y       z     vdW  Elec       q    Type
REMARK                         _______ _______ _______ _____ _____    ______ ____
ROOT
ATOM      1  S   UNL     1      -0.321  -3.207   1.360  0.00  0.00    -0.078 S 
ENDROOT
BRANCH   1  12
ATOM      2  N   UNL     1      -1.761  -0.929   1.390  0.00  0.00    -0.283 N 
ATOM      3  C   UNL     1      -2.575   0.006   1.932  0.00  0.00    +0.263 A 
ATOM      4  O   UNL     1      -2.930   0.981   1.294  0.00  0.00    -0.267 OA
ATOM      5  C   UNL     1      -3.015  -0.198   3.318  0.00  0.00    +0.065 A 
ATOM      6  C   UNL     1      -3.855   0.707   3.966  0.00  0.00    +0.015 A 
ATOM      7  C   UNL     1      -4.234   0.468   5.258  0.00  0.00    +0.001 A 
ATOM      8  C   UNL     1      -3.793  -0.665   5.930  0.00  0.00    +0.002 A 
ATOM      9  C   UNL     1      -2.969  -1.568   5.319  0.00  0.00    +0.028 A 
ATOM     10  C   UNL     1      -2.563  -1.352   3.999  0.00  0.00    +0.079 A 
ATOM     11  N   UNL     1      -1.752  -2.218   3.358  0.00  0.00    -0.223 NA
ATOM     12  C   UNL     1      -1.377  -2.018   2.119  0.00  0.00    +0.173 A 
BRANCH   2  13
ATOM     13  C   UNL     1      -1.293  -0.775   0.010  0.00  0.00    +0.157 C 
BRANCH  13  15
ATOM     14  C   UNL     1      -0.018   1.503   0.010  0.00  0.00    +0.040 C 
ATOM     15  C   UNL     1       0.002  -0.004   0.002  0.00  0.00    -0.060 C 
ATOM     16  C   UNL     1       1.145  -0.644  -0.012  0.00  0.00    +0.009 C 
ENDBRANCH  13  15
ENDBRANCH   2  13
ENDBRANCH   1  12
BRANCH   1  17
ATOM     17  C   UNL     1      -0.141  -4.384   2.723  0.00  0.00    +0.174 C 
BRANCH  17  18
ATOM     18  C   UNL     1       0.748  -5.521   2.291  0.00  0.00    +0.242 C 
ATOM     19  O   UNL     1       1.215  -5.535   1.171  0.00  0.00    -0.273 OA
ATOM     20  N   UNL     1       1.025  -6.524   3.148  0.00  0.00    -0.206 N 
ATOM     21  H   UNL     1       0.652  -6.513   4.043  0.00  0.00    +0.177 HD
BRANCH  20  22
ATOM     22  N   UNL     1       1.852  -7.581   2.747  0.00  0.00    -0.188 NA
ATOM     23  C   UNL     1       2.119  -8.546   3.572  0.00  0.00    +0.142 C 
BRANCH  23  24
ATOM     24  C   UNL     1       2.989  -9.658   3.150  0.00  0.00    +0.037 A 
ATOM     25  C   UNL     1       3.278 -10.699   4.035  0.00  0.00    +0.028 A 
ATOM     26  C   UNL     1       4.093 -11.737   3.634  0.00  0.00    +0.019 A 
ATOM     27  C   UNL     1       4.626 -11.751   2.355  0.00  0.00    +0.019 A 
ATOM     28  C   UNL     1       4.346 -10.727   1.470  0.00  0.00    +0.047 A 
ATOM     29  C   UNL     1       3.525  -9.680   1.855  0.00  0.00    +0.126 A 
ATOM     30 BR   UNL     1       4.485 -13.145   4.833  0.00  0.00    -0.050 Br
BRANCH  29  31
ATOM     31  O   UNL     1       3.246  -8.677   0.984  0.00  0.00    -0.506 OA
ATOM     32  H   UNL     1       3.873  -7.941   1.018  0.00  0.00    +0.292 HD
ENDBRANCH  29  31
ENDBRANCH  23  24
ENDBRANCH  20  22
ENDBRANCH  17  18
ENDBRANCH   1  17
TORSDOF 8
