REMARK  Name = ZINC13121901
REMARK  3 active torsions:
REMARK  status: ('A' for Active; 'I' for Inactive)
REMARK    1  A    between atoms: C_4  and  C_7
REMARK    2  A    between atoms: C_10  and  C_26
REMARK    3  A    between atoms: C_18  and  C_20
REMARK                            x       y       z     vdW  Elec       q    Type
REMARK                         _______ _______ _______ _____ _____    ______ ____
ROOT
ATOM      1  C   UNL     1       3.711  -0.707  -0.038  0.00  0.00    +0.106 C 
ATOM      2  C   UNL     1       4.019  -1.178  -1.464  0.00  0.00    +0.058 C 
ATOM      3  C   UNL     1       5.382  -1.879  -1.495  0.00  0.00    +0.143 C 
ATOM      4  N   UNL     1       5.432  -2.863  -0.414  0.00  0.00    -0.224 N 
ATOM      5  C   UNL     1       4.609  -2.857   0.662  0.00  0.00    +0.216 A 
ATOM      6  N   UNL     1       4.924  -3.872   1.421  0.00  0.00    -0.180 NA
ATOM      7  C   UNL     1       5.941  -4.548   0.865  0.00  0.00    +0.243 A 
ATOM      8  N   UNL     1       6.280  -3.960  -0.261  0.00  0.00    -0.131 NA
ATOM      9  N   UNL     1       6.542  -5.691   1.397  0.00  0.00    -0.247 N 
ATOM     10  C   UNL     1       6.104  -6.202   2.565  0.00  0.00    +0.286 C 
ATOM     11  O   UNL     1       5.184  -5.667   3.155  0.00  0.00    -0.266 OA
ATOM     12  N   UNL     1       3.630  -1.887   0.844  0.00  0.00    -0.307 N 
ATOM     13  H   UNL     1       7.276  -6.117   0.926  0.00  0.00    +0.158 HD
ATOM     14  H   UNL     1       2.932  -1.982   1.511  0.00  0.00    +0.149 HD
ENDROOT
BRANCH   3  15
ATOM     15  C   UNL     1       5.564  -2.571  -2.821  0.00  0.00    -0.023 A 
ATOM     16  C   UNL     1       4.673  -3.550  -3.217  0.00  0.00    +0.008 A 
ATOM     17  C   UNL     1       4.838  -4.185  -4.434  0.00  0.00    +0.038 A 
ATOM     18  C   UNL     1       5.898  -3.840  -5.255  0.00  0.00    +0.123 A 
ATOM     19  C   UNL     1       6.790  -2.859  -4.858  0.00  0.00    +0.038 A 
ATOM     20  C   UNL     1       6.620  -2.222  -3.643  0.00  0.00    +0.008 A 
ATOM     21  F   UNL     1       6.061  -4.460  -6.444  0.00  0.00    -0.205 F 
ENDBRANCH   3  15
BRANCH   1  25
ATOM     22  C   UNL     1      -0.017   1.378   0.010  0.00  0.00    +0.000 A 
ATOM     23  C   UNL     1       1.171   2.086   0.002  0.00  0.00    +0.000 A 
ATOM     24  C   UNL     1       2.377   1.411  -0.013  0.00  0.00    +0.005 A 
ATOM     25  C   UNL     1       2.396   0.029  -0.020  0.00  0.00    -0.027 A 
ATOM     26  C   UNL     1       1.208  -0.679  -0.012  0.00  0.00    +0.005 A 
ATOM     27  C   UNL     1       0.002  -0.004   0.002  0.00  0.00    +0.000 A 
ENDBRANCH   1  25
BRANCH  10  28
ATOM     28  C   UNL     1       6.735  -7.402   3.123  0.00  0.00    +0.189 A 
ATOM     29  C   UNL     1       6.387  -8.023   4.288  0.00  0.00    +0.054 A 
ATOM     30  C   UNL     1       7.248  -9.122   4.432  0.00  0.00    +0.042 A 
ATOM     31  C   UNL     1       8.074  -9.123   3.362  0.00  0.00    +0.196 A 
ATOM     32  O   UNL     1       7.758  -8.089   2.573  0.00  0.00    -0.458 OA
ENDBRANCH  10  28
TORSDOF 3
