REMARK  Name = ZINC40487599
REMARK  15 active torsions:
REMARK  status: ('A' for Active; 'I' for Inactive)
REMARK    1  A    between atoms: C_1  and  C_2
REMARK    2  A    between atoms: N_4  and  C_5
REMARK    3  A    between atoms: C_7  and  O_42
REMARK    4  A    between atoms: C_9  and  O_41
REMARK    5  A    between atoms: C_11  and  C_39
REMARK    6  A    between atoms: C_14  and  O_16
REMARK    7  A    between atoms: O_16  and  C_17
REMARK    8  A    between atoms: C_20  and  N_36
REMARK    9  A    between atoms: C_22  and  C_23
REMARK   10  A    between atoms: C_23  and  C_25
REMARK   11  A    between atoms: C_26  and  C_27
REMARK   12  A    between atoms: C_30  and  N_33
REMARK   13  A    between atoms: N_33  and  C_34
REMARK   14  A    between atoms: N_33  and  C_35
REMARK   15  A    between atoms: C_39  and  O_40
REMARK                            x       y       z     vdW  Elec       q    Type
REMARK                         _______ _______ _______ _____ _____    ______ ____
ROOT
ATOM      1  C   UNL     1       3.367  -2.337   0.324  0.00  0.00    +0.135 A 
ATOM      2  C   UNL     1       4.131  -2.885  -0.696  0.00  0.00    +0.049 A 
ATOM      3  C   UNL     1       5.493  -3.045  -0.530  0.00  0.00    +0.036 A 
ATOM      4  C   UNL     1       6.106  -2.662   0.652  0.00  0.00    +0.127 A 
ATOM      5  C   UNL     1       5.362  -2.116   1.675  0.00  0.00    +0.048 A 
ATOM      6  C   UNL     1       3.984  -1.942   1.519  0.00  0.00    +0.066 A 
ENDROOT
BRANCH   4   7
ATOM      7  N   UNL     1       7.566  -2.839   0.816  0.00  0.00    +0.056 N 
ATOM      8  O   UNL     1       8.221  -3.318  -0.080  0.00  0.00    -0.126 OA
ATOM      9  O   UNL     1       8.103  -2.505   1.846  0.00  0.00    -0.126 OA
ENDBRANCH   4   7
BRANCH   6  10
ATOM     10  C   UNL     1       3.182  -1.351   2.608  0.00  0.00    +0.190 C 
ATOM     11  O   UNL     1       1.981  -1.205   2.471  0.00  0.00    -0.287 OA
BRANCH  10  12
ATOM     12  C   UNL     1       3.811  -0.952   3.816  0.00  0.00    +0.052 C 
ATOM     13  C   UNL     1       3.076  -0.411   4.814  0.00  0.00    +0.012 C 
BRANCH  13  14
ATOM     14  C   UNL     1       3.727   0.002   6.064  0.00  0.00    -0.025 A 
ATOM     15  C   UNL     1       5.109  -0.159   6.222  0.00  0.00    +0.010 A 
ATOM     16  C   UNL     1       5.710   0.227   7.386  0.00  0.00    +0.023 A 
ATOM     17  C   UNL     1       4.951   0.779   8.415  0.00  0.00    +0.029 A 
ATOM     18  C   UNL     1       3.576   0.940   8.262  0.00  0.00    +0.023 A 
ATOM     19  C   UNL     1       2.967   0.562   7.099  0.00  0.00    +0.010 A 
BRANCH  17  20
ATOM     20  N   UNL     1       5.567   1.170   9.599  0.00  0.00    -0.336 N 
ATOM     21  C   UNL     1       6.989   0.887   9.813  0.00  0.00    +0.129 C 
ATOM     22  C   UNL     1       4.795   1.865  10.632  0.00  0.00    +0.129 C 
ENDBRANCH  17  20
ENDBRANCH  13  14
ENDBRANCH  10  12
ENDBRANCH   6  10
BRANCH   1  23
ATOM     23  O   UNL     1       2.029  -2.179   0.163  0.00  0.00    -0.461 OA
BRANCH  23  29
ATOM     24  C   UNL     1       0.020  -2.127  -1.180  0.00  0.00    +0.173 C 
ATOM     25  C   UNL     1      -0.592  -2.638  -2.488  0.00  0.00    +0.172 C 
ATOM     26  C   UNL     1      -0.479  -4.165  -2.529  0.00  0.00    +0.176 C 
ATOM     27  C   UNL     1       0.991  -4.564  -2.380  0.00  0.00    +0.179 C 
ATOM     28  O   UNL     1       1.507  -4.031  -1.158  0.00  0.00    -0.332 OA
ATOM     29  C   UNL     1       1.471  -2.604  -1.081  0.00  0.00    +0.331 C 
BRANCH  24  33
ATOM     30  C   UNL     1      -0.053   1.505   0.031  0.00  0.00    +0.109 C 
ATOM     31  C   UNL     1      -0.017  -0.002   0.013  0.00  0.00    +0.210 C 
ATOM     32  O   UNL     1       0.011  -0.620   1.056  0.00  0.00    -0.276 OA
ATOM     33  N   UNL     1      -0.015  -0.662  -1.162  0.00  0.00    -0.304 N 
ATOM     34  H   UNL     1      -0.038  -0.167  -1.996  0.00  0.00    +0.149 HD
ENDBRANCH  24  33
BRANCH  26  35
ATOM     35  O   UNL     1      -1.239  -4.729  -1.458  0.00  0.00    -0.387 OA
ATOM     36  H   UNL     1      -1.212  -5.695  -1.423  0.00  0.00    +0.210 HD
ENDBRANCH  26  35
BRANCH  25  37
ATOM     37  O   UNL     1      -1.968  -2.256  -2.553  0.00  0.00    -0.387 OA
ATOM     38  H   UNL     1      -2.419  -2.548  -3.357  0.00  0.00    +0.210 HD
ENDBRANCH  25  37
BRANCH  27  39
ATOM     39  C   UNL     1       1.106  -6.090  -2.360  0.00  0.00    +0.190 C 
BRANCH  39  40
ATOM     40  O   UNL     1       2.486  -6.463  -2.338  0.00  0.00    -0.392 OA
ATOM     41  H   UNL     1       2.634  -7.419  -2.325  0.00  0.00    +0.210 HD
ENDBRANCH  39  40
ENDBRANCH  27  39
ENDBRANCH  23  29
ENDBRANCH   1  23
TORSDOF 12
