REMARK  Name = ZINC11938391
REMARK  7 active torsions:
REMARK  status: ('A' for Active; 'I' for Inactive)
REMARK    1  A    between atoms: C_1  and  N_2
REMARK    2  A    between atoms: C_10  and  C_12
REMARK    3  A    between atoms: C_12  and  N_13
REMARK    4  A    between atoms: C_14  and  C_16
REMARK    5  A    between atoms: C_16  and  C_17
REMARK    6  A    between atoms: C_24  and  C_25
REMARK    7  A    between atoms: C_24  and  N_60
REMARK                            x       y       z     vdW  Elec       q    Type
REMARK                         _______ _______ _______ _____ _____    ______ ____
ROOT
ATOM      1  C   UNL     1      -2.619   0.857  -0.937  0.00  0.00    +0.089 C 
ENDROOT
BRANCH   1   2
ATOM      2  C   UNL     1      -3.973   1.571  -0.946  0.00  0.00    +0.028 C 
ATOM      3  C   UNL     1      -3.959   2.678   0.069  0.00  0.00    +0.200 C 
ATOM      4  O   UNL     1      -3.461   2.466   1.154  0.00  0.00    -0.278 OA
ATOM      5  N   UNL     1      -4.473   3.889  -0.174  0.00  0.00    -0.318 N 
ATOM      6  C   UNL     1      -5.062   4.257  -1.458  0.00  0.00    +0.085 C 
ATOM      7  C   UNL     1      -5.405   2.999  -2.258  0.00  0.00    -0.058 C 
ATOM      8  H   UNL     1      -4.453   4.551   0.534  0.00  0.00    +0.149 HD
ATOM      9  N   UNL     1      -4.208   2.136  -2.288  0.00  0.00    +0.391 N 
ATOM     10  H   UNL     1      -3.395   2.699  -2.562  0.00  0.00    -0.080 HD
BRANCH   9  11
ATOM     11  C   UNL     1      -4.393   1.045  -3.272  0.00  0.00    -0.039 C 
BRANCH  11  12
ATOM     12  C   UNL     1      -4.258   1.613  -4.661  0.00  0.00    -0.029 A 
ATOM     13  C   UNL     1      -5.387   1.886  -5.409  0.00  0.00    +0.004 A 
ATOM     14  C   UNL     1      -5.263   2.412  -6.681  0.00  0.00    +0.000 A 
ATOM     15  C   UNL     1      -4.010   2.656  -7.211  0.00  0.00    +0.003 A 
ATOM     16  C   UNL     1      -2.879   2.378  -6.467  0.00  0.00    +0.038 A 
ATOM     17  C   UNL     1      -3.002   1.856  -5.190  0.00  0.00    +0.125 A 
ATOM     18  F   UNL     1      -1.897   1.584  -4.462  0.00  0.00    -0.205 F 
ENDBRANCH  11  12
ENDBRANCH   9  11
ENDBRANCH   1   2
BRANCH   1  20
ATOM     19  N   UNL     1      -0.247   1.444  -1.319  0.00  0.00    -0.311 N 
ATOM     20  C   UNL     1      -1.540   1.822  -1.355  0.00  0.00    +0.212 C 
ATOM     21  O   UNL     1      -1.835   2.939  -1.725  0.00  0.00    -0.276 OA
ATOM     22  H   UNL     1      -0.011   0.550  -1.023  0.00  0.00    +0.149 HD
BRANCH  19  23
ATOM     23  C   UNL     1       0.802   2.380  -1.731  0.00  0.00    +0.139 C 
BRANCH  23  33
ATOM     24  C   UNL     1       6.056  -0.567   0.174  0.00  0.00    +0.129 C 
ATOM     25  N   UNL     1       5.883  -0.094  -1.206  0.00  0.00    -0.333 N 
ATOM     26  C   UNL     1       6.157  -1.165  -2.166  0.00  0.00    +0.105 C 
ATOM     27  C   UNL     1       5.935  -0.623  -3.583  0.00  0.00    +0.024 C 
ATOM     28  C   UNL     1       4.438  -0.358  -3.757  0.00  0.00    +0.038 C 
ATOM     29  C   UNL     1       3.915   0.399  -2.563  0.00  0.00    -0.026 A 
ATOM     30  C   UNL     1       4.629   0.489  -1.381  0.00  0.00    +0.033 A 
ATOM     31  C   UNL     1       4.088   1.196  -0.305  0.00  0.00    +0.024 A 
ATOM     32  C   UNL     1       2.858   1.809  -0.421  0.00  0.00    +0.007 A 
ATOM     33  C   UNL     1       2.148   1.714  -1.603  0.00  0.00    -0.030 A 
ATOM     34  C   UNL     1       2.677   1.013  -2.669  0.00  0.00    +0.010 A 
ENDBRANCH  23  33
ENDBRANCH  19  23
ENDBRANCH   1  20
TORSDOF 6
