REMARK  Name = ZINC09490702
REMARK  8 active torsions:
REMARK  status: ('A' for Active; 'I' for Inactive)
REMARK    1  A    between atoms: C_1  and  C_2
REMARK    2  A    between atoms: C_7  and  N_12
REMARK    3  A    between atoms: C_9  and  C_11
REMARK    4  A    between atoms: C_13  and  C_15
REMARK    5  A    between atoms: C_23  and  C_33
REMARK    6  A    between atoms: N_29  and  C_30
REMARK    7  A    between atoms: C_30  and  C_31
REMARK    8  A    between atoms: N_35  and  C_36
REMARK                            x       y       z     vdW  Elec       q    Type
REMARK                         _______ _______ _______ _____ _____    ______ ____
ROOT
ATOM      1  C   UNL     1       1.155   1.751   0.228  0.00  0.00    +0.199 C 
ATOM      2  C   UNL     1       1.343   2.221  -1.181  0.00  0.00    +0.127 C 
ATOM      3  C   UNL     1       1.238   1.097  -2.196  0.00  0.00    +0.009 C 
ATOM      4  C   UNL     1       1.415   1.665  -3.380  0.00  0.00    +0.004 C 
ATOM      5  C   UNL     1       1.692   3.143  -3.075  0.00  0.00    +0.155 C 
ATOM      6  O   UNL     1       0.853   3.352  -1.863  0.00  0.00    -0.358 OA
ATOM      7  C   UNL     1       3.146   3.089  -2.465  0.00  0.00    +0.123 C 
ATOM      8  C   UNL     1       2.861   2.646  -1.053  0.00  0.00    +0.128 C 
ATOM      9  C   UNL     1       3.408   1.463  -0.365  0.00  0.00    +0.224 C 
ATOM     10  O   UNL     1       4.515   0.990  -0.512  0.00  0.00    -0.275 OA
ATOM     11  N   UNL     1       2.424   0.997   0.474  0.00  0.00    -0.283 N 
ENDROOT
BRANCH   1  13
ATOM     12  N   UNL     1      -1.268   1.363   0.537  0.00  0.00    -0.311 N 
ATOM     13  C   UNL     1      -0.042   0.842   0.338  0.00  0.00    +0.237 C 
ATOM     14  O   UNL     1       0.099  -0.359   0.242  0.00  0.00    -0.274 OA
ATOM     15  H   UNL     1      -1.380   2.324   0.614  0.00  0.00    +0.149 HD
BRANCH  12  21
ATOM     16  C   UNL     1      -6.170   1.097  -0.050  0.00  0.00    +0.008 C 
ATOM     17  C   UNL     1      -4.909   0.327   0.346  0.00  0.00    -0.009 C 
ATOM     18  C   UNL     1      -5.048  -0.172   1.786  0.00  0.00    +0.003 C 
ATOM     19  C   UNL     1      -3.787  -0.943   2.182  0.00  0.00    +0.002 C 
ATOM     20  C   UNL     1      -2.571  -0.020   2.077  0.00  0.00    +0.022 C 
ATOM     21  C   UNL     1      -2.432   0.479   0.638  0.00  0.00    +0.076 C 
ATOM     22  C   UNL     1      -3.693   1.250   0.241  0.00  0.00    +0.009 C 
ATOM     23  C   UNL     1      -3.877   2.444   1.180  0.00  0.00    +0.009 C 
ENDBRANCH  12  21
ENDBRANCH   1  13
BRANCH   7  24
ATOM     24  C   UNL     1       3.999   2.078  -3.188  0.00  0.00    +0.224 C 
ATOM     25  O   UNL     1       3.942   0.906  -2.879  0.00  0.00    -0.275 OA
ATOM     26  N   UNL     1       4.824   2.475  -4.176  0.00  0.00    -0.285 N 
ATOM     27  H   UNL     1       4.925   3.420  -4.373  0.00  0.00    +0.155 HD
BRANCH  26  28
ATOM     28  C   UNL     1       5.535   1.525  -4.918  0.00  0.00    +0.033 A 
ATOM     29  C   UNL     1       6.010   0.375  -4.303  0.00  0.00    +0.025 A 
ATOM     30  C   UNL     1       6.708  -0.563  -5.038  0.00  0.00    +0.022 A 
ATOM     31  C   UNL     1       6.942  -0.352  -6.386  0.00  0.00    +0.041 A 
ATOM     32  C   UNL     1       6.475   0.796  -7.001  0.00  0.00    +0.022 A 
ATOM     33  C   UNL     1       5.772   1.734  -6.271  0.00  0.00    +0.025 A 
ATOM     34 CL   UNL     1       7.825  -1.530  -7.306  0.00  0.00    -0.084 Cl
ENDBRANCH  26  28
ENDBRANCH   7  24
BRANCH  11  35
ATOM     35  C   UNL     1       2.592  -0.074   1.459  0.00  0.00    +0.135 C 
BRANCH  35  36
ATOM     36  C   UNL     1       2.916   0.525   2.803  0.00  0.00    -0.016 C 
ATOM     37  C   UNL     1       2.168   0.245   3.842  0.00  0.00    +0.005 C 
ENDBRANCH  35  36
ENDBRANCH  11  35
TORSDOF 6
