REMARK  Name = ZINC12367295
REMARK  9 active torsions:
REMARK  status: ('A' for Active; 'I' for Inactive)
REMARK    1  A    between atoms: C_1  and  C_2
REMARK    2  A    between atoms: C_2  and  C_3
REMARK    3  A    between atoms: C_2  and  C_4
REMARK    4  A    between atoms: C_2  and  O_25
REMARK    5  A    between atoms: C_5  and  C_6
REMARK    6  A    between atoms: C_9  and  C_12
REMARK    7  A    between atoms: N_13  and  O_14
REMARK    8  A    between atoms: O_14  and  C_15
REMARK    9  A    between atoms: N_17  and  C_18
REMARK                            x       y       z     vdW  Elec       q    Type
REMARK                         _______ _______ _______ _____ _____    ______ ____
ROOT
ATOM      1  C   UNL     1       0.253   0.746   0.418  0.00  0.00    +0.161 C 
ATOM      2  N   UNL     1       0.692  -0.471   0.358  0.00  0.00    -0.081 NA
ENDROOT
BRANCH   1   6
ATOM      3  C   UNL     1       2.995   3.989   0.531  0.00  0.00    +0.025 A 
ATOM      4  C   UNL     1       3.460   2.677   0.649  0.00  0.00    +0.017 A 
ATOM      5  C   UNL     1       2.572   1.626   0.613  0.00  0.00    +0.011 A 
ATOM      6  C   UNL     1       1.205   1.872   0.458  0.00  0.00    -0.004 A 
ATOM      7  C   UNL     1       0.741   3.184   0.334  0.00  0.00    +0.011 A 
ATOM      8  C   UNL     1       1.628   4.235   0.376  0.00  0.00    +0.017 A 
BRANCH   3  10
ATOM      9  C   UNL     1       4.676   5.979   0.601  0.00  0.00    -0.063 C 
ATOM     10  C   UNL     1       3.919   5.082   0.569  0.00  0.00    -0.063 C 
BRANCH   9  12
ATOM     11  C   UNL     1       4.864   8.420   0.490  0.00  0.00    +0.055 C 
ATOM     12  C   UNL     1       5.626   7.102   0.640  0.00  0.00    +0.121 C 
ATOM     13  C   UNL     1       6.372   7.093   1.976  0.00  0.00    +0.055 C 
BRANCH  12  14
ATOM     14  O   UNL     1       6.564   6.971  -0.430  0.00  0.00    -0.377 OA
ATOM     15  H   UNL     1       7.084   6.156  -0.400  0.00  0.00    +0.211 HD
ENDBRANCH  12  14
ENDBRANCH   9  12
ENDBRANCH   3  10
ENDBRANCH   1   6
BRANCH   2  16
ATOM     16  O   UNL     1       1.879  -0.682   0.189  0.00  0.00    -0.299 OA
BRANCH  16  17
ATOM     17  C   UNL     1       2.270  -1.970   0.136  0.00  0.00    +0.430 C 
ATOM     18  O   UNL     1       1.449  -2.858   0.256  0.00  0.00    -0.224 OA
ATOM     19  N   UNL     1       3.570  -2.273  -0.049  0.00  0.00    -0.249 N 
ATOM     20  H   UNL     1       4.235  -1.567  -0.061  0.00  0.00    +0.158 HD
BRANCH  19  21
ATOM     21  C   UNL     1       3.959  -3.606  -0.223  0.00  0.00    +0.037 A 
ATOM     22  C   UNL     1       5.180  -4.044   0.273  0.00  0.00    +0.025 A 
ATOM     23  C   UNL     1       5.560  -5.361   0.104  0.00  0.00    +0.022 A 
ATOM     24  C   UNL     1       4.730  -6.241  -0.569  0.00  0.00    +0.041 A 
ATOM     25  C   UNL     1       3.516  -5.806  -1.069  0.00  0.00    +0.022 A 
ATOM     26  C   UNL     1       3.129  -4.491  -0.898  0.00  0.00    +0.025 A 
ATOM     27 CL   UNL     1       5.213  -7.895  -0.785  0.00  0.00    -0.084 Cl
ENDBRANCH  19  21
ENDBRANCH  16  17
ENDBRANCH   2  16
TORSDOF 7
