REMARK  Name = ZINC12768469
REMARK  5 active torsions:
REMARK  status: ('A' for Active; 'I' for Inactive)
REMARK    1  A    between atoms: C_1  and  C_2
REMARK    2  A    between atoms: C_2  and  C_18
REMARK    3  A    between atoms: N_5  and  C_9
REMARK    4  A    between atoms: C_9  and  C_10
REMARK    5  A    between atoms: C_13  and  C_16
REMARK                            x       y       z     vdW  Elec       q    Type
REMARK                         _______ _______ _______ _____ _____    ______ ____
ROOT
ATOM      1  C   UNL     1       0.964   8.389  -3.680  0.00  0.00    +0.047 C 
ATOM      2  C   UNL     1       0.508   6.953  -3.414  0.00  0.00    +0.135 C 
ATOM      3  C   UNL     1       1.009   6.476  -2.065  0.00  0.00    +0.251 C 
ATOM      4  O   UNL     1       2.163   6.366  -1.709  0.00  0.00    -0.272 OA
ATOM      5  N   UNL     1      -0.095   6.200  -1.344  0.00  0.00    -0.220 N 
ATOM      6  C   UNL     1      -1.212   6.440  -2.040  0.00  0.00    +0.310 C 
ATOM      7  O   UNL     1      -2.333   6.270  -1.600  0.00  0.00    -0.252 OA
ATOM      8  N   UNL     1      -0.957   6.890  -3.282  0.00  0.00    -0.281 N 
ATOM      9  H   UNL     1      -1.611   7.128  -3.958  0.00  0.00    +0.152 HD
ENDROOT
BRANCH   2  10
ATOM     10  C   UNL     1       0.981   6.037  -4.513  0.00  0.00    -0.015 A 
ATOM     11  C   UNL     1       2.235   5.436  -4.414  0.00  0.00    +0.007 A 
ATOM     12  C   UNL     1       2.689   4.599  -5.387  0.00  0.00    +0.009 A 
ATOM     13  C   UNL     1       1.890   4.344  -6.514  0.00  0.00    -0.018 A 
ATOM     14  C   UNL     1       2.328   3.490  -7.541  0.00  0.00    +0.008 A 
ATOM     15  C   UNL     1       1.526   3.266  -8.618  0.00  0.00    +0.001 A 
ATOM     16  C   UNL     1       0.275   3.872  -8.720  0.00  0.00    +0.001 A 
ATOM     17  C   UNL     1      -0.182   4.703  -7.744  0.00  0.00    +0.008 A 
ATOM     18  C   UNL     1       0.617   4.959  -6.617  0.00  0.00    -0.018 A 
ATOM     19  C   UNL     1       0.180   5.813  -5.590  0.00  0.00    +0.014 A 
ENDBRANCH   2  10
BRANCH   5  20
ATOM     20  C   UNL     1      -0.075   5.704   0.035  0.00  0.00    +0.153 C 
BRANCH  20  21
ATOM     21  C   UNL     1      -0.055   4.197   0.026  0.00  0.00    -0.029 A 
ATOM     22  C   UNL     1       1.154   3.525   0.010  0.00  0.00    +0.006 A 
ATOM     23  C   UNL     1       1.180   2.146   0.002  0.00  0.00    +0.019 A 
ATOM     24  C   UNL     1      -0.017   1.428   0.010  0.00  0.00    +0.052 A 
ATOM     25  C   UNL     1      -1.234   2.113   0.019  0.00  0.00    +0.019 A 
ATOM     26  C   UNL     1      -1.246   3.492   0.033  0.00  0.00    +0.006 A 
BRANCH  24  27
ATOM     27  C   UNL     1       0.002  -0.004   0.002  0.00  0.00    +0.099 C 
ATOM     28  N   UNL     1       0.018  -1.140  -0.004  0.00  0.00    -0.191 NA
ENDBRANCH  24  27
ENDBRANCH  20  21
ENDBRANCH   5  20
TORSDOF 4
