REMARK  Name = ZINC46728381
REMARK  6 active torsions:
REMARK  status: ('A' for Active; 'I' for Inactive)
REMARK    1  A    between atoms: C_9  and  C_12
REMARK    2  A    between atoms: C_12  and  N_13
REMARK    3  A    between atoms: N_16  and  C_17
REMARK    4  A    between atoms: C_17  and  C_18
REMARK    5  A    between atoms: C_18  and  C_20
REMARK    6  A    between atoms: C_18  and  N_25
REMARK                            x       y       z     vdW  Elec       q    Type
REMARK                         _______ _______ _______ _____ _____    ______ ____
ROOT
ATOM      1  N   UNL     1       6.299  -1.452  -0.155  0.00  0.00    -0.296 N 
ATOM      2  C   UNL     1       7.578  -1.868  -0.240  0.00  0.00    +0.300 C 
ATOM      3  O   UNL     1       7.961  -2.457  -1.232  0.00  0.00    -0.253 OA
ATOM      4  N   UNL     1       8.432  -1.632   0.776  0.00  0.00    -0.301 N 
ATOM      5  H   UNL     1       5.993  -0.983   0.637  0.00  0.00    +0.150 HD
ATOM      6  H   UNL     1       8.126  -1.163   1.568  0.00  0.00    +0.150 HD
ENDROOT
BRANCH   1   7
ATOM      7  C   UNL     1       5.370  -1.708  -1.259  0.00  0.00    +0.153 C 
BRANCH   7  16
ATOM      8  C   UNL     1       0.497   2.368  -0.811  0.00  0.00    +0.004 A 
ATOM      9  C   UNL     1       1.664   2.983  -0.397  0.00  0.00    +0.004 A 
ATOM     10  C   UNL     1       2.856   2.284  -0.406  0.00  0.00    +0.049 A 
ATOM     11  C   UNL     1       2.885   0.964  -0.830  0.00  0.00    +0.163 A 
ATOM     12  C   UNL     1       1.712   0.345  -1.244  0.00  0.00    +0.162 A 
ATOM     13  C   UNL     1       0.518   1.052  -1.234  0.00  0.00    +0.049 A 
ATOM     14  O   UNL     1       1.716  -0.951  -1.657  0.00  0.00    -0.485 OA
ATOM     15  C   UNL     1       2.987  -1.511  -2.007  0.00  0.00    +0.275 C 
ATOM     16  C   UNL     1       3.994  -1.137  -0.911  0.00  0.00    +0.228 C 
ATOM     17  O   UNL     1       4.068   0.291  -0.838  0.00  0.00    -0.480 OA
ENDBRANCH   7  16
ENDBRANCH   1   7
BRANCH   4  18
ATOM     18  C   UNL     1       9.822  -2.085   0.684  0.00  0.00    +0.098 C 
BRANCH  18  19
ATOM     19  C   UNL     1      10.604  -1.581   1.898  0.00  0.00    +0.016 C 
BRANCH  19  20
ATOM     20  N   UNL     1      10.503  -0.117   1.973  0.00  0.00    +0.387 N 
ATOM     21  C   UNL     1      10.958   0.468   0.706  0.00  0.00    -0.078 C 
ATOM     22  C   UNL     1      10.779   1.987   0.748  0.00  0.00    -0.019 C 
ATOM     23  C   UNL     1      11.604   2.562   1.903  0.00  0.00    -0.004 C 
ATOM     24  C   UNL     1      11.172   1.890   3.209  0.00  0.00    -0.019 C 
ATOM     25  C   UNL     1      11.337   0.374   3.076  0.00  0.00    -0.078 C 
ATOM     26  H   UNL     1       9.543   0.145   2.136  0.00  0.00    -0.081 HD
ENDBRANCH  19  20
BRANCH  19  27
ATOM     27  C   UNL     1      12.052  -1.978   1.764  0.00  0.00    +0.093 A 
ATOM     28  C   UNL     1      12.680  -2.920   2.491  0.00  0.00    +0.043 A 
ATOM     29  C   UNL     1      14.018  -2.963   2.037  0.00  0.00    +0.041 A 
ATOM     30  C   UNL     1      14.128  -2.046   1.059  0.00  0.00    +0.195 A 
ATOM     31  O   UNL     1      12.932  -1.456   0.894  0.00  0.00    -0.469 OA
ENDBRANCH  19  27
ENDBRANCH  18  19
ENDBRANCH   4  18
TORSDOF 6
