REMARK  Name = ZINC16562982
REMARK  13 active torsions:
REMARK  status: ('A' for Active; 'I' for Inactive)
REMARK    1  A    between atoms: C_1  and  C_2
REMARK    2  A    between atoms: C_2  and  N_60
REMARK    3  A    between atoms: C_3  and  C_4
REMARK    4  A    between atoms: C_3  and  N_60
REMARK    5  A    between atoms: N_6  and  C_7
REMARK    6  A    between atoms: C_7  and  C_8
REMARK    7  A    between atoms: C_13  and  C_14
REMARK    8  A    between atoms: C_13  and  N_60
REMARK    9  A    between atoms: N_16  and  C_17
REMARK   10  A    between atoms: C_18  and  C_28
REMARK   11  A    between atoms: C_23  and  C_27
REMARK   12  A    between atoms: C_28  and  O_30
REMARK   13  A    between atoms: O_30  and  C_31
REMARK                            x       y       z     vdW  Elec       q    Type
REMARK                         _______ _______ _______ _____ _____    ______ ____
ROOT
ATOM      1  C   UNL     1      -3.574  -6.206   0.401  0.00  0.00    +0.201 C 
ATOM      2  O   UNL     1      -4.314  -5.313   0.047  0.00  0.00    -0.278 OA
ATOM      3  N   UNL     1      -2.297  -5.930   0.734  0.00  0.00    -0.281 N 
ATOM      4  H   UNL     1      -1.705  -6.644   1.017  0.00  0.00    +0.155 HD
ENDROOT
BRANCH   3   5
ATOM      5  C   UNL     1      -1.831  -4.626   0.672  0.00  0.00    +0.086 A 
ATOM      6  C   UNL     1      -0.562  -4.148   0.972  0.00  0.00    +0.091 A 
ATOM      7  C   UNL     1      -0.330  -2.721   0.822  0.00  0.00    -0.021 A 
ATOM      8  C   UNL     1      -1.395  -2.006   0.399  0.00  0.00    -0.004 A 
ATOM      9  S   UNL     1      -2.690  -3.197   0.200  0.00  0.00    -0.077 S 
ATOM     10  C   UNL     1      -1.452  -0.530   0.155  0.00  0.00    +0.046 C 
ATOM     11  C   UNL     1      -0.014   0.007   0.096  0.00  0.00    -0.009 C 
ATOM     12  C   UNL     1       0.767  -0.544   1.292  0.00  0.00    +0.008 C 
ATOM     13  C   UNL     1       1.005  -2.045   1.112  0.00  0.00    +0.037 C 
ATOM     14  C   UNL     1      -0.034   1.535   0.157  0.00  0.00    +0.008 C 
BRANCH   6  15
ATOM     15  C   UNL     1       0.502  -5.048   1.422  0.00  0.00    +0.342 C 
ATOM     16  O   UNL     1       0.650  -5.269   2.609  0.00  0.00    -0.245 OA
BRANCH  15  17
ATOM     17  O   UNL     1       1.318  -5.632   0.521  0.00  0.00    -0.464 OA
ATOM     18  C   UNL     1       2.350  -6.512   1.038  0.00  0.00    +0.280 C 
ENDBRANCH  15  17
ENDBRANCH   6  15
ENDBRANCH   3   5
BRANCH   1  19
ATOM     19  C   UNL     1      -4.080  -7.623   0.468  0.00  0.00    +0.020 C 
BRANCH  19  20
ATOM     20  N   UNL     1      -5.527  -7.623   0.167  0.00  0.00    +0.391 N 
ATOM     21  H   UNL     1      -5.967  -6.826   0.641  0.00  0.00    -0.080 HD
BRANCH  20  23
ATOM     22  C   UNL     1      -6.338  -8.765   2.170  0.00  0.00    -0.017 C 
ATOM     23  C   UNL     1      -6.145  -8.874   0.656  0.00  0.00    -0.081 C 
ENDBRANCH  20  23
BRANCH  20  24
ATOM     24  C   UNL     1      -5.740  -7.492  -1.290  0.00  0.00    +0.019 C 
BRANCH  24  25
ATOM     25  C   UNL     1      -7.208  -7.273  -1.549  0.00  0.00    +0.197 C 
ATOM     26  O   UNL     1      -7.991  -7.249  -0.623  0.00  0.00    -0.278 OA
ATOM     27  N   UNL     1      -7.652  -7.106  -2.811  0.00  0.00    -0.312 N 
ATOM     28  H   UNL     1      -7.027  -7.126  -3.552  0.00  0.00    +0.149 HD
BRANCH  27  29
ATOM     29  C   UNL     1      -9.080  -6.894  -3.063  0.00  0.00    +0.146 C 
BRANCH  29  30
ATOM     30  C   UNL     1      -9.311  -6.736  -4.544  0.00  0.00    +0.007 A 
ATOM     31  C   UNL     1      -9.575  -7.686  -5.473  0.00  0.00    +0.013 A 
ATOM     32  C   UNL     1      -9.756  -7.306  -6.789  0.00  0.00    +0.008 A 
ATOM     33  C   UNL     1      -9.654  -5.994  -7.114  0.00  0.00    +0.045 A 
ATOM     34  S   UNL     1      -9.299  -5.248  -5.531  0.00  0.00    -0.100 S 
ENDBRANCH  29  30
ENDBRANCH  27  29
ENDBRANCH  24  25
ENDBRANCH  20  24
ENDBRANCH  19  20
ENDBRANCH   1  19
TORSDOF 10
