REMARK  Name = ZINC14544886
REMARK  2 active torsions:
REMARK  status: ('A' for Active; 'I' for Inactive)
REMARK    1  A    between atoms: C_7  and  C_11
REMARK    2  A    between atoms: C_24  and  C_27
REMARK                            x       y       z     vdW  Elec       q    Type
REMARK                         _______ _______ _______ _____ _____    ______ ____
ROOT
ATOM      1  C   UNL     1       2.640   1.264   0.193  0.00  0.00    +0.107 C 
ATOM      2  C   UNL     1       3.128   1.003  -1.217  0.00  0.00    +0.029 C 
ATOM      3  C   UNL     1       2.432  -0.096  -2.027  0.00  0.00    +0.033 C 
ATOM      4  C   UNL     1       2.603   0.424  -3.457  0.00  0.00    -0.030 C 
ATOM      5  C   UNL     1       2.721   1.747  -3.446  0.00  0.00    -0.023 C 
ATOM      6  C   UNL     1       2.605   2.219  -2.045  0.00  0.00    +0.049 C 
ATOM      7  C   UNL     1       3.314   3.414  -1.540  0.00  0.00    -0.019 A 
ATOM      8  C   UNL     1       3.631   4.471  -2.365  0.00  0.00    +0.006 A 
ATOM      9  C   UNL     1       4.278   5.591  -1.869  0.00  0.00    +0.001 A 
ATOM     10  C   UNL     1       4.609   5.656  -0.533  0.00  0.00    +0.015 A 
ATOM     11  C   UNL     1       4.301   4.595   0.315  0.00  0.00    +0.058 A 
ATOM     12  C   UNL     1       3.653   3.446  -0.184  0.00  0.00    +0.044 A 
ATOM     13  N   UNL     1       3.398   2.416   0.707  0.00  0.00    -0.336 N 
ATOM     14  H   UNL     1       4.245   2.117   1.165  0.00  0.00    +0.147 HD
ENDROOT
BRANCH   1  21
ATOM     15  C   UNL     1      -1.220  -1.389   0.365  0.00  0.00    +0.001 A 
ATOM     16  C   UNL     1      -2.391  -0.644   0.322  0.00  0.00    +0.002 A 
ATOM     17  C   UNL     1      -2.346   0.730   0.236  0.00  0.00    +0.026 A 
ATOM     18  C   UNL     1      -1.117   1.380   0.194  0.00  0.00    +0.047 A 
ATOM     19  C   UNL     1       0.066   0.621   0.238  0.00  0.00    +0.005 A 
ATOM     20  C   UNL     1      -0.002  -0.771   0.324  0.00  0.00    +0.010 A 
ATOM     21  C   UNL     1       1.168   1.584   0.176  0.00  0.00    -0.002 A 
ATOM     22  C   UNL     1       0.617   2.806   0.103  0.00  0.00    +0.089 A 
ATOM     23  N   UNL     1      -0.748   2.704   0.112  0.00  0.00    -0.360 N 
ATOM     24  H   UNL     1      -1.363   3.452   0.064  0.00  0.00    +0.165 HD
ENDBRANCH   1  21
BRANCH  11  25
ATOM     25  C   UNL     1       4.654   4.674   1.744  0.00  0.00    +0.248 C 
ATOM     26  O   UNL     1       3.828   4.393   2.591  0.00  0.00    -0.270 OA
ATOM     27  N   UNL     1       5.892   5.058   2.112  0.00  0.00    -0.297 N 
ATOM     28  C   UNL     1       6.954   5.514   1.203  0.00  0.00    +0.108 C 
ATOM     29  C   UNL     1       8.196   5.822   2.066  0.00  0.00    +0.020 C 
ATOM     30  C   UNL     1       7.947   4.976   3.342  0.00  0.00    +0.020 C 
ATOM     31  C   UNL     1       6.409   5.084   3.493  0.00  0.00    +0.108 C 
ENDBRANCH  11  25
TORSDOF 2
