REMARK  Name = ZINC26786732
REMARK  8 active torsions:
REMARK  status: ('A' for Active; 'I' for Inactive)
REMARK    1  A    between atoms: C_1  and  O_2
REMARK    2  A    between atoms: O_2  and  C_3
REMARK    3  A    between atoms: C_6  and  S_9
REMARK    4  A    between atoms: S_9  and  N_12
REMARK    5  A    between atoms: C_15  and  N_24
REMARK    6  A    between atoms: N_24  and  N_25
REMARK    7  A    between atoms: C_26  and  C_28
REMARK    8  A    between atoms: C_32  and  N_34
REMARK                            x       y       z     vdW  Elec       q    Type
REMARK                         _______ _______ _______ _____ _____    ______ ____
ROOT
ATOM      1  N   UNL     1      -9.888   5.163   0.080  0.00  0.00    -0.129 NA
ATOM      2  C   UNL     1      -9.920   3.858   0.147  0.00  0.00    +0.091 C 
ATOM      3  C   UNL     1      -8.667   3.095   0.114  0.00  0.00    +0.058 C 
ATOM      4  C   UNL     1      -8.703   1.746   0.184  0.00  0.00    +0.094 C 
ATOM      5  C   UNL     1      -9.999   1.053   0.288  0.00  0.00    +0.205 C 
ATOM      6  O   UNL     1     -10.032  -0.162   0.348  0.00  0.00    -0.286 OA
ATOM      7  C   UNL     1     -11.255   1.821   0.326  0.00  0.00    +0.010 C 
ATOM      8  C   UNL     1     -11.221   3.158   0.256  0.00  0.00    -0.010 C 
ATOM      9  C   UNL     1     -12.478   3.984   0.284  0.00  0.00    +0.064 C 
ATOM     10  C   UNL     1     -13.615   3.232   0.902  0.00  0.00    -0.026 C 
ATOM     11  C   UNL     1     -13.648   1.938   0.971  0.00  0.00    -0.026 C 
ATOM     12  C   UNL     1     -12.552   1.069   0.438  0.00  0.00    +0.066 C 
ENDROOT
BRANCH   1  13
ATOM     13  S   UNL     1     -11.077   5.980  -0.732  0.00  0.00    +0.099 S 
ATOM     14  O   UNL     1     -11.533   5.115  -1.763  0.00  0.00    -0.146 OA
ATOM     15  O   UNL     1     -11.949   6.515   0.254  0.00  0.00    -0.146 OA
BRANCH  13  19
ATOM     16  C   UNL     1      -9.116   9.511  -2.780  0.00  0.00    +0.120 A 
ATOM     17  C   UNL     1      -9.216   8.294  -3.438  0.00  0.00    +0.047 A 
ATOM     18  C   UNL     1      -9.815   7.219  -2.811  0.00  0.00    +0.032 A 
ATOM     19  C   UNL     1     -10.314   7.354  -1.529  0.00  0.00    +0.113 A 
ATOM     20  C   UNL     1     -10.220   8.568  -0.873  0.00  0.00    +0.032 A 
ATOM     21  C   UNL     1      -9.617   9.645  -1.493  0.00  0.00    +0.047 A 
BRANCH  16  23
ATOM     22  C   UNL     1      -8.460  11.793  -2.656  0.00  0.00    +0.277 C 
ATOM     23  O   UNL     1      -8.528  10.572  -3.394  0.00  0.00    -0.495 OA
ENDBRANCH  16  23
ENDBRANCH  13  19
ENDBRANCH   1  13
BRANCH   4  24
ATOM     24  N   UNL     1      -7.522   1.015   0.153  0.00  0.00    -0.261 N 
ATOM     25  H   UNL     1      -7.553  -0.083   0.210  0.00  0.00    +0.170 HD
BRANCH  24  26
ATOM     26  N   UNL     1      -6.291   1.676   0.049  0.00  0.00    -0.232 N 
ATOM     27  C   UNL     1      -5.146   0.967   0.018  0.00  0.00    +0.260 C 
ATOM     28  O   UNL     1      -5.180  -0.247   0.082  0.00  0.00    -0.269 OA
ATOM     29  H   UNL     1      -6.260   2.774  -0.009  0.00  0.00    +0.173 HD
BRANCH  27  30
ATOM     30  C   UNL     1      -3.847   1.664  -0.092  0.00  0.00    +0.040 A 
ATOM     31  C   UNL     1      -3.803   3.058  -0.165  0.00  0.00    +0.013 A 
ATOM     32  C   UNL     1      -2.588   3.703  -0.267  0.00  0.00    +0.003 A 
ATOM     33  C   UNL     1      -1.414   2.971  -0.293  0.00  0.00    +0.033 A 
ATOM     34  C   UNL     1      -1.450   1.590  -0.227  0.00  0.00    +0.127 A 
ATOM     35  C   UNL     1      -2.659   0.933  -0.124  0.00  0.00    +0.045 A 
BRANCH  34  36
ATOM     36  N   UNL     1      -0.189   0.816  -0.260  0.00  0.00    +0.056 N 
ATOM     37  O   UNL     1      -0.219  -0.400  -0.196  0.00  0.00    -0.126 OA
ATOM     38  O   UNL     1       0.879   1.395  -0.355  0.00  0.00    -0.126 OA
ENDBRANCH  34  36
ENDBRANCH  27  30
ENDBRANCH  24  26
ENDBRANCH   4  24
TORSDOF 7
