REMARK  Name = ZINC36595254
REMARK  13 active torsions:
REMARK  status: ('A' for Active; 'I' for Inactive)
REMARK    1  A    between atoms: C_1  and  C_2
REMARK    2  A    between atoms: C_5  and  C_7
REMARK    3  A    between atoms: C_7  and  N_8
REMARK    4  A    between atoms: N_8  and  C_9
REMARK    5  A    between atoms: C_9  and  C_11
REMARK    6  A    between atoms: C_9  and  C_18
REMARK    7  A    between atoms: C_14  and  O_17
REMARK    8  A    between atoms: N_20  and  C_21
REMARK    9  A    between atoms: C_21  and  C_22
REMARK   10  A    between atoms: C_21  and  C_23
REMARK   11  A    between atoms: C_21  and  C_24
REMARK   12  A    between atoms: C_25  and  C_27
REMARK   13  A    between atoms: C_32  and  O_33
REMARK                            x       y       z     vdW  Elec       q    Type
REMARK                         _______ _______ _______ _____ _____    ______ ____
ROOT
ATOM      1  N   UNL     1       2.932  -4.771  -0.843  0.00  0.00    -0.275 N 
ATOM      2  C   UNL     1       1.769  -4.771  -0.161  0.00  0.00    +0.251 C 
ATOM      3  O   UNL     1       0.954  -5.653  -0.349  0.00  0.00    -0.270 OA
ENDROOT
BRANCH   2   4
ATOM      4  C   UNL     1       1.486  -3.700   0.814  0.00  0.00    +0.078 A 
ATOM      5  C   UNL     1       1.567  -2.360   0.428  0.00  0.00    +0.017 A 
ATOM      6  C   UNL     1       1.301  -1.365   1.343  0.00  0.00    +0.001 A 
ATOM      7  C   UNL     1       0.952  -1.687   2.645  0.00  0.00    +0.004 A 
ATOM      8  C   UNL     1       0.868  -3.007   3.039  0.00  0.00    +0.046 A 
ATOM      9  C   UNL     1       1.128  -4.022   2.130  0.00  0.00    +0.129 A 
BRANCH   9  10
ATOM     10  O   UNL     1       1.040  -5.320   2.515  0.00  0.00    -0.506 OA
ATOM     11  H   UNL     1       1.867  -5.684   2.861  0.00  0.00    +0.292 HD
ENDBRANCH   9  10
ENDBRANCH   2   4
BRANCH   1  12
ATOM     12  C   UNL     1       3.266  -5.895  -1.720  0.00  0.00    +0.183 C 
BRANCH  12  17
ATOM     13  C   UNL     1       4.742  -9.661   1.293  0.00  0.00    +0.086 C 
ATOM     14  C   UNL     1       3.890  -8.813   0.384  0.00  0.00    +0.102 A 
ATOM     15  C   UNL     1       2.631  -9.092   0.001  0.00  0.00    +0.045 A 
ATOM     16  C   UNL     1       2.217  -8.036  -0.844  0.00  0.00    +0.046 A 
ATOM     17  C   UNL     1       3.248  -7.176  -0.926  0.00  0.00    +0.122 A 
ATOM     18  O   UNL     1       4.256  -7.649  -0.175  0.00  0.00    -0.463 OA
ENDBRANCH  12  17
ENDBRANCH   1  12
BRANCH   1  19
ATOM     19  C   UNL     1       3.861  -3.647  -0.706  0.00  0.00    +0.193 C 
BRANCH  19  20
ATOM     20  C   UNL     1       4.088  -3.016  -2.055  0.00  0.00    -0.018 A 
ATOM     21  C   UNL     1       3.203  -3.259  -3.089  0.00  0.00    +0.009 A 
ATOM     22  C   UNL     1       3.409  -2.682  -4.327  0.00  0.00    +0.046 A 
ATOM     23  C   UNL     1       4.506  -1.858  -4.533  0.00  0.00    +0.117 A 
ATOM     24  C   UNL     1       5.393  -1.615  -3.494  0.00  0.00    +0.046 A 
ATOM     25  C   UNL     1       5.179  -2.190  -2.256  0.00  0.00    +0.009 A 
BRANCH  23  26
ATOM     26  O   UNL     1       4.711  -1.290  -5.750  0.00  0.00    -0.507 OA
ATOM     27  H   UNL     1       4.291  -0.425  -5.857  0.00  0.00    +0.292 HD
ENDBRANCH  23  26
ENDBRANCH  19  20
BRANCH  19  28
ATOM     28  C   UNL     1       5.174  -4.144  -0.156  0.00  0.00    +0.239 C 
ATOM     29  O   UNL     1       5.492  -5.305  -0.305  0.00  0.00    -0.273 OA
ATOM     30  N   UNL     1       5.993  -3.299   0.500  0.00  0.00    -0.309 N 
ATOM     31  H   UNL     1       5.738  -2.371   0.619  0.00  0.00    +0.149 HD
BRANCH  30  32
ATOM     32  C   UNL     1       7.269  -3.782   1.034  0.00  0.00    +0.026 C 
ATOM     33  C   UNL     1       8.131  -4.318  -0.111  0.00  0.00    +0.031 C 
ATOM     34  C   UNL     1       8.000  -2.631   1.728  0.00  0.00    +0.031 C 
ATOM     35  C   UNL     1       7.007  -4.903   2.043  0.00  0.00    +0.031 C 
ENDBRANCH  30  32
ENDBRANCH  19  28
ENDBRANCH   1  19
TORSDOF 9
