REMARK  Name = ZINC19690617
REMARK  8 active torsions:
REMARK  status: ('A' for Active; 'I' for Inactive)
REMARK    1  A    between atoms: C_1  and  C_2
REMARK    2  A    between atoms: C_15  and  C_19
REMARK    3  A    between atoms: C_16  and  C_18
REMARK    4  A    between atoms: C_19  and  O_21
REMARK    5  A    between atoms: O_21  and  C_22
REMARK    6  A    between atoms: C_22  and  C_23
REMARK    7  A    between atoms: C_22  and  C_24
REMARK    8  A    between atoms: C_22  and  C_25
REMARK                            x       y       z     vdW  Elec       q    Type
REMARK                         _______ _______ _______ _____ _____    ______ ____
ROOT
ATOM      1  C   UNL     1       2.585  -2.838   1.448  0.00  0.00    +0.061 C 
ATOM      2  C   UNL     1       1.307  -2.137   1.064  0.00  0.00    +0.016 C 
ATOM      3  C   UNL     1       1.306  -0.951   0.425  0.00  0.00    +0.066 C 
ATOM      4  C   UNL     1      -0.024  -0.340   0.015  0.00  0.00    +0.099 C 
ATOM      5  C   UNL     1       0.010   1.141  -0.278  0.00  0.00    +0.007 A 
ATOM      6  C   UNL     1      -1.150   1.873  -0.384  0.00  0.00    +0.008 A 
ATOM      7  C   UNL     1      -1.085   3.232  -0.642  0.00  0.00    +0.001 A 
ATOM      8  C   UNL     1       0.145   3.847  -0.786  0.00  0.00    +0.004 A 
ATOM      9  C   UNL     1       1.309   3.113  -0.681  0.00  0.00    +0.047 A 
ATOM     10  C   UNL     1       1.252   1.747  -0.431  0.00  0.00    +0.136 A 
ATOM     11  O   UNL     1       2.399   1.030  -0.350  0.00  0.00    -0.422 OA
ATOM     12  C   UNL     1       2.477  -0.212   0.160  0.00  0.00    +0.343 C 
ATOM     13  O   UNL     1       3.566  -0.702   0.396  0.00  0.00    -0.245 OA
ATOM     14  C   UNL     1      -0.967  -0.577   1.170  0.00  0.00    +0.065 C 
ATOM     15  C   UNL     1      -0.895  -1.782   1.801  0.00  0.00    +0.016 C 
ATOM     16  N   UNL     1       0.059  -2.675   1.347  0.00  0.00    -0.321 N 
ATOM     17  C   UNL     1      -1.815  -2.127   2.943  0.00  0.00    +0.061 C 
ATOM     18  H   UNL     1      -0.121  -3.751   1.206  0.00  0.00    +0.152 HD
ENDROOT
BRANCH  14  19
ATOM     19  C   UNL     1      -1.887   0.415   1.581  0.00  0.00    +0.338 C 
ATOM     20  O   UNL     1      -1.507   1.361   2.244  0.00  0.00    -0.245 OA
BRANCH  19  21
ATOM     21  O   UNL     1      -3.188   0.311   1.237  0.00  0.00    -0.456 OA
BRANCH  21  22
ATOM     22  C   UNL     1      -4.085   1.276   1.791  0.00  0.00    +0.106 C 
ATOM     23  C   UNL     1      -3.663   2.678   1.345  0.00  0.00    +0.055 C 
ATOM     24  C   UNL     1      -5.506   0.992   1.303  0.00  0.00    +0.055 C 
ATOM     25  C   UNL     1      -4.044   1.193   3.318  0.00  0.00    +0.055 C 
ENDBRANCH  21  22
ENDBRANCH  19  21
ENDBRANCH  14  19
TORSDOF 3
