REMARK  Name = ZINC43527143
REMARK  8 active torsions:
REMARK  status: ('A' for Active; 'I' for Inactive)
REMARK    1  A    between atoms: C_4  and  C_7
REMARK    2  A    between atoms: C_7  and  C_8
REMARK    3  A    between atoms: N_11  and  C_14
REMARK    4  A    between atoms: C_14  and  C_15
REMARK    5  A    between atoms: C_24  and  C_26
REMARK    6  A    between atoms: C_26  and  N_27
REMARK    7  A    between atoms: N_27  and  S_28
REMARK    8  A    between atoms: S_28  and  C_31
REMARK                            x       y       z     vdW  Elec       q    Type
REMARK                         _______ _______ _______ _____ _____    ______ ____
ROOT
ATOM      1  C   UNL     1       8.134  -1.605   4.665  0.00  0.00    -0.041 C 
ATOM      2  C   UNL     1       9.146  -0.715   3.941  0.00  0.00    -0.077 C 
ATOM      3  N   UNL     1      10.285  -0.434   4.818  0.00  0.00    +0.383 N 
ATOM      4  C   UNL     1       9.847   0.285   6.017  0.00  0.00    -0.078 C 
ATOM      5  C   UNL     1       8.858  -0.573   6.810  0.00  0.00    -0.015 C 
ATOM      6  C   UNL     1       8.656  -1.908   6.075  0.00  0.00    -0.015 C 
ATOM      7  C   UNL     1      10.020  -2.599   5.948  0.00  0.00    -0.011 C 
ATOM      8  C   UNL     1      10.973  -1.675   5.183  0.00  0.00    -0.053 C 
ATOM      9  H   UNL     1      10.934   0.157   4.320  0.00  0.00    -0.081 HD
ENDROOT
BRANCH   1  10
ATOM     10  C   UNL     1       6.789  -0.881   4.760  0.00  0.00    -0.077 C 
BRANCH  10  14
ATOM     11  C   UNL     1       4.171  -0.963   1.399  0.00  0.00    -0.010 C 
ATOM     12  C   UNL     1       4.474   0.372   2.086  0.00  0.00    -0.015 C 
ATOM     13  C   UNL     1       5.009   0.105   3.494  0.00  0.00    -0.079 C 
ATOM     14  N   UNL     1       6.237  -0.694   3.412  0.00  0.00    +0.380 N 
ATOM     15  C   UNL     1       5.941  -2.004   2.819  0.00  0.00    -0.079 C 
ATOM     16  C   UNL     1       5.442  -1.818   1.385  0.00  0.00    -0.015 C 
ATOM     17  H   UNL     1       6.913  -0.211   2.838  0.00  0.00    -0.082 HD
BRANCH  11  18
ATOM     18  C   UNL     1       3.711  -0.707  -0.038  0.00  0.00    +0.038 C 
BRANCH  18  22
ATOM     19  C   UNL     1      -0.017   1.378   0.010  0.00  0.00    +0.000 A 
ATOM     20  C   UNL     1       1.171   2.086   0.002  0.00  0.00    +0.000 A 
ATOM     21  C   UNL     1       2.377   1.411  -0.013  0.00  0.00    +0.003 A 
ATOM     22  C   UNL     1       2.396   0.029  -0.020  0.00  0.00    -0.047 A 
ATOM     23  C   UNL     1       1.208  -0.679  -0.012  0.00  0.00    +0.003 A 
ATOM     24  C   UNL     1       0.002  -0.004   0.002  0.00  0.00    +0.000 A 
ENDBRANCH  18  22
ENDBRANCH  11  18
ENDBRANCH  10  14
ENDBRANCH   1  10
BRANCH   8  25
ATOM     25  C   UNL     1      12.180  -1.345   6.064  0.00  0.00    +0.091 C 
BRANCH  25  26
ATOM     26  N   UNL     1      13.039  -0.380   5.375  0.00  0.00    -0.191 NA
ATOM     27  H   UNL     1      12.924  -0.220   4.425  0.00  0.00    +0.148 HD
BRANCH  26  28
ATOM     28  S   UNL     1      14.207   0.438   6.217  0.00  0.00    +0.065 S 
ATOM     29  O   UNL     1      14.879   1.267   5.278  0.00  0.00    -0.153 OA
ATOM     30  O   UNL     1      13.579   0.959   7.380  0.00  0.00    -0.153 OA
BRANCH  28  31
ATOM     31  C   UNL     1      15.382  -0.753   6.769  0.00  0.00    +0.142 A 
ATOM     32  C   UNL     1      16.504  -1.196   6.151  0.00  0.00    +0.036 A 
ATOM     33  C   UNL     1      17.286  -2.146   6.780  0.00  0.00    +0.010 A 
ATOM     34  C   UNL     1      16.907  -2.607   7.997  0.00  0.00    +0.047 A 
ATOM     35  S   UNL     1      15.408  -1.684   8.292  0.00  0.00    -0.077 S 
ENDBRANCH  28  31
ENDBRANCH  26  28
ENDBRANCH  25  26
ENDBRANCH   8  25
TORSDOF 8
