REMARK  Name = ZINC39022252
REMARK  5 active torsions:
REMARK  status: ('A' for Active; 'I' for Inactive)
REMARK    1  A    between atoms: C_1  and  C_2
REMARK    2  A    between atoms: C_4  and  C_16
REMARK    3  A    between atoms: C_6  and  C_14
REMARK    4  A    between atoms: C_7  and  N_13
REMARK    5  A    between atoms: C_19  and  C_22
REMARK                            x       y       z     vdW  Elec       q    Type
REMARK                         _______ _______ _______ _____ _____    ______ ____
ROOT
ATOM      1  C   UNL     1      -0.018   1.503   0.010  0.00  0.00    +0.067 C 
ATOM      2  C   UNL     1       0.002  -0.004   0.002  0.00  0.00    +0.066 C 
ATOM      3  C   UNL     1      -1.064  -0.768   0.003  0.00  0.00    +0.030 C 
ATOM      4  C   UNL     1      -2.536  -0.493   0.145  0.00  0.00    +0.098 C 
ATOM      5  C   UNL     1      -3.065  -1.577   1.066  0.00  0.00    +0.097 C 
ATOM      6  C   UNL     1      -2.303  -2.628   1.436  0.00  0.00    +0.195 C 
ATOM      7  O   UNL     1      -1.023  -2.853   1.091  0.00  0.00    -0.448 OA
ATOM      8  C   UNL     1      -0.529  -2.198  -0.081  0.00  0.00    +0.343 C 
ATOM      9  N   UNL     1       0.921  -1.985  -0.028  0.00  0.00    -0.138 NA
ATOM     10  N   UNL     1       1.127  -0.765  -0.013  0.00  0.00    -0.155 NA
ENDROOT
BRANCH   4  11
ATOM     11  C   UNL     1      -2.755   0.867   0.756  0.00  0.00    -0.035 A 
ATOM     12  C   UNL     1      -2.247   1.151   2.010  0.00  0.00    +0.005 A 
ATOM     13  C   UNL     1      -2.448   2.399   2.570  0.00  0.00    +0.012 A 
ATOM     14  C   UNL     1      -3.158   3.362   1.877  0.00  0.00    +0.055 A 
ATOM     15  C   UNL     1      -3.666   3.077   0.624  0.00  0.00    +0.012 A 
ATOM     16  C   UNL     1      -3.461   1.831   0.061  0.00  0.00    +0.005 A 
BRANCH  14  17
ATOM     17  C   UNL     1      -3.378   4.721   2.489  0.00  0.00    +0.417 C 
ATOM     18  F   UNL     1      -2.327   5.571   2.128  0.00  0.00    -0.166 F 
ATOM     19  F   UNL     1      -4.587   5.251   2.025  0.00  0.00    -0.166 F 
ATOM     20  F   UNL     1      -3.425   4.604   3.882  0.00  0.00    -0.166 F 
ENDBRANCH  14  17
ENDBRANCH   4  11
BRANCH   6  21
ATOM     21  N   UNL     1      -2.896  -3.562   2.247  0.00  0.00    -0.329 N 
ATOM     22  H   UNL     1      -3.818  -3.448   2.526  0.00  0.00    +0.145 HD
ATOM     23  H   UNL     1      -2.393  -4.337   2.542  0.00  0.00    +0.145 HD
ENDBRANCH   6  21
BRANCH   5  24
ATOM     24  C   UNL     1      -4.407  -1.482   1.556  0.00  0.00    +0.101 C 
ATOM     25  N   UNL     1      -5.472  -1.407   1.944  0.00  0.00    -0.191 NA
ENDBRANCH   5  24
TORSDOF 4
