REMARK  Name = ZINC15760648
REMARK  9 active torsions:
REMARK  status: ('A' for Active; 'I' for Inactive)
REMARK    1  A    between atoms: C_1  and  C_2
REMARK    2  A    between atoms: C_2  and  C_3
REMARK    3  A    between atoms: C_3  and  N_4
REMARK    4  A    between atoms: C_8  and  S_31
REMARK    5  A    between atoms: C_12  and  C_13
REMARK    6  A    between atoms: C_13  and  C_14
REMARK    7  A    between atoms: C_14  and  C_15
REMARK    8  A    between atoms: N_17  and  C_18
REMARK    9  A    between atoms: S_31  and  N_34
REMARK                            x       y       z     vdW  Elec       q    Type
REMARK                         _______ _______ _______ _____ _____    ______ ____
ROOT
ATOM      1  C   UNL     1      -0.012   1.088   0.008  0.00  0.00    +0.083 C 
ENDROOT
BRANCH   1  10
ATOM      2  N   UNL     1      -1.745   0.940  -1.848  0.00  0.00    -0.328 N 
ATOM      3  C   UNL     1      -2.141   1.728  -2.910  0.00  0.00    +0.069 A 
ATOM      4  C   UNL     1      -3.105   1.601  -3.901  0.00  0.00    +0.030 A 
ATOM      5  C   UNL     1      -3.246   2.594  -4.847  0.00  0.00    +0.030 A 
ATOM      6  C   UNL     1      -2.432   3.717  -4.814  0.00  0.00    +0.107 A 
ATOM      7  C   UNL     1      -1.479   3.859  -3.846  0.00  0.00    +0.058 A 
ATOM      8  C   UNL     1      -1.318   2.866  -2.877  0.00  0.00    +0.091 A 
ATOM      9  N   UNL     1      -0.483   2.719  -1.816  0.00  0.00    -0.232 NA
ATOM     10  C   UNL     1      -0.736   1.595  -1.213  0.00  0.00    +0.111 A 
BRANCH   6  11
ATOM     11  S   UNL     1      -2.631   4.974  -6.034  0.00  0.00    +0.056 S 
ATOM     12  O   UNL     1      -1.390   5.662  -6.113  0.00  0.00    -0.153 OA
ATOM     13  O   UNL     1      -3.231   4.353  -7.162  0.00  0.00    -0.153 OA
BRANCH  11  14
ATOM     14  N   UNL     1      -3.736   6.057  -5.445  0.00  0.00    -0.204 NA
ATOM     15  H   UNL     1      -4.135   5.918  -4.572  0.00  0.00    +0.144 HD
ATOM     16  H   UNL     1      -3.985   6.831  -5.974  0.00  0.00    +0.144 HD
ENDBRANCH  11  14
ENDBRANCH   6  11
BRANCH   2  17
ATOM     17  C   UNL     1      -2.309  -0.359  -1.472  0.00  0.00    +0.123 C 
BRANCH  17  19
ATOM     18  C   UNL     1      -4.057  -1.505  -0.104  0.00  0.00    +0.005 C 
ATOM     19  C   UNL     1      -3.468  -0.148  -0.496  0.00  0.00    +0.018 C 
ENDBRANCH  17  19
ENDBRANCH   2  17
ENDBRANCH   1  10
BRANCH   1  20
ATOM     20  C   UNL     1      -0.725   1.585   1.267  0.00  0.00    +0.104 C 
BRANCH  20  21
ATOM     21  C   UNL     1      -0.001   1.078   2.488  0.00  0.00    +0.218 C 
ATOM     22  O   UNL     1       0.988   0.388   2.363  0.00  0.00    -0.275 OA
ATOM     23  N   UNL     1      -0.453   1.393   3.718  0.00  0.00    -0.285 N 
ATOM     24  H   UNL     1      -1.204   1.999   3.819  0.00  0.00    +0.155 HD
BRANCH  23  25
ATOM     25  C   UNL     1       0.160   0.845   4.849  0.00  0.00    +0.034 A 
ATOM     26  C   UNL     1       1.532   0.621   4.857  0.00  0.00    +0.024 A 
ATOM     27  C   UNL     1       2.139   0.081   5.969  0.00  0.00    +0.010 A 
ATOM     28  C   UNL     1       1.377  -0.242   7.095  0.00  0.00    -0.014 A 
ATOM     29  C   UNL     1       0.003  -0.015   7.080  0.00  0.00    -0.034 A 
ATOM     30  C   UNL     1      -0.601   0.529   5.968  0.00  0.00    +0.027 A 
ATOM     31  C   UNL     1      -0.545  -0.457   8.415  0.00  0.00    +0.071 C 
ATOM     32  C   UNL     1       0.638  -0.961   9.205  0.00  0.00    -0.035 A 
ATOM     33  C   UNL     1       1.768  -0.824   8.403  0.00  0.00    -0.014 A 
ATOM     34  C   UNL     1       3.012  -1.220   8.898  0.00  0.00    +0.009 A 
ATOM     35  C   UNL     1       3.112  -1.741  10.171  0.00  0.00    +0.001 A 
ATOM     36  C   UNL     1       1.984  -1.873  10.961  0.00  0.00    +0.000 A 
ATOM     37  C   UNL     1       0.748  -1.482  10.477  0.00  0.00    +0.004 A 
ENDBRANCH  23  25
ENDBRANCH  20  21
ENDBRANCH   1  20
TORSDOF 8
