REMARK  Name = ZINC22021233
REMARK  4 active torsions:
REMARK  status: ('A' for Active; 'I' for Inactive)
REMARK    1  A    between atoms: C_3  and  S_8
REMARK    2  A    between atoms: S_8  and  N_11
REMARK    3  A    between atoms: C_15  and  C_18
REMARK    4  A    between atoms: N_20  and  C_21
REMARK                            x       y       z     vdW  Elec       q    Type
REMARK                         _______ _______ _______ _____ _____    ______ ____
ROOT
ATOM      1  C   UNL     1      -6.954  -3.091  -3.964  0.00  0.00    +0.222 C 
ATOM      2  O   UNL     1      -7.319  -2.088  -4.542  0.00  0.00    -0.275 OA
ATOM      3  N   UNL     1      -5.820  -3.075  -3.236  0.00  0.00    -0.285 N 
ATOM      4  H   UNL     1      -5.444  -4.004  -2.784  0.00  0.00    +0.155 HD
ENDROOT
BRANCH   3   5
ATOM      5  C   UNL     1      -5.121  -1.874  -3.055  0.00  0.00    +0.037 A 
ATOM      6  C   UNL     1      -3.736  -1.885  -2.960  0.00  0.00    +0.027 A 
ATOM      7  C   UNL     1      -3.045  -0.701  -2.782  0.00  0.00    +0.051 A 
ATOM      8  C   UNL     1      -3.732   0.499  -2.698  0.00  0.00    +0.167 A 
ATOM      9  C   UNL     1      -5.122   0.513  -2.793  0.00  0.00    +0.169 A 
ATOM     10  C   UNL     1      -5.813  -0.674  -2.972  0.00  0.00    +0.072 A 
ATOM     11  O   UNL     1      -5.556   1.803  -2.679  0.00  0.00    -0.447 OA
ATOM     12  C   UNL     1      -4.396   2.618  -2.903  0.00  0.00    +0.254 C 
ATOM     13  O   UNL     1      -3.293   1.781  -2.525  0.00  0.00    -0.448 OA
ATOM     14  C   UNL     1      -4.443   3.861  -2.020  0.00  0.00    +0.093 C 
ATOM     15  C   UNL     1      -5.641   4.727  -2.417  0.00  0.00    +0.008 C 
ATOM     16  C   UNL     1      -5.511   5.131  -3.887  0.00  0.00    +0.000 C 
ATOM     17  C   UNL     1      -5.489   3.876  -4.762  0.00  0.00    +0.008 C 
ATOM     18  C   UNL     1      -4.291   3.005  -4.373  0.00  0.00    +0.093 C 
ENDBRANCH   3   5
BRANCH   1  23
ATOM     19  N   UNL     1      -9.850  -5.302  -4.915  0.00  0.00    -0.176 NA
ATOM     20  C   UNL     1     -10.268  -5.847  -3.616  0.00  0.00    +0.109 C 
ATOM     21  C   UNL     1      -9.023  -6.079  -2.754  0.00  0.00    +0.018 C 
ATOM     22  C   UNL     1      -8.223  -4.778  -2.661  0.00  0.00    +0.015 C 
ATOM     23  C   UNL     1      -7.770  -4.354  -4.060  0.00  0.00    +0.091 C 
ATOM     24  C   UNL     1      -9.001  -4.103  -4.937  0.00  0.00    +0.122 C 
BRANCH  19  25
ATOM     25  S   UNL     1     -10.327  -6.025  -6.327  0.00  0.00    +0.061 S 
ATOM     26  O   UNL     1      -9.370  -5.661  -7.312  0.00  0.00    -0.153 OA
ATOM     27  O   UNL     1     -10.619  -7.379  -6.011  0.00  0.00    -0.153 OA
BRANCH  25  30
ATOM     28  C   UNL     1     -13.040  -3.576  -7.994  0.00  0.00    +0.040 A 
ATOM     29  C   UNL     1     -11.846  -4.161  -7.618  0.00  0.00    +0.031 A 
ATOM     30  C   UNL     1     -11.850  -5.279  -6.805  0.00  0.00    +0.106 A 
ATOM     31  C   UNL     1     -13.048  -5.816  -6.371  0.00  0.00    +0.031 A 
ATOM     32  C   UNL     1     -14.243  -5.229  -6.742  0.00  0.00    +0.040 A 
ATOM     33  C   UNL     1     -14.241  -4.110  -7.556  0.00  0.00    +0.124 A 
ATOM     34  F   UNL     1     -15.409  -3.538  -7.923  0.00  0.00    -0.205 F 
ENDBRANCH  25  30
ENDBRANCH  19  25
ENDBRANCH   1  23
TORSDOF 4
