REMARK  Name = ZINC20642029
REMARK  8 active torsions:
REMARK  status: ('A' for Active; 'I' for Inactive)
REMARK    1  A    between atoms: C_1  and  C_2
REMARK    2  A    between atoms: C_2  and  C_3
REMARK    3  A    between atoms: C_6  and  N_9
REMARK    4  A    between atoms: C_22  and  C_36
REMARK    5  A    between atoms: C_23  and  C_25
REMARK    6  A    between atoms: N_27  and  C_28
REMARK    7  A    between atoms: C_31  and  C_35
REMARK    8  A    between atoms: C_33  and  C_34
REMARK                            x       y       z     vdW  Elec       q    Type
REMARK                         _______ _______ _______ _____ _____    ______ ____
ROOT
ATOM      1  N   UNL     1      -0.229  -0.194   7.302  0.00  0.00    -0.243 N 
ATOM      2  C   UNL     1       0.634   0.824   7.444  0.00  0.00    +0.141 C 
ATOM      3  S   UNL     1       0.937   1.435   9.014  0.00  0.00    -0.018 S 
ATOM      4  N   UNL     1       1.268   1.380   6.398  0.00  0.00    -0.318 N 
ATOM      5  C   UNL     1       1.079   0.828   5.054  0.00  0.00    +0.123 C 
ATOM      6  C   UNL     1       1.962  -0.396   4.952  0.00  0.00    +0.017 A 
ATOM      7  C   UNL     1       3.275  -0.243   4.543  0.00  0.00    +0.029 A 
ATOM      8  C   UNL     1       4.106  -1.344   4.447  0.00  0.00    +0.042 A 
ATOM      9  C   UNL     1       3.623  -2.602   4.763  0.00  0.00    +0.023 A 
ATOM     10  C   UNL     1       2.314  -2.758   5.170  0.00  0.00    +0.047 A 
ATOM     11  C   UNL     1       1.474  -1.652   5.264  0.00  0.00    +0.128 A 
ATOM     12  O   UNL     1       0.187  -1.847   5.652  0.00  0.00    -0.467 OA
ATOM     13  C   UNL     1      -0.606  -0.713   5.990  0.00  0.00    +0.194 C 
ATOM     14  C   UNL     1      -0.385   0.377   4.931  0.00  0.00    +0.163 C 
ATOM     15  C   UNL     1      -2.083  -1.112   6.007  0.00  0.00    +0.079 C 
ATOM     16 CL   UNL     1       5.752  -1.148   3.933  0.00  0.00    -0.084 Cl
ATOM     17  H   UNL     1       1.928   2.248   6.549  0.00  0.00    +0.148 HD
ENDROOT
BRANCH   1  21
ATOM     18  C   UNL     1      -1.885  -1.926  10.710  0.00  0.00    -0.048 A 
ATOM     19  C   UNL     1      -2.321  -0.684  10.286  0.00  0.00    +0.005 A 
ATOM     20  C   UNL     1      -1.774  -0.107   9.157  0.00  0.00    +0.024 A 
ATOM     21  C   UNL     1      -0.785  -0.775   8.446  0.00  0.00    +0.039 A 
ATOM     22  C   UNL     1      -0.354  -2.026   8.871  0.00  0.00    +0.024 A 
ATOM     23  C   UNL     1      -0.902  -2.595  10.004  0.00  0.00    +0.005 A 
BRANCH  18  25
ATOM     24  C   UNL     1      -3.698  -3.396  11.547  0.00  0.00    +0.009 C 
ATOM     25  C   UNL     1      -2.484  -2.552  11.942  0.00  0.00    +0.032 C 
ENDBRANCH  18  25
ENDBRANCH   1  21
BRANCH  14  26
ATOM     26  C   UNL     1      -0.637  -0.185   3.555  0.00  0.00    +0.228 C 
ATOM     27  O   UNL     1      -0.962  -1.346   3.424  0.00  0.00    -0.275 OA
ATOM     28  N   UNL     1      -0.499   0.603   2.470  0.00  0.00    -0.285 N 
ATOM     29  H   UNL     1      -0.123   1.631   2.581  0.00  0.00    +0.155 HD
BRANCH  28  30
ATOM     30  C   UNL     1      -0.835   0.114   1.203  0.00  0.00    +0.036 A 
ATOM     31  C   UNL     1      -0.738  -1.245   0.933  0.00  0.00    +0.024 A 
ATOM     32  C   UNL     1      -1.070  -1.725  -0.318  0.00  0.00    +0.005 A 
ATOM     33  C   UNL     1      -1.500  -0.854  -1.302  0.00  0.00    -0.050 A 
ATOM     34  C   UNL     1      -1.603   0.498  -1.036  0.00  0.00    +0.008 A 
ATOM     35  C   UNL     1      -1.267   0.986   0.212  0.00  0.00    -0.029 A 
ATOM     36  C   UNL     1      -1.374   2.461   0.500  0.00  0.00    +0.045 C 
ATOM     37  C   UNL     1      -1.863  -1.382  -2.667  0.00  0.00    +0.044 C 
ENDBRANCH  28  30
ENDBRANCH  14  26
TORSDOF 4
