REMARK  Name = ZINC13064644
REMARK  12 active torsions:
REMARK  status: ('A' for Active; 'I' for Inactive)
REMARK    1  A    between atoms: C_1  and  C_2
REMARK    2  A    between atoms: C_2  and  C_3
REMARK    3  A    between atoms: C_3  and  C_5
REMARK    4  A    between atoms: C_3  and  N_66
REMARK    5  A    between atoms: N_9  and  C_10
REMARK    6  A    between atoms: C_10  and  C_11
REMARK    7  A    between atoms: C_17  and  C_18
REMARK    8  A    between atoms: C_17  and  N_66
REMARK    9  A    between atoms: C_23  and  C_24
REMARK   10  A    between atoms: C_23  and  N_66
REMARK   11  A    between atoms: C_28  and  C_37
REMARK   12  A    between atoms: C_29  and  C_36
REMARK                            x       y       z     vdW  Elec       q    Type
REMARK                         _______ _______ _______ _____ _____    ______ ____
ROOT
ATOM      1  N   UNL     1      -5.547   4.333  -1.198  0.00  0.00    +0.392 N 
ATOM      2  H   UNL     1      -4.742   4.569  -1.790  0.00  0.00    -0.080 HD
ENDROOT
BRANCH   1   3
ATOM      3  C   UNL     1      -6.553   5.412  -1.304  0.00  0.00    +0.003 C 
BRANCH   3   4
ATOM      4  C   UNL     1      -6.471   6.011  -2.684  0.00  0.00    +0.138 A 
ATOM      5  N   UNL     1      -5.912   5.471  -3.740  0.00  0.00    -0.115 NA
ATOM      6  N   UNL     1      -6.050   6.290  -4.725  0.00  0.00    -0.023 NA
ATOM      7  N   UNL     1      -6.675   7.341  -4.323  0.00  0.00    -0.044 NA
ATOM      8  N   UNL     1      -6.952   7.207  -3.070  0.00  0.00    -0.226 N 
BRANCH   8   9
ATOM      9  C   UNL     1      -7.657   8.176  -2.226  0.00  0.00    +0.182 C 
BRANCH   9  10
ATOM     10  C   UNL     1      -6.659   9.115  -1.599  0.00  0.00    -0.026 A 
ATOM     11  C   UNL     1      -6.099   8.810  -0.372  0.00  0.00    +0.005 A 
ATOM     12  C   UNL     1      -5.180   9.670   0.201  0.00  0.00    +0.000 A 
ATOM     13  C   UNL     1      -4.829  10.839  -0.448  0.00  0.00    +0.000 A 
ATOM     14  C   UNL     1      -5.393  11.146  -1.672  0.00  0.00    +0.000 A 
ATOM     15  C   UNL     1      -6.308  10.284  -2.248  0.00  0.00    +0.005 A 
ENDBRANCH   9  10
ENDBRANCH   8   9
ENDBRANCH   3   4
BRANCH   3  17
ATOM     16  C   UNL     1      -8.110   4.444   0.394  0.00  0.00    +0.002 C 
ATOM     17  C   UNL     1      -7.959   4.854  -1.072  0.00  0.00    -0.011 C 
ENDBRANCH   3  17
ENDBRANCH   1   3
BRANCH   1  18
ATOM     18  C   UNL     1      -6.127   3.055  -1.662  0.00  0.00    -0.034 C 
BRANCH  18  19
ATOM     19  C   UNL     1      -6.380   3.146  -3.145  0.00  0.00    -0.027 A 
ATOM     20  C   UNL     1      -5.514   2.966  -4.172  0.00  0.00    +0.009 A 
ATOM     21  C   UNL     1      -5.974   3.100  -5.468  0.00  0.00    +0.008 A 
ATOM     22  C   UNL     1      -7.278   3.410  -5.675  0.00  0.00    +0.045 A 
ATOM     23  S   UNL     1      -7.901   3.513  -4.005  0.00  0.00    -0.103 S 
ENDBRANCH  18  19
ENDBRANCH   1  18
BRANCH   1  24
ATOM     24  C   UNL     1      -5.092   4.202   0.202  0.00  0.00    -0.036 C 
BRANCH  24  25
ATOM     25  C   UNL     1      -3.808   3.414   0.221  0.00  0.00    +0.001 A 
ATOM     26  C   UNL     1      -2.617   4.062   0.221  0.00  0.00    +0.017 A 
ATOM     27  C   UNL     1      -1.388   3.266   0.234  0.00  0.00    -0.001 A 
ATOM     28  C   UNL     1      -0.130   3.878   0.217  0.00  0.00    +0.013 A 
ATOM     29  C   UNL     1       0.998   3.107   0.229  0.00  0.00    -0.047 A 
ATOM     30  C   UNL     1       0.907   1.722   0.258  0.00  0.00    -0.046 A 
ATOM     31  C   UNL     1      -0.321   1.098   0.275  0.00  0.00    +0.030 A 
ATOM     32  C   UNL     1      -1.484   1.862   0.258  0.00  0.00    +0.049 A 
ATOM     33  N   UNL     1      -2.726   1.264   0.268  0.00  0.00    -0.322 N 
ATOM     34  H   UNL     1      -2.791   0.297   0.289  0.00  0.00    +0.169 HD
ATOM     35  C   UNL     1      -3.849   2.003   0.250  0.00  0.00    +0.251 A 
ATOM     36  O   UNL     1      -4.931   1.441   0.260  0.00  0.00    -0.268 OA
ATOM     37  C   UNL     1       2.165   0.893   0.271  0.00  0.00    +0.044 C 
ATOM     38  C   UNL     1       2.353   3.767   0.211  0.00  0.00    +0.044 C 
ENDBRANCH  24  25
ENDBRANCH   1  24
TORSDOF 9
