REMARK  Name = ZINC08623331
REMARK  6 active torsions:
REMARK  status: ('A' for Active; 'I' for Inactive)
REMARK    1  A    between atoms: C_1  and  C_2
REMARK    2  A    between atoms: C_2  and  C_24
REMARK    3  A    between atoms: N_5  and  C_9
REMARK    4  A    between atoms: C_9  and  C_10
REMARK    5  A    between atoms: N_12  and  C_13
REMARK    6  A    between atoms: C_18  and  C_19
REMARK                            x       y       z     vdW  Elec       q    Type
REMARK                         _______ _______ _______ _____ _____    ______ ____
ROOT
ATOM      1  C   UNL     1       7.488   0.260  -0.739  0.00  0.00    +0.047 C 
ATOM      2  C   UNL     1       7.685   1.690  -0.232  0.00  0.00    +0.135 C 
ATOM      3  C   UNL     1       6.616   2.606  -0.792  0.00  0.00    +0.251 C 
ATOM      4  O   UNL     1       6.406   2.860  -1.959  0.00  0.00    -0.272 OA
ATOM      5  N   UNL     1       5.946   3.081   0.277  0.00  0.00    -0.215 N 
ATOM      6  C   UNL     1       6.442   2.600   1.423  0.00  0.00    +0.310 C 
ATOM      7  O   UNL     1       6.006   2.887   2.520  0.00  0.00    -0.252 OA
ATOM      8  N   UNL     1       7.474   1.760   1.224  0.00  0.00    -0.281 N 
ATOM      9  H   UNL     1       7.983   1.296   1.907  0.00  0.00    +0.152 HD
ENDROOT
BRANCH   2  10
ATOM     10  C   UNL     1       9.059   2.194  -0.594  0.00  0.00    -0.015 A 
ATOM     11  C   UNL     1       9.249   2.897  -1.769  0.00  0.00    +0.007 A 
ATOM     12  C   UNL     1      10.508   3.364  -2.099  0.00  0.00    +0.020 A 
ATOM     13  C   UNL     1      11.579   3.119  -1.258  0.00  0.00    +0.041 A 
ATOM     14  C   UNL     1      11.388   2.410  -0.085  0.00  0.00    +0.020 A 
ATOM     15  C   UNL     1      10.128   1.948   0.246  0.00  0.00    +0.007 A 
ATOM     16 CL   UNL     1      13.161   3.699  -1.675  0.00  0.00    -0.084 Cl
ENDBRANCH   2  10
BRANCH   5  17
ATOM     17  C   UNL     1       4.819   4.013   0.194  0.00  0.00    +0.214 C 
BRANCH  17  18
ATOM     18  C   UNL     1       3.532   3.236   0.088  0.00  0.00    +0.235 C 
ATOM     19  O   UNL     1       3.554   2.023   0.082  0.00  0.00    -0.274 OA
ATOM     20  N   UNL     1       2.356   3.889   0.000  0.00  0.00    -0.284 N 
ATOM     21  H   UNL     1       2.343   4.856  -0.075  0.00  0.00    +0.155 HD
BRANCH  20  22
ATOM     22  C   UNL     1       1.154   3.171   0.019  0.00  0.00    +0.045 A 
ATOM     23  C   UNL     1       1.099   1.921   0.621  0.00  0.00    +0.025 A 
ATOM     24  C   UNL     1      -0.088   1.216   0.638  0.00  0.00    +0.022 A 
ATOM     25  C   UNL     1      -1.221   1.751   0.051  0.00  0.00    +0.042 A 
ATOM     26  C   UNL     1      -1.170   2.999  -0.545  0.00  0.00    +0.034 A 
ATOM     27  C   UNL     1       0.015   3.709  -0.565  0.00  0.00    +0.077 A 
ATOM     28 CL   UNL     1      -2.710   0.859   0.068  0.00  0.00    -0.084 Cl
BRANCH  27  29
ATOM     29  C   UNL     1       0.071   5.065  -1.220  0.00  0.00    +0.419 C 
ATOM     30  F   UNL     1      -1.190   5.388  -1.732  0.00  0.00    -0.166 F 
ATOM     31  F   UNL     1       0.450   6.024  -0.275  0.00  0.00    -0.166 F 
ATOM     32  F   UNL     1       1.005   5.041  -2.262  0.00  0.00    -0.166 F 
ENDBRANCH  27  29
ENDBRANCH  20  22
ENDBRANCH  17  18
ENDBRANCH   5  17
TORSDOF 5
