REMARK  Name = ZINC04325517
REMARK  5 active torsions:
REMARK  status: ('A' for Active; 'I' for Inactive)
REMARK    1  A    between atoms: C_3  and  C_6
REMARK    2  A    between atoms: C_6  and  N_7
REMARK    3  A    between atoms: C_16  and  C_24
REMARK    4  A    between atoms: C_16  and  C_28
REMARK    5  A    between atoms: C_17  and  C_19
REMARK                            x       y       z     vdW  Elec       q    Type
REMARK                         _______ _______ _______ _____ _____    ______ ____
ROOT
ATOM      1  N   UNL     1       2.412  -0.873   0.628  0.00  0.00    -0.274 N 
ATOM      2  C   UNL     1       1.136  -1.275   0.322  0.00  0.00    +0.120 A 
ATOM      3  C   UNL     1       0.118  -0.367   0.343  0.00  0.00    +0.098 A 
ATOM      4  C   UNL     1       0.401   0.965   0.689  0.00  0.00    +0.262 A 
ATOM      5  O   UNL     1      -0.491   1.796   0.715  0.00  0.00    -0.267 OA
ATOM      6  N   UNL     1       1.667   1.319   0.985  0.00  0.00    -0.275 N 
ATOM      7  H   UNL     1       1.871   2.267   1.231  0.00  0.00    +0.173 HD
ATOM      8  C   UNL     1       2.659   0.410   0.953  0.00  0.00    +0.331 A 
ATOM      9  O   UNL     1       3.794   0.753   1.221  0.00  0.00    -0.246 OA
ATOM     10  C   UNL     1      -1.285  -0.779  -0.002  0.00  0.00    +0.264 C 
ATOM     11  C   UNL     1      -0.429  -3.045   0.028  0.00  0.00    +0.142 C 
ATOM     12  N   UNL     1       0.874  -2.583  -0.005  0.00  0.00    -0.284 N 
ATOM     13  H   UNL     1       1.597  -3.179  -0.256  0.00  0.00    +0.155 HD
ATOM     14  N   UNL     1      -1.520  -2.265   0.040  0.00  0.00    -0.346 N 
ATOM     15  H   UNL     1      -2.467  -2.661   0.076  0.00  0.00    +0.162 HD
ENDROOT
BRANCH  11  16
ATOM     16  C   UNL     1      -0.678  -4.495   0.055  0.00  0.00    +0.165 A 
ATOM     17  C   UNL     1      -1.901  -5.096   0.094  0.00  0.00    +0.053 A 
ATOM     18  C   UNL     1      -1.669  -6.483   0.104  0.00  0.00    +0.042 A 
ATOM     19  C   UNL     1      -0.332  -6.662   0.080  0.00  0.00    +0.196 A 
ATOM     20  O   UNL     1       0.263  -5.460   0.051  0.00  0.00    -0.460 OA
ENDBRANCH  11  16
BRANCH  10  21
ATOM     21  C   UNL     1      -2.253  -0.147   1.000  0.00  0.00    +0.426 C 
ATOM     22  F   UNL     1      -2.413   1.210   0.701  0.00  0.00    -0.167 F 
ATOM     23  F   UNL     1      -3.492  -0.791   0.920  0.00  0.00    -0.167 F 
ATOM     24  F   UNL     1      -1.739  -0.282   2.294  0.00  0.00    -0.167 F 
ENDBRANCH  10  21
BRANCH  10  25
ATOM     25  C   UNL     1      -1.622  -0.277  -1.407  0.00  0.00    +0.426 C 
ATOM     26  F   UNL     1      -0.728  -0.834  -2.329  0.00  0.00    -0.167 F 
ATOM     27  F   UNL     1      -2.928  -0.657  -1.737  0.00  0.00    -0.167 F 
ATOM     28  F   UNL     1      -1.519   1.117  -1.442  0.00  0.00    -0.167 F 
ENDBRANCH  10  25
BRANCH   1  29
ATOM     29  C   UNL     1       3.509  -1.843   0.602  0.00  0.00    +0.202 C 
BRANCH  29  32
ATOM     30  C   UNL     1       5.383  -1.466  -2.549  0.00  0.00    +0.041 A 
ATOM     31  C   UNL     1       5.134  -1.104  -1.205  0.00  0.00    +0.046 A 
ATOM     32  C   UNL     1       4.119  -1.875  -0.776  0.00  0.00    +0.125 A 
ATOM     33  O   UNL     1       3.737  -2.675  -1.785  0.00  0.00    -0.466 OA
ATOM     34  C   UNL     1       4.500  -2.431  -2.863  0.00  0.00    +0.195 A 
ENDBRANCH  29  32
ENDBRANCH   1  29
TORSDOF 5
