REMARK  Name = ZINC09833984
REMARK  9 active torsions:
REMARK  status: ('A' for Active; 'I' for Inactive)
REMARK    1  A    between atoms: C_1  and  C_2
REMARK    2  A    between atoms: C_2  and  N_56
REMARK    3  A    between atoms: C_3  and  C_4
REMARK    4  A    between atoms: C_3  and  N_56
REMARK    5  A    between atoms: C_16  and  C_17
REMARK    6  A    between atoms: C_16  and  N_56
REMARK    7  A    between atoms: N_19  and  C_20
REMARK    8  A    between atoms: C_25  and  S_26
REMARK    9  A    between atoms: S_26  and  C_27
REMARK                            x       y       z     vdW  Elec       q    Type
REMARK                         _______ _______ _______ _____ _____    ______ ____
ROOT
ATOM      1  C   UNL     1       3.776   6.381  -0.357  0.00  0.00    +0.019 C 
ENDROOT
BRANCH   1   2
ATOM      2  C   UNL     1       3.565   7.867  -0.217  0.00  0.00    +0.201 C 
ATOM      3  O   UNL     1       2.554   8.379  -0.650  0.00  0.00    -0.278 OA
ATOM      4  N   UNL     1       4.498   8.626   0.391  0.00  0.00    -0.286 N 
ATOM      5  H   UNL     1       5.339   8.231   0.668  0.00  0.00    +0.155 HD
BRANCH   4   6
ATOM      6  C   UNL     1       4.253   9.986   0.621  0.00  0.00    +0.047 A 
ATOM      7  C   UNL     1       2.957  10.477   0.573  0.00  0.00    +0.024 A 
ATOM      8  C   UNL     1       2.718  11.820   0.801  0.00  0.00    +0.002 A 
ATOM      9  C   UNL     1       3.768  12.677   1.078  0.00  0.00    +0.001 A 
ATOM     10  C   UNL     1       5.063  12.196   1.127  0.00  0.00    +0.017 A 
ATOM     11  C   UNL     1       5.312  10.849   0.905  0.00  0.00    +0.034 A 
BRANCH  11  12
ATOM     12  S   UNL     1       6.961  10.232   0.975  0.00  0.00    -0.088 S 
BRANCH  12  13
ATOM     13  C   UNL     1       7.018   9.340   2.493  0.00  0.00    +0.013 A 
ATOM     14  C   UNL     1       5.874   9.217   3.272  0.00  0.00    +0.015 A 
ATOM     15  C   UNL     1       5.921   8.512   4.458  0.00  0.00    +0.001 A 
ATOM     16  C   UNL     1       7.107   7.938   4.877  0.00  0.00    +0.000 A 
ATOM     17  C   UNL     1       8.250   8.063   4.107  0.00  0.00    +0.001 A 
ATOM     18  C   UNL     1       8.209   8.761   2.917  0.00  0.00    +0.015 A 
ENDBRANCH  12  13
ENDBRANCH  11  12
ENDBRANCH   4   6
ENDBRANCH   1   2
BRANCH   1  19
ATOM     19  N   UNL     1       2.572   5.786  -0.974  0.00  0.00    +0.390 N 
ATOM     20  H   UNL     1       2.286   6.365  -1.772  0.00  0.00    -0.081 HD
BRANCH  19  22
ATOM     21  C   UNL     1       1.821   4.815   1.172  0.00  0.00    -0.017 C 
ATOM     22  C   UNL     1       1.469   5.745   0.009  0.00  0.00    -0.081 C 
ENDBRANCH  19  22
BRANCH  19  23
ATOM     23  C   UNL     1       2.872   4.421  -1.454  0.00  0.00    -0.003 C 
BRANCH  23  24
ATOM     24  C   UNL     1       1.705   3.924  -2.268  0.00  0.00    +0.094 A 
ATOM     25  N   UNL     1       1.786   2.686  -2.821  0.00  0.00    -0.312 N 
ATOM     26  H   UNL     1       2.582   2.149  -2.684  0.00  0.00    +0.170 HD
ATOM     27  C   UNL     1       0.765   2.194  -3.561  0.00  0.00    +0.259 A 
ATOM     28  O   UNL     1       0.824   1.087  -4.063  0.00  0.00    -0.267 OA
ATOM     29  C   UNL     1      -0.415   3.052  -3.741  0.00  0.00    +0.065 A 
ATOM     30  C   UNL     1      -1.522   2.638  -4.479  0.00  0.00    +0.015 A 
ATOM     31  C   UNL     1      -2.604   3.481  -4.611  0.00  0.00    +0.001 A 
ATOM     32  C   UNL     1      -2.602   4.732  -4.009  0.00  0.00    +0.002 A 
ATOM     33  C   UNL     1      -1.521   5.158  -3.271  0.00  0.00    +0.028 A 
ATOM     34  C   UNL     1      -0.412   4.322  -3.123  0.00  0.00    +0.078 A 
ATOM     35  N   UNL     1       0.674   4.702  -2.405  0.00  0.00    -0.236 NA
ENDBRANCH  23  24
ENDBRANCH  19  23
ENDBRANCH   1  19
TORSDOF 8
