REMARK  Name = ZINC22030799
REMARK  6 active torsions:
REMARK  status: ('A' for Active; 'I' for Inactive)
REMARK    1  A    between atoms: C_1  and  C_2
REMARK    2  A    between atoms: C_2  and  N_3
REMARK    3  A    between atoms: N_3  and  C_4
REMARK    4  A    between atoms: C_9  and  C_11
REMARK    5  A    between atoms: C_11  and  S_12
REMARK    6  A    between atoms: S_12  and  C_13
REMARK                            x       y       z     vdW  Elec       q    Type
REMARK                         _______ _______ _______ _____ _____    ______ ____
ROOT
ATOM      1  C   UNL     1      -2.097   7.711  -0.450  0.00  0.00    +0.191 A 
ATOM      2  N   UNL     1      -1.761   7.335   0.775  0.00  0.00    -0.207 NA
ATOM      3  C   UNL     1      -1.273   6.135   1.075  0.00  0.00    +0.129 A 
ATOM      4  C   UNL     1      -1.120   5.232  -0.018  0.00  0.00    +0.051 A 
ATOM      5  C   UNL     1      -0.614   3.870   0.035  0.00  0.00    -0.025 A 
ATOM      6  C   UNL     1      -0.558   3.197  -1.136  0.00  0.00    -0.004 A 
ATOM      7  S   UNL     1      -1.170   4.332  -2.357  0.00  0.00    -0.073 S 
ATOM      8  C   UNL     1      -1.500   5.705  -1.299  0.00  0.00    +0.115 A 
ATOM      9  N   UNL     1      -1.978   6.914  -1.514  0.00  0.00    -0.214 NA
ATOM     10  C   UNL     1      -0.081   1.794  -1.355  0.00  0.00    +0.043 C 
ATOM     11  C   UNL     1       0.687   1.341  -0.106  0.00  0.00    +0.005 C 
ATOM     12  C   UNL     1      -0.139   1.691   1.136  0.00  0.00    +0.005 C 
ATOM     13  C   UNL     1      -0.161   3.206   1.333  0.00  0.00    +0.037 C 
ATOM     14  N   UNL     1      -0.935   5.783   2.369  0.00  0.00    -0.343 N 
ATOM     15  H   UNL     1      -0.534   4.780   2.580  0.00  0.00    +0.144 HD
ATOM     16  H   UNL     1      -1.067   6.505   3.188  0.00  0.00    +0.144 HD
ENDROOT
BRANCH   1  17
ATOM     17  S   UNL     1      -2.731   9.338  -0.686  0.00  0.00    -0.077 S 
BRANCH  17  18
ATOM     18  C   UNL     1      -2.677   9.947   1.018  0.00  0.00    +0.173 C 
BRANCH  18  20
ATOM     19  N   UNL     1      -3.241  12.025   2.236  0.00  0.00    -0.275 N 
ATOM     20  C   UNL     1      -3.189  11.363   1.062  0.00  0.00    +0.230 C 
ATOM     21  O   UNL     1      -3.554  11.908   0.042  0.00  0.00    -0.274 OA
BRANCH  19  22
ATOM     22  C   UNL     1      -3.713  13.334   2.276  0.00  0.00    +0.010 C 
ATOM     23  C   UNL     1      -3.807  14.058   3.370  0.00  0.00    -0.008 C 
ATOM     24  C   UNL     1      -4.354  15.433   3.061  0.00  0.00    +0.029 C 
ATOM     25  C   UNL     1      -4.201  15.585   1.530  0.00  0.00    +0.010 C 
ATOM     26  C   UNL     1      -4.193  14.109   1.071  0.00  0.00    +0.051 C 
ENDBRANCH  19  22
BRANCH  19  28
ATOM     27  C   UNL     1      -1.307  11.628   3.679  0.00  0.00    +0.025 C 
ATOM     28  C   UNL     1      -2.800  11.367   3.468  0.00  0.00    +0.110 C 
ENDBRANCH  19  28
ENDBRANCH  18  20
ENDBRANCH  17  18
ENDBRANCH   1  17
TORSDOF 5
