REMARK  Name = ZINC21221241
REMARK  12 active torsions:
REMARK  status: ('A' for Active; 'I' for Inactive)
REMARK    1  A    between atoms: C_1  and  C_2
REMARK    2  A    between atoms: C_2  and  C_3
REMARK    3  A    between atoms: C_3  and  O_4
REMARK    4  A    between atoms: O_4  and  C_5
REMARK    5  A    between atoms: C_6  and  C_13
REMARK    6  A    between atoms: C_10  and  O_11
REMARK    7  A    between atoms: O_11  and  C_12
REMARK    8  A    between atoms: C_18  and  C_23
REMARK    9  A    between atoms: C_26  and  O_29
REMARK   10  A    between atoms: O_29  and  C_30
REMARK   11  A    between atoms: C_30  and  C_31
REMARK   12  A    between atoms: C_30  and  C_32
REMARK                            x       y       z     vdW  Elec       q    Type
REMARK                         _______ _______ _______ _____ _____    ______ ____
ROOT
ATOM      1  C   UNL     1      -5.920  10.197  -0.518  0.00  0.00    +0.140 C 
ATOM      2  C   UNL     1      -5.199   8.890  -0.288  0.00  0.00    +0.037 C 
ATOM      3  C   UNL     1      -3.916   8.752   0.086  0.00  0.00    +0.017 C 
ATOM      4  C   UNL     1      -3.310   7.369   0.258  0.00  0.00    +0.059 C 
ATOM      5  C   UNL     1      -4.375   6.395   0.761  0.00  0.00    +0.032 C 
ATOM      6  C   UNL     1      -5.499   6.353  -0.280  0.00  0.00    +0.088 C 
ATOM      7  C   UNL     1      -6.009   7.747  -0.491  0.00  0.00    +0.163 C 
ATOM      8  O   UNL     1      -7.160   7.902  -0.849  0.00  0.00    -0.292 OA
ATOM      9  N   UNL     1      -3.065   9.779   0.334  0.00  0.00    -0.316 N 
ATOM     10  C   UNL     1      -2.903  10.890  -0.486  0.00  0.00    +0.052 A 
ATOM     11  C   UNL     1      -1.696  11.190  -1.093  0.00  0.00    +0.025 A 
ATOM     12  C   UNL     1      -1.571  12.369  -1.808  0.00  0.00    +0.002 A 
ATOM     13  C   UNL     1      -2.642  13.237  -1.915  0.00  0.00    +0.002 A 
ATOM     14  C   UNL     1      -3.856  12.928  -1.325  0.00  0.00    +0.025 A 
ATOM     15  C   UNL     1      -3.990  11.741  -0.624  0.00  0.00    +0.049 A 
ATOM     16  N   UNL     1      -5.204  11.366  -0.052  0.00  0.00    -0.331 N 
ATOM     17  H   UNL     1      -2.440   9.769   1.239  0.00  0.00    +0.152 HD
ATOM     18  H   UNL     1      -5.617  11.973   0.766  0.00  0.00    +0.147 HD
ENDROOT
BRANCH   1  20
ATOM     19  C   UNL     1      -7.159  11.214  -2.444  0.00  0.00    +0.167 A 
ATOM     20  C   UNL     1      -6.173  10.349  -1.996  0.00  0.00    +0.023 A 
ATOM     21  C   UNL     1      -5.426   9.623  -2.904  0.00  0.00    +0.009 A 
ATOM     22  C   UNL     1      -5.656   9.761  -4.260  0.00  0.00    +0.004 A 
ATOM     23  C   UNL     1      -6.634  10.626  -4.714  0.00  0.00    +0.049 A 
ATOM     24  C   UNL     1      -7.386  11.357  -3.809  0.00  0.00    +0.162 A 
BRANCH  24  25
ATOM     25  O   UNL     1      -8.349  12.208  -4.254  0.00  0.00    -0.491 OA
ATOM     26  C   UNL     1      -8.531  12.299  -5.669  0.00  0.00    +0.277 C 
ENDBRANCH  24  25
BRANCH  19  27
ATOM     27  O   UNL     1      -7.899  11.925  -1.552  0.00  0.00    -0.488 OA
BRANCH  27  28
ATOM     28  C   UNL     1      -7.401  13.210  -1.174  0.00  0.00    +0.229 C 
BRANCH  28  30
ATOM     29  C   UNL     1      -7.827  15.230   0.233  0.00  0.00    +0.007 C 
ATOM     30  C   UNL     1      -8.360  13.854  -0.172  0.00  0.00    +0.038 C 
ENDBRANCH  28  30
ENDBRANCH  27  28
ENDBRANCH  19  27
ENDBRANCH   1  20
BRANCH   5  31
ATOM     31  C   UNL     1      -3.776   5.021   0.921  0.00  0.00    -0.043 A 
ATOM     32  C   UNL     1      -3.774   4.409   2.161  0.00  0.00    +0.007 A 
ATOM     33  C   UNL     1      -3.226   3.150   2.311  0.00  0.00    +0.046 A 
ATOM     34  C   UNL     1      -2.676   2.500   1.215  0.00  0.00    +0.121 A 
ATOM     35  C   UNL     1      -2.673   3.119  -0.026  0.00  0.00    +0.046 A 
ATOM     36  C   UNL     1      -3.228   4.376  -0.172  0.00  0.00    +0.007 A 
BRANCH  34  37
ATOM     37  O   UNL     1      -2.136   1.261   1.360  0.00  0.00    -0.489 OA
BRANCH  37  38
ATOM     38  C   UNL     1      -2.244   0.652   2.648  0.00  0.00    +0.167 C 
ATOM     39  C   UNL     1      -1.145  -0.400   2.809  0.00  0.00    +0.051 C 
ATOM     40  C   UNL     1      -3.614  -0.016   2.783  0.00  0.00    +0.051 C 
ENDBRANCH  37  38
ENDBRANCH  34  37
ENDBRANCH   5  31
TORSDOF 8
