REMARK  Name = ZINC11935415
REMARK  4 active torsions:
REMARK  status: ('A' for Active; 'I' for Inactive)
REMARK    1  A    between atoms: C_1  and  C_2
REMARK    2  A    between atoms: C_2  and  C_4
REMARK    3  A    between atoms: C_6  and  C_10
REMARK    4  A    between atoms: C_25  and  C_27
REMARK                            x       y       z     vdW  Elec       q    Type
REMARK                         _______ _______ _______ _____ _____    ______ ____
ROOT
ATOM      1  C   UNL     1      -1.202   2.355  -0.427  0.00  0.00    +0.265 C 
ATOM      2  O   UNL     1      -1.136   3.569  -0.407  0.00  0.00    -0.268 OA
ATOM      3  N   UNL     1      -2.399   1.744  -0.332  0.00  0.00    -0.287 N 
ATOM      4  C   UNL     1      -2.504   0.278  -0.384  0.00  0.00    +0.113 C 
ATOM      5  C   UNL     1      -3.032  -0.227   0.970  0.00  0.00    +0.056 C 
ATOM      6  C   UNL     1      -4.194   0.634   1.394  0.00  0.00    -0.016 A 
ATOM      7  C   UNL     1      -5.210   0.346   2.386  0.00  0.00    +0.003 A 
ATOM      8  C   UNL     1      -5.438  -0.755   3.217  0.00  0.00    +0.010 A 
ATOM      9  C   UNL     1      -6.522  -0.685   4.057  0.00  0.00    +0.001 A 
ATOM     10  C   UNL     1      -7.358   0.419   4.088  0.00  0.00    +0.002 A 
ATOM     11  C   UNL     1      -7.157   1.521   3.277  0.00  0.00    +0.026 A 
ATOM     12  C   UNL     1      -6.064   1.478   2.414  0.00  0.00    +0.047 A 
ATOM     13  N   UNL     1      -5.584   2.371   1.499  0.00  0.00    -0.356 N 
ATOM     14  H   UNL     1      -5.975   3.238   1.307  0.00  0.00    +0.166 HD
ATOM     15  C   UNL     1      -4.468   1.858   0.893  0.00  0.00    +0.041 A 
ATOM     16  C   UNL     1      -3.637   2.527  -0.179  0.00  0.00    +0.126 C 
ENDROOT
BRANCH   1  19
ATOM     17  C   UNL     1       2.067   0.838  -1.027  0.00  0.00    +0.128 A 
ATOM     18  C   UNL     1       1.198   1.944  -1.147  0.00  0.00    +0.065 A 
ATOM     19  C   UNL     1       0.026   1.553  -0.556  0.00  0.00    +0.121 A 
ATOM     20  N   UNL     1       0.214   0.272  -0.115  0.00  0.00    -0.272 N 
ATOM     21  H   UNL     1      -0.473  -0.278   0.359  0.00  0.00    +0.189 HD
ATOM     22  N   UNL     1       1.404  -0.119  -0.400  0.00  0.00    -0.170 NA
BRANCH  17  24
ATOM     23  C   UNL     1       4.256  -0.496  -1.306  0.00  0.00    +0.093 C 
ATOM     24  C   UNL     1       3.454   0.763  -1.511  0.00  0.00    +0.180 C 
ATOM     25  O   UNL     1       3.951   1.714  -2.074  0.00  0.00    -0.291 OA
ENDBRANCH  17  24
ENDBRANCH   1  19
BRANCH  16  26
ATOM     26  C   UNL     1      -3.298   3.958   0.241  0.00  0.00    +0.015 C 
ATOM     27  C   UNL     1      -2.682   3.947   1.641  0.00  0.00    +0.006 C 
ATOM     28  C   UNL     1      -2.343   5.378   2.061  0.00  0.00    +0.000 C 
ATOM     29  C   UNL     1      -3.619   6.222   2.072  0.00  0.00    +0.000 C 
ATOM     30  C   UNL     1      -4.236   6.234   0.672  0.00  0.00    +0.000 C 
ATOM     31  C   UNL     1      -4.575   4.802   0.252  0.00  0.00    +0.006 C 
ENDBRANCH  16  26
TORSDOF 3
