REMARK  Name = ZINC40962863
REMARK  12 active torsions:
REMARK  status: ('A' for Active; 'I' for Inactive)
REMARK    1  A    between atoms: C_1  and  C_2
REMARK    2  A    between atoms: C_2  and  C_3
REMARK    3  A    between atoms: C_3  and  O_4
REMARK    4  A    between atoms: O_4  and  C_5
REMARK    5  A    between atoms: C_8  and  C_14
REMARK    6  A    between atoms: C_10  and  O_11
REMARK    7  A    between atoms: O_11  and  C_12
REMARK    8  A    between atoms: C_12  and  C_13
REMARK    9  A    between atoms: C_16  and  C_25
REMARK   10  A    between atoms: C_17  and  C_24
REMARK   11  A    between atoms: N_27  and  C_28
REMARK   12  A    between atoms: C_31  and  C_34
REMARK                            x       y       z     vdW  Elec       q    Type
REMARK                         _______ _______ _______ _____ _____    ______ ____
ROOT
ATOM      1  C   UNL     1      -6.403  -4.608   0.083  0.00  0.00    +0.179 C 
ATOM      2  C   UNL     1      -7.194  -4.177   1.290  0.00  0.00    +0.060 C 
ATOM      3  C   UNL     1      -8.246  -3.350   1.219  0.00  0.00    +0.018 C 
ATOM      4  N   UNL     1      -8.695  -2.835   0.027  0.00  0.00    -0.286 N 
ATOM      5  C   UNL     1      -8.193  -3.395  -1.139  0.00  0.00    +0.240 A 
ATOM      6  N   UNL     1      -7.122  -4.231  -1.128  0.00  0.00    -0.201 N 
ATOM      7  N   UNL     1      -6.916  -4.594  -2.457  0.00  0.00    -0.042 NA
ATOM      8  N   UNL     1      -7.822  -3.982  -3.150  0.00  0.00    -0.021 NA
ATOM      9  N   UNL     1      -8.576  -3.274  -2.378  0.00  0.00    -0.092 NA
ATOM     10  C   UNL     1      -8.961  -2.971   2.490  0.00  0.00    +0.061 C 
ATOM     11  H   UNL     1      -9.339  -2.109   0.001  0.00  0.00    +0.155 HD
ENDROOT
BRANCH   1  15
ATOM     12  C   UNL     1      -2.582  -2.688   0.126  0.00  0.00    +0.162 A 
ATOM     13  C   UNL     1      -3.741  -1.930   0.090  0.00  0.00    +0.050 A 
ATOM     14  C   UNL     1      -4.975  -2.554   0.076  0.00  0.00    +0.010 A 
ATOM     15  C   UNL     1      -5.055  -3.934   0.098  0.00  0.00    -0.015 A 
ATOM     16  C   UNL     1      -3.903  -4.696   0.134  0.00  0.00    +0.055 A 
ATOM     17  C   UNL     1      -2.663  -4.077   0.141  0.00  0.00    +0.162 A 
BRANCH  12  18
ATOM     18  O   UNL     1      -1.367  -2.076   0.139  0.00  0.00    -0.488 OA
BRANCH  18  19
ATOM     19  C   UNL     1      -1.361  -0.647   0.121  0.00  0.00    +0.229 C 
BRANCH  19  21
ATOM     20  C   UNL     1       0.091   1.386   0.120  0.00  0.00    +0.007 C 
ATOM     21  C   UNL     1       0.084  -0.144   0.140  0.00  0.00    +0.038 C 
ENDBRANCH  19  21
ENDBRANCH  18  19
ENDBRANCH  12  18
BRANCH  17  22
ATOM     22  O   UNL     1      -1.528  -4.826   0.171  0.00  0.00    -0.489 OA
BRANCH  22  23
ATOM     23  C   UNL     1      -1.687  -6.246   0.186  0.00  0.00    +0.226 C 
ATOM     24  C   UNL     1      -0.311  -6.913   0.218  0.00  0.00    +0.048 C 
ENDBRANCH  22  23
ENDBRANCH  17  22
ENDBRANCH   1  15
BRANCH   2  25
ATOM     25  C   UNL     1      -6.808  -4.669   2.559  0.00  0.00    +0.248 C 
ATOM     26  O   UNL     1      -7.137  -5.790   2.903  0.00  0.00    -0.270 OA
ATOM     27  N   UNL     1      -6.077  -3.898   3.388  0.00  0.00    -0.282 N 
ATOM     28  H   UNL     1      -5.886  -2.977   3.150  0.00  0.00    +0.155 HD
BRANCH  27  29
ATOM     29  C   UNL     1      -5.593  -4.425   4.589  0.00  0.00    +0.034 A 
ATOM     30  C   UNL     1      -5.368  -5.790   4.710  0.00  0.00    +0.023 A 
ATOM     31  C   UNL     1      -4.889  -6.307   5.897  0.00  0.00    +0.005 A 
ATOM     32  C   UNL     1      -4.635  -5.468   6.966  0.00  0.00    -0.050 A 
ATOM     33  C   UNL     1      -4.858  -4.108   6.849  0.00  0.00    +0.005 A 
ATOM     34  C   UNL     1      -5.330  -3.583   5.662  0.00  0.00    +0.023 A 
ATOM     35  C   UNL     1      -4.113  -6.035   8.261  0.00  0.00    +0.044 C 
ENDBRANCH  27  29
ENDBRANCH   2  25
TORSDOF 8
