REMARK  Name = ZINC39654014
REMARK  10 active torsions:
REMARK  status: ('A' for Active; 'I' for Inactive)
REMARK    1  A    between atoms: C_1  and  C_2
REMARK    2  A    between atoms: C_2  and  O_3
REMARK    3  A    between atoms: O_3  and  C_4
REMARK    4  A    between atoms: C_7  and  C_10
REMARK    5  A    between atoms: C_10  and  C_11
REMARK    6  A    between atoms: C_11  and  N_12
REMARK    7  A    between atoms: C_13  and  C_15
REMARK    8  A    between atoms: C_26  and  C_28
REMARK    9  A    between atoms: C_30  and  C_37
REMARK   10  A    between atoms: C_32  and  C_33
REMARK                            x       y       z     vdW  Elec       q    Type
REMARK                         _______ _______ _______ _____ _____    ______ ____
ROOT
ATOM      1  C   UNL     1      -0.813 -10.215  -3.578  0.00  0.00    +0.100 C 
ATOM      2  C   UNL     1       0.327 -10.520  -4.575  0.00  0.00    +0.121 C 
ATOM      3  N   UNL     1      -0.157 -11.684  -5.354  0.00  0.00    -0.296 N 
ATOM      4  C   UNL     1      -1.599 -11.412  -5.564  0.00  0.00    +0.115 C 
ATOM      5  C   UNL     1      -2.076 -10.802  -4.231  0.00  0.00    -0.004 C 
ATOM      6  C   UNL     1      -3.097  -9.699  -4.492  0.00  0.00    -0.010 C 
ATOM      7  C   UNL     1      -4.366 -10.315  -5.088  0.00  0.00    -0.082 C 
ATOM      8  N   UNL     1      -4.915 -11.306  -4.155  0.00  0.00    +0.379 N 
ATOM      9  C   UNL     1      -3.964 -12.411  -3.982  0.00  0.00    -0.082 C 
ATOM     10  C   UNL     1      -2.678 -11.884  -3.340  0.00  0.00    -0.010 C 
ATOM     11  C   UNL     1       0.553 -12.749  -5.775  0.00  0.00    +0.250 C 
ATOM     12  O   UNL     1       1.709 -12.886  -5.424  0.00  0.00    -0.270 OA
ATOM     13  H   UNL     1      -5.086 -10.868  -3.263  0.00  0.00    -0.086 HD
ATOM     14  H   UNL     1      -5.784 -11.666  -4.522  0.00  0.00    -0.086 HD
ENDROOT
BRANCH  11  15
ATOM     15  C   UNL     1      -0.071 -13.747  -6.661  0.00  0.00    +0.087 A 
ATOM     16  C   UNL     1      -1.395 -13.667  -7.296  0.00  0.00    +0.058 A 
ATOM     17  C   UNL     1      -1.532 -14.797  -8.007  0.00  0.00    +0.103 A 
ATOM     18  O   UNL     1      -0.426 -15.544  -7.862  0.00  0.00    -0.455 OA
ATOM     19  C   UNL     1       0.460 -14.936  -7.068  0.00  0.00    +0.220 A 
ATOM     20  C   UNL     1      -2.735 -15.168  -8.836  0.00  0.00    +0.086 C 
BRANCH  19  21
ATOM     21  C   UNL     1       1.815 -15.473  -6.685  0.00  0.00    +0.451 C 
ATOM     22  F   UNL     1       1.701 -16.236  -5.518  0.00  0.00    -0.163 F 
ATOM     23  F   UNL     1       2.309 -16.274  -7.720  0.00  0.00    -0.163 F 
ATOM     24  F   UNL     1       2.693 -14.407  -6.461  0.00  0.00    -0.163 F 
ENDBRANCH  19  21
ENDBRANCH  11  15
BRANCH   1  26
ATOM     25  N   UNL     1      -1.580  -8.245  -2.294  0.00  0.00    -0.315 N 
ATOM     26  C   UNL     1      -0.963  -8.727  -3.390  0.00  0.00    +0.218 C 
ATOM     27  O   UNL     1      -0.527  -7.964  -4.226  0.00  0.00    -0.275 OA
ATOM     28  H   UNL     1      -1.928  -8.856  -1.625  0.00  0.00    +0.149 HD
BRANCH  25  29
ATOM     29  C   UNL     1      -1.725  -6.799  -2.111  0.00  0.00    +0.109 C 
BRANCH  29  30
ATOM     30  C   UNL     1      -2.457  -6.522  -0.796  0.00  0.00    +0.054 C 
BRANCH  30  34
ATOM     31  C   UNL     1      -2.880  -2.303  -0.263  0.00  0.00    +0.121 A 
ATOM     32  C   UNL     1      -3.863  -3.021  -0.928  0.00  0.00    +0.046 A 
ATOM     33  C   UNL     1      -3.724  -4.385  -1.099  0.00  0.00    +0.007 A 
ATOM     34  C   UNL     1      -2.606  -5.034  -0.608  0.00  0.00    -0.046 A 
ATOM     35  C   UNL     1      -1.625  -4.320   0.055  0.00  0.00    +0.007 A 
ATOM     36  C   UNL     1      -1.757  -2.955   0.223  0.00  0.00    +0.046 A 
BRANCH  31  37
ATOM     37  O   UNL     1      -3.015  -0.961  -0.094  0.00  0.00    -0.492 OA
BRANCH  37  39
ATOM     38  C   UNL     1      -4.172   1.147  -0.336  0.00  0.00    +0.048 C 
ATOM     39  C   UNL     1      -4.198  -0.356  -0.620  0.00  0.00    +0.225 C 
ENDBRANCH  37  39
ENDBRANCH  31  37
ENDBRANCH  30  34
ENDBRANCH  29  30
ENDBRANCH  25  29
ENDBRANCH   1  26
TORSDOF 8
