REMARK  Name = ZINC63589252
REMARK  12 active torsions:
REMARK  status: ('A' for Active; 'I' for Inactive)
REMARK    1  A    between atoms: C_1  and  C_2
REMARK    2  A    between atoms: C_2  and  C_3
REMARK    3  A    between atoms: C_8  and  N_9
REMARK    4  A    between atoms: N_11  and  C_12
REMARK    5  A    between atoms: C_12  and  C_13
REMARK    6  A    between atoms: C_13  and  C_14
REMARK    7  A    between atoms: N_23  and  C_24
REMARK    8  A    between atoms: C_24  and  C_26
REMARK    9  A    between atoms: C_29  and  O_34
REMARK   10  A    between atoms: C_30  and  O_32
REMARK   11  A    between atoms: O_32  and  C_33
REMARK   12  A    between atoms: O_34  and  C_35
REMARK                            x       y       z     vdW  Elec       q    Type
REMARK                         _______ _______ _______ _____ _____    ______ ____
ROOT
ATOM      1  N   UNL     1      -1.805  -1.532  -3.301  0.00  0.00    -0.328 N 
ATOM      2  C   UNL     1      -2.373  -0.728  -4.247  0.00  0.00    +0.194 C 
ATOM      3  N   UNL     1      -1.595   0.123  -4.976  0.00  0.00    -0.357 N 
ATOM      4  N   UNL     1      -3.680  -0.775  -4.457  0.00  0.00    -0.143 NA
ATOM      5  H   UNL     1      -2.005   0.728  -5.615  0.00  0.00    +0.162 HD
ATOM      6  H   UNL     1      -1.714  -2.484  -3.465  0.00  0.00    +0.169 HD
ENDROOT
BRANCH   1  12
ATOM      7  C   UNL     1      -0.643  -1.768  -1.197  0.00  0.00    -0.024 A 
ATOM      8  C   UNL     1      -0.194  -1.221  -0.011  0.00  0.00    +0.005 A 
ATOM      9  C   UNL     1      -0.456   0.104   0.284  0.00  0.00    +0.000 A 
ATOM     10  C   UNL     1      -1.168   0.886  -0.607  0.00  0.00    +0.002 A 
ATOM     11  C   UNL     1      -1.620   0.346  -1.794  0.00  0.00    +0.026 A 
ATOM     12  C   UNL     1      -1.353  -0.983  -2.097  0.00  0.00    +0.045 A 
BRANCH   7  14
ATOM     13  C   UNL     1       0.909  -3.304  -2.372  0.00  0.00    +0.009 C 
ATOM     14  C   UNL     1      -0.357  -3.212  -1.518  0.00  0.00    +0.034 C 
ENDBRANCH   7  14
ENDBRANCH   1  12
BRANCH   4  15
ATOM     15  C   UNL     1      -4.468  -1.466  -3.622  0.00  0.00    +0.270 C 
ATOM     16  O   UNL     1      -4.004  -1.948  -2.605  0.00  0.00    -0.268 OA
BRANCH  15  17
ATOM     17  C   UNL     1      -5.903  -1.641  -3.936  0.00  0.00    +0.043 A 
ATOM     18  C   UNL     1      -6.412  -1.193  -5.156  0.00  0.00    +0.017 A 
ATOM     19  C   UNL     1      -7.750  -1.357  -5.447  0.00  0.00    +0.050 A 
ATOM     20  C   UNL     1      -8.593  -1.968  -4.529  0.00  0.00    +0.162 A 
ATOM     21  C   UNL     1      -8.091  -2.418  -3.309  0.00  0.00    +0.162 A 
ATOM     22  C   UNL     1      -6.750  -2.261  -3.014  0.00  0.00    +0.062 A 
BRANCH  21  23
ATOM     23  O   UNL     1      -8.919  -3.016  -2.411  0.00  0.00    -0.491 OA
ATOM     24  C   UNL     1      -8.336  -3.452  -1.182  0.00  0.00    +0.277 C 
ENDBRANCH  21  23
BRANCH  20  25
ATOM     25  O   UNL     1      -9.910  -2.128  -4.820  0.00  0.00    -0.491 OA
ATOM     26  C   UNL     1     -10.357  -1.643  -6.088  0.00  0.00    +0.277 C 
ENDBRANCH  20  25
ENDBRANCH  15  17
ENDBRANCH   4  15
BRANCH   3  27
ATOM     27  C   UNL     1      -0.142   0.125  -4.793  0.00  0.00    +0.120 C 
BRANCH  27  28
ATOM     28  C   UNL     1       0.483   1.199  -5.686  0.00  0.00    +0.054 C 
BRANCH  28  29
ATOM     29  C   UNL     1       1.985   1.122  -5.588  0.00  0.00    -0.040 C 
ATOM     30  C   UNL     1       2.804   0.294  -6.276  0.00  0.00    -0.001 A 
ATOM     31  C   UNL     1       2.551  -0.744  -7.282  0.00  0.00    +0.010 A 
ATOM     32  C   UNL     1       3.599  -1.423  -7.802  0.00  0.00    +0.001 A 
ATOM     33  C   UNL     1       4.917  -1.160  -7.405  0.00  0.00    +0.002 A 
ATOM     34  C   UNL     1       5.229  -0.222  -6.486  0.00  0.00    +0.026 A 
ATOM     35  C   UNL     1       4.205   0.553  -5.874  0.00  0.00    +0.043 A 
ATOM     36  N   UNL     1       4.250   1.504  -4.973  0.00  0.00    -0.380 N 
ATOM     37  C   UNL     1       2.882   1.961  -4.705  0.00  0.00    +0.144 C 
ATOM     38  H   UNL     1       5.055   1.850  -4.556  0.00  0.00    +0.160 HD
ENDBRANCH  28  29
ENDBRANCH  27  28
ENDBRANCH   3  27
TORSDOF 9
