REMARK  Name = ZINC21218721
REMARK  11 active torsions:
REMARK  status: ('A' for Active; 'I' for Inactive)
REMARK    1  A    between atoms: C_1  and  C_2
REMARK    2  A    between atoms: C_2  and  C_3
REMARK    3  A    between atoms: C_2  and  C_4
REMARK    4  A    between atoms: C_4  and  O_5
REMARK    5  A    between atoms: O_5  and  C_6
REMARK    6  A    between atoms: C_9  and  C_12
REMARK    7  A    between atoms: C_17  and  C_27
REMARK    8  A    between atoms: C_32  and  O_33
REMARK    9  A    between atoms: O_33  and  C_34
REMARK   10  A    between atoms: C_34  and  C_35
REMARK   11  A    between atoms: C_34  and  C_36
REMARK                            x       y       z     vdW  Elec       q    Type
REMARK                         _______ _______ _______ _____ _____    ______ ____
ROOT
ATOM      1  C   UNL     1      -2.304   1.420   0.838  0.00  0.00    +0.032 C 
ATOM      2  C   UNL     1      -1.240   2.175   0.044  0.00  0.00    +0.059 C 
ATOM      3  C   UNL     1       0.051   1.374   0.018  0.00  0.00    +0.017 C 
ATOM      4  C   UNL     1       0.020   0.030   0.021  0.00  0.00    +0.037 C 
ATOM      5  C   UNL     1       1.221  -0.884  -0.011  0.00  0.00    +0.139 C 
ATOM      6  N   UNL     1       2.473  -0.223  -0.312  0.00  0.00    -0.331 N 
ATOM      7  C   UNL     1       3.011   0.725   0.557  0.00  0.00    +0.049 A 
ATOM      8  C   UNL     1       4.211   0.508   1.214  0.00  0.00    +0.025 A 
ATOM      9  C   UNL     1       4.682   1.458   2.104  0.00  0.00    +0.002 A 
ATOM     10  C   UNL     1       3.960   2.614   2.340  0.00  0.00    +0.002 A 
ATOM     11  C   UNL     1       2.769   2.842   1.672  0.00  0.00    +0.025 A 
ATOM     12  C   UNL     1       2.309   1.903   0.765  0.00  0.00    +0.052 A 
ATOM     13  N   UNL     1       1.185   2.120  -0.022  0.00  0.00    -0.316 N 
ATOM     14  C   UNL     1      -1.218  -0.653   0.071  0.00  0.00    +0.163 C 
ATOM     15  O   UNL     1      -1.218  -1.868   0.050  0.00  0.00    -0.292 OA
ATOM     16  C   UNL     1      -2.530   0.069   0.150  0.00  0.00    +0.088 C 
ATOM     17  H   UNL     1       3.014  -0.465  -1.238  0.00  0.00    +0.147 HD
ATOM     18  H   UNL     1       1.259   2.969  -0.717  0.00  0.00    +0.152 HD
ENDROOT
BRANCH   1  22
ATOM     19  C   UNL     1      -5.946   3.655   0.872  0.00  0.00    +0.121 A 
ATOM     20  C   UNL     1      -5.328   3.317   2.067  0.00  0.00    +0.046 A 
ATOM     21  C   UNL     1      -4.150   2.594   2.053  0.00  0.00    +0.007 A 
ATOM     22  C   UNL     1      -3.588   2.208   0.850  0.00  0.00    -0.043 A 
ATOM     23  C   UNL     1      -4.200   2.549  -0.342  0.00  0.00    +0.007 A 
ATOM     24  C   UNL     1      -5.381   3.267  -0.334  0.00  0.00    +0.046 A 
BRANCH  19  25
ATOM     25  O   UNL     1      -7.105   4.365   0.882  0.00  0.00    -0.492 OA
BRANCH  25  26
ATOM     26  C   UNL     1      -7.686   4.678  -0.385  0.00  0.00    +0.232 C 
BRANCH  26  28
ATOM     27  C   UNL     1      -9.530   5.917  -1.529  0.00  0.00    +0.010 C 
ATOM     28  C   UNL     1      -8.975   5.475  -0.173  0.00  0.00    +0.020 C 
ATOM     29  C   UNL     1     -10.006   4.597   0.539  0.00  0.00    +0.010 C 
ENDBRANCH  26  28
ENDBRANCH  25  26
ENDBRANCH  19  25
ENDBRANCH   1  22
BRANCH   5  30
ATOM     30  C   UNL     1       1.347  -1.554   1.333  0.00  0.00    +0.019 A 
ATOM     31  C   UNL     1       0.683  -1.037   2.429  0.00  0.00    +0.009 A 
ATOM     32  C   UNL     1       0.795  -1.654   3.661  0.00  0.00    +0.001 A 
ATOM     33  C   UNL     1       1.578  -2.785   3.802  0.00  0.00    +0.004 A 
ATOM     34  C   UNL     1       2.247  -3.304   2.711  0.00  0.00    +0.046 A 
ATOM     35  C   UNL     1       2.133  -2.689   1.472  0.00  0.00    +0.126 A 
BRANCH  35  36
ATOM     36  O   UNL     1       2.791  -3.197   0.397  0.00  0.00    -0.489 OA
BRANCH  36  37
ATOM     37  C   UNL     1       3.485  -4.431   0.585  0.00  0.00    +0.167 C 
ATOM     38  C   UNL     1       3.619  -5.151  -0.759  0.00  0.00    +0.051 C 
ATOM     39  C   UNL     1       4.877  -4.152   1.155  0.00  0.00    +0.051 C 
ENDBRANCH  36  37
ENDBRANCH  35  36
ENDBRANCH   5  30
TORSDOF 7
