REMARK  Name = ZINC31339238
REMARK  6 active torsions:
REMARK  status: ('A' for Active; 'I' for Inactive)
REMARK    1  A    between atoms: N_9  and  C_11
REMARK    2  A    between atoms: C_11  and  C_12
REMARK    3  A    between atoms: C_12  and  N_13
REMARK    4  A    between atoms: C_14  and  C_16
REMARK    5  A    between atoms: C_16  and  N_17
REMARK    6  A    between atoms: C_18  and  C_20
REMARK                            x       y       z     vdW  Elec       q    Type
REMARK                         _______ _______ _______ _____ _____    ______ ____
ROOT
ATOM      1  N   UNL     1       7.184  -2.877   0.988  0.00  0.00    -0.316 N 
ATOM      2  C   UNL     1       8.254  -2.516   1.723  0.00  0.00    +0.230 C 
ATOM      3  O   UNL     1       8.161  -1.612   2.527  0.00  0.00    -0.274 OA
ATOM      4  H   UNL     1       7.259  -3.600   0.346  0.00  0.00    +0.149 HD
ENDROOT
BRANCH   1   5
ATOM      5  C   UNL     1       5.908  -2.179   1.160  0.00  0.00    +0.086 C 
BRANCH   5   6
ATOM      6  C   UNL     1       4.866  -2.780   0.214  0.00  0.00    -0.059 C 
BRANCH   6  15
ATOM      7  C   UNL     1      -0.017   1.376   0.010  0.00  0.00    +0.000 A 
ATOM      8  C   UNL     1       1.173   2.080   0.002  0.00  0.00    +0.000 A 
ATOM      9  C   UNL     1       2.375   1.401  -0.015  0.00  0.00    +0.002 A 
ATOM     10  C   UNL     1       2.395   0.014  -0.023  0.00  0.00    -0.061 A 
ATOM     11  C   UNL     1       1.208  -0.687  -0.013  0.00  0.00    -0.048 A 
ATOM     12  C   UNL     1       0.002  -0.004   0.002  0.00  0.00    +0.004 A 
ATOM     13  C   UNL     1       1.186  -2.194  -0.014  0.00  0.00    +0.017 C 
ATOM     14  C   UNL     1       2.554  -2.732  -0.434  0.00  0.00    -0.074 C 
ATOM     15  N   UNL     1       3.587  -2.079   0.386  0.00  0.00    +0.384 N 
ATOM     16  C   UNL     1       3.728  -0.686  -0.046  0.00  0.00    -0.043 C 
ATOM     17  H   UNL     1       3.313  -2.106   1.357  0.00  0.00    -0.081 HD
ENDBRANCH   6  15
ENDBRANCH   5   6
ENDBRANCH   1   5
BRANCH   2  18
ATOM     18  C   UNL     1       9.567  -3.234   1.547  0.00  0.00    +0.200 C 
BRANCH  18  19
ATOM     19  N   UNL     1      10.564  -2.659   2.453  0.00  0.00    -0.306 N 
ATOM     20  C   UNL     1      11.821  -3.147   2.470  0.00  0.00    +0.220 C 
ATOM     21  O   UNL     1      12.126  -4.062   1.735  0.00  0.00    -0.275 OA
ATOM     22  H   UNL     1      10.320  -1.927   3.041  0.00  0.00    +0.149 HD
BRANCH  20  23
ATOM     23  C   UNL     1      12.847  -2.555   3.401  0.00  0.00    +0.048 C 
ATOM     24  C   UNL     1      13.031  -1.070   3.080  0.00  0.00    +0.019 C 
ATOM     25  C   UNL     1      14.072  -0.469   4.027  0.00  0.00    -0.009 C 
ATOM     26  C   UNL     1      15.405  -1.199   3.848  0.00  0.00    +0.007 C 
ATOM     27  C   UNL     1      15.221  -2.683   4.168  0.00  0.00    -0.009 C 
ATOM     28  C   UNL     1      14.179  -3.284   3.222  0.00  0.00    +0.019 C 
ATOM     29  C   UNL     1      14.745  -2.837   5.614  0.00  0.00    +0.007 C 
ATOM     30  C   UNL     1      13.412  -2.107   5.793  0.00  0.00    -0.009 C 
ATOM     31  C   UNL     1      13.597  -0.623   5.473  0.00  0.00    +0.007 C 
ATOM     32  C   UNL     1      12.371  -2.708   4.848  0.00  0.00    +0.019 C 
ENDBRANCH  20  23
ENDBRANCH  18  19
ENDBRANCH   2  18
TORSDOF 6
