REMARK  Name = ZINC55028572
REMARK  9 active torsions:
REMARK  status: ('A' for Active; 'I' for Inactive)
REMARK    1  A    between atoms: C_1  and  C_2
REMARK    2  A    between atoms: C_2  and  C_4
REMARK    3  A    between atoms: C_2  and  N_14
REMARK    4  A    between atoms: N_9  and  C_10
REMARK    5  A    between atoms: C_10  and  C_11
REMARK    6  A    between atoms: C_10  and  C_12
REMARK    7  A    between atoms: C_10  and  C_13
REMARK    8  A    between atoms: C_17  and  N_20
REMARK    9  A    between atoms: N_23  and  C_24
REMARK                            x       y       z     vdW  Elec       q    Type
REMARK                         _______ _______ _______ _____ _____    ______ ____
ROOT
ATOM      1  N   UNL     1       0.324  -0.924   1.101  0.00  0.00    +0.387 N 
ATOM      2  C   UNL     1      -0.449  -0.551   2.292  0.00  0.00    -0.076 C 
ATOM      3  C   UNL     1      -0.058  -1.456   3.462  0.00  0.00    +0.004 C 
ATOM      4  C   UNL     1      -0.354  -2.913   3.096  0.00  0.00    +0.071 C 
ATOM      5  C   UNL     1       0.399  -3.268   1.811  0.00  0.00    +0.004 C 
ATOM      6  C   UNL     1      -0.009  -2.297   0.701  0.00  0.00    -0.076 C 
ATOM      7  H   UNL     1       1.309  -0.866   1.310  0.00  0.00    -0.081 HD
ENDROOT
BRANCH   4   8
ATOM      8  N   UNL     1       0.089  -3.791   4.182  0.00  0.00    -0.297 N 
ATOM      9  C   UNL     1      -0.483  -5.000   4.346  0.00  0.00    +0.300 C 
ATOM     10  O   UNL     1      -1.365  -5.363   3.592  0.00  0.00    -0.253 OA
ATOM     11  N   UNL     1      -0.076  -5.808   5.345  0.00  0.00    -0.297 N 
ATOM     12  H   UNL     1       0.793  -3.502   4.783  0.00  0.00    +0.151 HD
ATOM     13  H   UNL     1       0.628  -5.519   5.946  0.00  0.00    +0.151 HD
BRANCH  11  14
ATOM     14  C   UNL     1      -0.697  -7.123   5.522  0.00  0.00    +0.074 C 
ATOM     15  C   UNL     1      -0.004  -8.141   4.614  0.00  0.00    +0.022 C 
ATOM     16  C   UNL     1      -0.653  -9.514   4.800  0.00  0.00    +0.002 C 
ATOM     17  C   UNL     1      -0.510  -9.953   6.259  0.00  0.00    +0.000 C 
ATOM     18  C   UNL     1      -1.203  -8.934   7.167  0.00  0.00    +0.002 C 
ATOM     19  C   UNL     1      -0.554  -7.561   6.981  0.00  0.00    +0.022 C 
ENDBRANCH  11  14
ENDBRANCH   4   8
BRANCH   1  21
ATOM     20  C   UNL     1       0.361   1.425   0.412  0.00  0.00    -0.004 C 
ATOM     21  C   UNL     1       0.002  -0.004   0.002  0.00  0.00    +0.017 C 
BRANCH  21  22
ATOM     22  C   UNL     1       0.792  -0.388  -1.223  0.00  0.00    +0.207 C 
ATOM     23  O   UNL     1       1.867  -0.935  -1.103  0.00  0.00    -0.277 OA
ATOM     24  N   UNL     1       0.302  -0.124  -2.450  0.00  0.00    -0.242 N 
ATOM     25  C   UNL     1       1.009  -0.468  -3.546  0.00  0.00    +0.306 C 
ATOM     26  O   UNL     1       2.087  -1.016  -3.426  0.00  0.00    -0.252 OA
ATOM     27  N   UNL     1       0.519  -0.203  -4.773  0.00  0.00    -0.294 N 
ATOM     28  H   UNL     1      -0.558   0.314  -2.546  0.00  0.00    +0.159 HD
ATOM     29  H   UNL     1      -0.341   0.234  -4.869  0.00  0.00    +0.151 HD
BRANCH  27  30
ATOM     30  C   UNL     1       1.287  -0.577  -5.964  0.00  0.00    +0.028 C 
ATOM     31  C   UNL     1       1.510  -2.091  -5.973  0.00  0.00    +0.031 C 
ATOM     32  C   UNL     1       0.513  -0.168  -7.219  0.00  0.00    +0.031 C 
ATOM     33  C   UNL     1       2.640   0.137  -5.943  0.00  0.00    +0.031 C 
ENDBRANCH  27  30
ENDBRANCH  21  22
ENDBRANCH   1  21
TORSDOF 5
