REMARK  Name = ZINC49980403
REMARK  2 active torsions:
REMARK  status: ('A' for Active; 'I' for Inactive)
REMARK    1  A    between atoms: C_3  and  C_7
REMARK    2  A    between atoms: N_20  and  C_21
REMARK                            x       y       z     vdW  Elec       q    Type
REMARK                         _______ _______ _______ _____ _____    ______ ____
ROOT
ATOM      1  C   UNL     1       3.762   1.964  -0.890  0.00  0.00    +0.164 A 
ATOM      2  N   UNL     1       4.854   1.267  -0.590  0.00  0.00    -0.212 NA
ATOM      3  C   UNL     1       6.023   1.848  -0.383  0.00  0.00    +0.132 A 
ATOM      4  C   UNL     1       6.122   3.265  -0.482  0.00  0.00    +0.051 A 
ATOM      5  C   UNL     1       7.299   4.114  -0.293  0.00  0.00    -0.025 A 
ATOM      6  C   UNL     1       7.125   5.443  -0.447  0.00  0.00    -0.004 A 
ATOM      7  S   UNL     1       5.410   5.644  -0.847  0.00  0.00    -0.073 S 
ATOM      8  C   UNL     1       4.925   3.938  -0.805  0.00  0.00    +0.114 A 
ATOM      9  N   UNL     1       3.798   3.285  -1.002  0.00  0.00    -0.220 NA
ATOM     10  C   UNL     1       8.163   6.516  -0.307  0.00  0.00    +0.043 C 
ATOM     11  C   UNL     1       9.384   5.918   0.405  0.00  0.00    +0.005 C 
ATOM     12  C   UNL     1       9.738   4.586  -0.262  0.00  0.00    +0.005 C 
ATOM     13  C   UNL     1       8.668   3.543   0.062  0.00  0.00    +0.037 C 
ATOM     14  N   UNL     1       7.136   1.089  -0.072  0.00  0.00    -0.317 N 
ATOM     15  H   UNL     1       7.991   1.521   0.081  0.00  0.00    +0.148 HD
ENDROOT
BRANCH  14  16
ATOM     16  C   UNL     1       7.025  -0.369   0.025  0.00  0.00    +0.158 C 
ATOM     17  C   UNL     1       8.281  -0.937   0.690  0.00  0.00    +0.032 C 
ATOM     18  C   UNL     1       9.508  -0.135   0.295  0.00  0.00    +0.004 C 
ATOM     19  C   UNL     1       9.872  -0.255  -1.173  0.00  0.00    +0.019 C 
ATOM     20  C   UNL     1       8.804   0.395  -2.055  0.00  0.00    +0.104 C 
ATOM     21  N   UNL     1       7.750  -0.596  -2.326  0.00  0.00    -0.314 N 
ATOM     22  C   UNL     1       6.900  -0.963  -1.362  0.00  0.00    +0.233 C 
ATOM     23  O   UNL     1       6.031  -1.777  -1.595  0.00  0.00    -0.274 OA
ATOM     24  H   UNL     1       7.670  -0.984  -3.211  0.00  0.00    +0.149 HD
ENDBRANCH  14  16
BRANCH   1  27
ATOM     25  C   UNL     1       0.150   1.244  -1.628  0.00  0.00    +0.020 A 
ATOM     26  C   UNL     1       1.320   1.957  -1.432  0.00  0.00    +0.014 A 
ATOM     27  C   UNL     1       2.482   1.249  -1.110  0.00  0.00    +0.037 A 
ATOM     28  C   UNL     1       2.417  -0.139  -0.999  0.00  0.00    +0.122 A 
ATOM     29  N   UNL     1       1.279  -0.774  -1.194  0.00  0.00    -0.263 NA
ATOM     30  C   UNL     1       0.167  -0.133  -1.500  0.00  0.00    +0.111 A 
ENDBRANCH   1  27
TORSDOF 2
