REMARK  Name = ZINC65772405
REMARK  7 active torsions:
REMARK  status: ('A' for Active; 'I' for Inactive)
REMARK    1  A    between atoms: C_1  and  C_2
REMARK    2  A    between atoms: C_4  and  N_11
REMARK    3  A    between atoms: N_5  and  C_7
REMARK    4  A    between atoms: C_7  and  C_8
REMARK    5  A    between atoms: C_8  and  C_9
REMARK    6  A    between atoms: N_14  and  N_15
REMARK    7  A    between atoms: N_15  and  C_16
REMARK                            x       y       z     vdW  Elec       q    Type
REMARK                         _______ _______ _______ _____ _____    ______ ____
ROOT
ATOM      1  N   UNL     1       0.477  -3.261  -1.569  0.00  0.00    -0.253 N 
ATOM      2  C   UNL     1       0.338  -3.111  -2.901  0.00  0.00    +0.321 C 
ATOM      3  O   UNL     1       0.399  -2.004  -3.398  0.00  0.00    -0.251 OA
ATOM      4  N   UNL     1       0.132  -4.190  -3.682  0.00  0.00    -0.220 N 
ATOM      5  H   UNL     1       0.428  -4.145  -1.172  0.00  0.00    +0.158 HD
ATOM      6  H   UNL     1       0.033  -4.083  -4.641  0.00  0.00    +0.174 HD
ENDROOT
BRANCH   1  10
ATOM      7  C   UNL     1       1.155   1.447  -0.058  0.00  0.00    +0.067 C 
ATOM      8  C   UNL     1       0.995  -0.051  -0.056  0.00  0.00    +0.062 A 
ATOM      9  C   UNL     1       0.779  -0.853  -1.180  0.00  0.00    +0.068 A 
ATOM     10  C   UNL     1       0.690  -2.144  -0.760  0.00  0.00    +0.125 A 
ATOM     11  N   UNL     1       0.845  -2.148   0.583  0.00  0.00    -0.249 N 
ATOM     12  N   UNL     1       1.039  -0.825   0.999  0.00  0.00    -0.175 NA
BRANCH  11  13
ATOM     13  C   UNL     1       0.819  -3.329   1.450  0.00  0.00    +0.160 C 
BRANCH  13  14
ATOM     14  C   UNL     1       2.236  -3.892   1.587  0.00  0.00    +0.142 C 
BRANCH  14  15
ATOM     15  C   UNL     1       2.210  -5.079   2.458  0.00  0.00    +0.064 C 
ATOM     16  N   UNL     1       2.190  -5.994   3.131  0.00  0.00    -0.197 NA
ENDBRANCH  14  15
ENDBRANCH  13  14
ENDBRANCH  11  13
ENDBRANCH   1  10
BRANCH   4  17
ATOM     17  N   UNL     1       0.062  -5.467  -3.110  0.00  0.00    -0.260 N 
ATOM     18  H   UNL     1       0.079  -5.567  -2.145  0.00  0.00    +0.170 HD
BRANCH  17  19
ATOM     19  C   UNL     1      -0.033  -6.597  -3.929  0.00  0.00    +0.081 A 
ATOM     20  C   UNL     1      -0.803  -7.683  -3.531  0.00  0.00    +0.066 A 
ATOM     21  C   UNL     1      -0.894  -8.798  -4.343  0.00  0.00    +0.042 A 
ATOM     22  C   UNL     1      -0.220  -8.833  -5.551  0.00  0.00    +0.044 A 
ATOM     23  C   UNL     1       0.548  -7.753  -5.950  0.00  0.00    +0.042 A 
ATOM     24  C   UNL     1       0.639  -6.633  -5.144  0.00  0.00    +0.066 A 
ATOM     25 CL   UNL     1       1.597  -5.277  -5.649  0.00  0.00    -0.081 Cl
ATOM     26 CL   UNL     1      -0.337 -10.236  -6.567  0.00  0.00    -0.083 Cl
ATOM     27 CL   UNL     1      -1.649  -7.639  -2.016  0.00  0.00    -0.081 Cl
ENDBRANCH  17  19
ENDBRANCH   4  17
TORSDOF 6
