REMARK  Name = ZINC01839966
REMARK  4 active torsions:
REMARK  status: ('A' for Active; 'I' for Inactive)
REMARK    1  A    between atoms: C_4  and  N_7
REMARK    2  A    between atoms: C_15  and  C_19
REMARK    3  A    between atoms: C_15  and  N_23
REMARK    4  A    between atoms: C_24  and  C_26
REMARK                            x       y       z     vdW  Elec       q    Type
REMARK                         _______ _______ _______ _____ _____    ______ ____
ROOT
ATOM      1  N   UNL     1       3.087  -0.847   0.153  0.00  0.00    -0.249 N 
ATOM      2  C   UNL     1       3.311  -2.209   0.134  0.00  0.00    +0.125 A 
ATOM      3  C   UNL     1       4.599  -2.655   0.184  0.00  0.00    +0.097 A 
ATOM      4  C   UNL     1       5.658  -1.741   0.252  0.00  0.00    +0.262 A 
ATOM      5  N   UNL     1       5.391  -0.419   0.268  0.00  0.00    -0.274 N 
ATOM      6  C   UNL     1       4.118   0.014   0.214  0.00  0.00    +0.335 A 
ATOM      7  O   UNL     1       3.894   1.209   0.225  0.00  0.00    -0.246 OA
ATOM      8  O   UNL     1       6.810  -2.137   0.297  0.00  0.00    -0.267 OA
ATOM      9  C   UNL     1       4.535  -4.163   0.149  0.00  0.00    +0.240 C 
ATOM     10  C   UNL     1       3.050  -4.454   0.074  0.00  0.00    +0.256 C 
ATOM     11  O   UNL     1       2.525  -5.546   0.027  0.00  0.00    -0.272 OA
ATOM     12  N   UNL     1       2.429  -3.261   0.071  0.00  0.00    -0.269 N 
ATOM     13  H   UNL     1       6.118   0.222   0.315  0.00  0.00    +0.173 HD
ATOM     14  H   UNL     1       1.466  -3.155   0.029  0.00  0.00    +0.156 HD
ENDROOT
BRANCH   1  18
ATOM     15  C   UNL     1      -0.816   0.607   0.003  0.00  0.00    +0.000 A 
ATOM     16  C   UNL     1      -0.060   0.537  -1.154  0.00  0.00    +0.002 A 
ATOM     17  C   UNL     1       1.233   0.056  -1.107  0.00  0.00    +0.026 A 
ATOM     18  C   UNL     1       1.776  -0.358   0.102  0.00  0.00    +0.053 A 
ATOM     19  C   UNL     1       1.015  -0.286   1.262  0.00  0.00    +0.026 A 
ATOM     20  C   UNL     1      -0.279   0.196   1.208  0.00  0.00    +0.002 A 
ENDBRANCH   1  18
BRANCH   9  21
ATOM     21  C   UNL     1       5.137  -4.758   1.424  0.00  0.00    +0.424 C 
ATOM     22  F   UNL     1       4.504  -4.202   2.541  0.00  0.00    -0.167 F 
ATOM     23  F   UNL     1       4.952  -6.144   1.425  0.00  0.00    -0.167 F 
ATOM     24  F   UNL     1       6.505  -4.470   1.472  0.00  0.00    -0.167 F 
ENDBRANCH   9  21
BRANCH   9  25
ATOM     25  N   UNL     1       5.223  -4.681  -1.037  0.00  0.00    -0.287 N 
ATOM     26  C   UNL     1       4.848  -4.271  -2.265  0.00  0.00    +0.247 C 
ATOM     27  O   UNL     1       3.898  -3.524  -2.393  0.00  0.00    -0.270 OA
ATOM     28  H   UNL     1       5.947  -5.319  -0.938  0.00  0.00    +0.151 HD
BRANCH  26  29
ATOM     29  C   UNL     1       5.592  -4.731  -3.456  0.00  0.00    +0.055 A 
ATOM     30  C   UNL     1       6.681  -5.594  -3.312  0.00  0.00    +0.016 A 
ATOM     31  C   UNL     1       7.371  -6.019  -4.427  0.00  0.00    +0.021 A 
ATOM     32  C   UNL     1       6.989  -5.592  -5.688  0.00  0.00    +0.042 A 
ATOM     33  C   UNL     1       5.911  -4.736  -5.838  0.00  0.00    +0.040 A 
ATOM     34  C   UNL     1       5.207  -4.308  -4.731  0.00  0.00    +0.054 A 
ATOM     35 CL   UNL     1       3.851  -3.240  -4.920  0.00  0.00    -0.083 Cl
ATOM     36 CL   UNL     1       7.864  -6.132  -7.087  0.00  0.00    -0.083 Cl
ENDBRANCH  26  29
ENDBRANCH   9  25
TORSDOF 4
