REMARK  Name = ZINC33270960
REMARK  8 active torsions:
REMARK  status: ('A' for Active; 'I' for Inactive)
REMARK    1  A    between atoms: C_6  and  C_7
REMARK    2  A    between atoms: C_10  and  S_13
REMARK    3  A    between atoms: S_13  and  C_14
REMARK    4  A    between atoms: C_14  and  C_15
REMARK    5  A    between atoms: C_17  and  C_20
REMARK    6  A    between atoms: C_20  and  C_21
REMARK    7  A    between atoms: C_21  and  C_22
REMARK    8  A    between atoms: N_24  and  C_25
REMARK                            x       y       z     vdW  Elec       q    Type
REMARK                         _______ _______ _______ _____ _____    ______ ____
ROOT
ATOM      1  C   UNL     1       1.258   1.703   0.001  0.00  0.00    +0.182 A 
ATOM      2  N   UNL     1      -0.030   1.316   0.014  0.00  0.00    -0.195 NA
ATOM      3  C   UNL     1      -0.005   0.005   0.002  0.00  0.00    +0.228 A 
ATOM      4  O   UNL     1       1.281  -0.358  -0.018  0.00  0.00    -0.338 OA
ATOM      5  N   UNL     1       1.987   0.628  -0.018  0.00  0.00    -0.060 NA
ENDROOT
BRANCH   1   6
ATOM      6  C   UNL     1       1.763   3.123   0.008  0.00  0.00    +0.157 C 
BRANCH   6   7
ATOM      7  S   UNL     1       1.986   3.676   1.717  0.00  0.00    -0.079 S 
BRANCH   7  11
ATOM      8  C   UNL     1       3.295   7.358   1.703  0.00  0.00    +0.182 A 
ATOM      9  N   UNL     1       2.900   6.233   2.390  0.00  0.00    -0.201 NA
ATOM     10  H   UNL     1       2.598   5.487  -0.748  0.00  0.00    +0.191 HD
ATOM     11  C   UNL     1       2.565   5.316   1.435  0.00  0.00    +0.185 A 
ATOM     12  N   UNL     1       2.755   5.886   0.265  0.00  0.00    -0.253 N 
ATOM     13  N   UNL     1       3.187   7.085   0.424  0.00  0.00    -0.152 NA
BRANCH   8  19
ATOM     14  C   UNL     1       3.822   8.777   3.681  0.00  0.00    +0.014 A 
ATOM     15  C   UNL     1       4.256   9.967   4.228  0.00  0.00    +0.039 A 
ATOM     16  C   UNL     1       4.614  11.021   3.403  0.00  0.00    +0.123 A 
ATOM     17  C   UNL     1       4.544  10.884   2.025  0.00  0.00    +0.039 A 
ATOM     18  C   UNL     1       4.116   9.697   1.468  0.00  0.00    +0.014 A 
ATOM     19  C   UNL     1       3.754   8.632   2.295  0.00  0.00    +0.021 A 
ATOM     20  F   UNL     1       5.034  12.186   3.943  0.00  0.00    -0.205 F 
ENDBRANCH   8  19
ENDBRANCH   7  11
ENDBRANCH   6   7
ENDBRANCH   1   6
BRANCH   3  21
ATOM     21  C   UNL     1      -1.198  -0.916   0.007  0.00  0.00    +0.108 C 
BRANCH  21  22
ATOM     22  C   UNL     1      -1.619  -1.214  -1.433  0.00  0.00    +0.105 C 
BRANCH  22  23
ATOM     23  C   UNL     1      -2.812  -2.135  -1.427  0.00  0.00    +0.218 C 
ATOM     24  O   UNL     1      -3.279  -2.515  -0.374  0.00  0.00    -0.275 OA
ATOM     25  N   UNL     1      -3.359  -2.536  -2.591  0.00  0.00    -0.285 N 
ATOM     26  H   UNL     1      -2.984  -2.132  -3.543  0.00  0.00    +0.155 HD
BRANCH  25  27
ATOM     27  C   UNL     1      -4.405  -3.466  -2.589  0.00  0.00    +0.033 A 
ATOM     28  C   UNL     1      -4.506  -4.401  -3.611  0.00  0.00    +0.025 A 
ATOM     29  C   UNL     1      -5.537  -5.321  -3.605  0.00  0.00    +0.022 A 
ATOM     30  C   UNL     1      -6.473  -5.305  -2.586  0.00  0.00    +0.041 A 
ATOM     31  C   UNL     1      -6.377  -4.371  -1.569  0.00  0.00    +0.022 A 
ATOM     32  C   UNL     1      -5.346  -3.452  -1.568  0.00  0.00    +0.025 A 
ATOM     33 CL   UNL     1      -7.770  -6.459  -2.583  0.00  0.00    -0.084 Cl
ENDBRANCH  25  27
ENDBRANCH  22  23
ENDBRANCH  21  22
ENDBRANCH   3  21
TORSDOF 8
