REMARK  Name = ZINC10645201
REMARK  8 active torsions:
REMARK  status: ('A' for Active; 'I' for Inactive)
REMARK    1  A    between atoms: C_1  and  C_2
REMARK    2  A    between atoms: C_4  and  C_32
REMARK    3  A    between atoms: C_8  and  N_31
REMARK    4  A    between atoms: C_9  and  C_11
REMARK    5  A    between atoms: C_11  and  O_13
REMARK    6  A    between atoms: O_13  and  C_14
REMARK    7  A    between atoms: C_14  and  C_15
REMARK    8  A    between atoms: C_28  and  C_30
REMARK                            x       y       z     vdW  Elec       q    Type
REMARK                         _______ _______ _______ _____ _____    ______ ____
ROOT
ATOM      1  O   UNL     1       2.357   7.578  -0.559  0.00  0.00    -0.451 OA
ENDROOT
BRANCH   1   2
ATOM      2  C   UNL     1       2.801   6.304  -0.557  0.00  0.00    +0.348 C 
ATOM      3  O   UNL     1       3.995   6.075  -0.616  0.00  0.00    -0.244 OA
BRANCH   2  12
ATOM      4  C   UNL     1       2.336   0.792  -0.422  0.00  0.00    +0.044 C 
ATOM      5  C   UNL     1       1.031   1.544  -0.368  0.00  0.00    -0.037 A 
ATOM      6  C   UNL     1      -0.163   0.866  -0.292  0.00  0.00    +0.027 A 
ATOM      7  C   UNL     1      -1.363   1.560  -0.248  0.00  0.00    +0.040 A 
ATOM      8  N   UNL     1      -1.373   2.879  -0.268  0.00  0.00    -0.245 NA
ATOM      9  C   UNL     1      -0.257   3.573  -0.340  0.00  0.00    +0.111 A 
ATOM     10  C   UNL     1       1.016   2.961  -0.395  0.00  0.00    +0.032 A 
ATOM     11  C   UNL     1       2.141   3.880  -0.473  0.00  0.00    +0.056 A 
ATOM     12  C   UNL     1       1.879   5.233  -0.486  0.00  0.00    +0.119 A 
ATOM     13  S   UNL     1       0.101   5.311  -0.394  0.00  0.00    -0.060 S 
ATOM     14  C   UNL     1      -2.663   0.803  -0.172  0.00  0.00    +0.065 C 
BRANCH  11  15
ATOM     15  N   UNL     1       3.443   3.406  -0.532  0.00  0.00    -0.356 N 
ATOM     16  H   UNL     1       3.622   2.523  -0.890  0.00  0.00    +0.142 HD
ATOM     17  H   UNL     1       4.175   3.959  -0.215  0.00  0.00    +0.142 HD
ENDBRANCH  11  15
ENDBRANCH   2  12
ENDBRANCH   1   2
BRANCH   1  18
ATOM     18  C   UNL     1       3.344   8.609  -0.632  0.00  0.00    +0.328 C 
BRANCH  18  19
ATOM     19  C   UNL     1       2.666   9.955  -0.624  0.00  0.00    +0.258 C 
ATOM     20  O   UNL     1       1.456  10.024  -0.561  0.00  0.00    -0.271 OA
ATOM     21  N   UNL     1       3.403  11.082  -0.686  0.00  0.00    -0.264 N 
ATOM     22  C   UNL     1       4.801  11.018  -0.753  0.00  0.00    +0.058 A 
ATOM     23  C   UNL     1       5.433  10.606  -1.915  0.00  0.00    +0.025 A 
ATOM     24  C   UNL     1       6.815  10.579  -1.974  0.00  0.00    +0.002 A 
ATOM     25  C   UNL     1       7.567  10.963  -0.879  0.00  0.00    +0.002 A 
ATOM     26  C   UNL     1       6.948  11.362   0.275  0.00  0.00    +0.025 A 
ATOM     27  C   UNL     1       5.566  11.378   0.351  0.00  0.00    +0.055 A 
ATOM     28  N   UNL     1       4.914  11.745   1.535  0.00  0.00    -0.284 N 
ATOM     29  C   UNL     1       3.910  12.650   1.514  0.00  0.00    +0.219 C 
ATOM     30  O   UNL     1       3.305  12.901   2.536  0.00  0.00    -0.275 OA
ATOM     31  C   UNL     1       3.536  13.348   0.234  0.00  0.00    +0.118 C 
ATOM     32  C   UNL     1       2.760  12.396  -0.678  0.00  0.00    +0.087 C 
ATOM     33  C   UNL     1       2.738  12.959  -2.100  0.00  0.00    +0.029 C 
ATOM     34  H   UNL     1       5.186  11.347   2.377  0.00  0.00    +0.155 HD
ENDBRANCH  18  19
ENDBRANCH   1  18
TORSDOF 5
