REMARK  Name = ZINC37588158
REMARK  8 active torsions:
REMARK  status: ('A' for Active; 'I' for Inactive)
REMARK    1  A    between atoms: C_1  and  O_2
REMARK    2  A    between atoms: O_2  and  C_3
REMARK    3  A    between atoms: C_6  and  C_9
REMARK    4  A    between atoms: C_9  and  N_10
REMARK    5  A    between atoms: C_13  and  N_16
REMARK    6  A    between atoms: N_16  and  C_17
REMARK    7  A    between atoms: N_16  and  S_26
REMARK    8  A    between atoms: S_26  and  C_29
REMARK                            x       y       z     vdW  Elec       q    Type
REMARK                         _______ _______ _______ _____ _____    ______ ____
ROOT
ATOM      1  N   UNL     1      -0.779  -4.617   8.337  0.00  0.00    -0.200 N 
ENDROOT
BRANCH   1   2
ATOM      2  C   UNL     1      -1.580  -3.547   8.752  0.00  0.00    +0.055 A 
ATOM      3  C   UNL     1      -0.992  -2.399   9.267  0.00  0.00    +0.028 A 
ATOM      4  C   UNL     1      -1.782  -1.341   9.676  0.00  0.00    +0.051 A 
ATOM      5  C   UNL     1      -3.161  -1.423   9.574  0.00  0.00    +0.166 A 
ATOM      6  C   UNL     1      -3.753  -2.573   9.058  0.00  0.00    +0.168 A 
ATOM      7  C   UNL     1      -2.961  -3.631   8.643  0.00  0.00    +0.074 A 
ATOM      8  O   UNL     1      -5.108  -2.406   9.062  0.00  0.00    -0.453 OA
ATOM      9  C   UNL     1      -5.358  -1.311   9.963  0.00  0.00    +0.466 C 
ATOM     10  O   UNL     1      -4.146  -0.535   9.903  0.00  0.00    -0.453 OA
ENDBRANCH   1   2
BRANCH   1  14
ATOM     11  N   UNL     1       0.877  -2.888   4.869  0.00  0.00    +0.382 N 
ATOM     12  C   UNL     1      -0.088  -3.976   4.667  0.00  0.00    -0.077 C 
ATOM     13  C   UNL     1      -0.923  -4.163   5.936  0.00  0.00    +0.006 C 
ATOM     14  C   UNL     1       0.005  -4.511   7.104  0.00  0.00    +0.095 C 
ATOM     15  C   UNL     1       1.053  -3.405   7.257  0.00  0.00    +0.006 C 
ATOM     16  C   UNL     1       1.815  -3.245   5.940  0.00  0.00    -0.077 C 
ATOM     17  H   UNL     1       0.383  -2.046   5.123  0.00  0.00    -0.081 HD
BRANCH  11  18
ATOM     18  C   UNL     1       1.622  -2.660   3.623  0.00  0.00    -0.043 C 
BRANCH  18  22
ATOM     19  C   UNL     1      -1.056  -1.283   0.592  0.00  0.00    +0.120 A 
ATOM     20  C   UNL     1      -0.413  -0.371   1.417  0.00  0.00    +0.046 A 
ATOM     21  C   UNL     1       0.452  -0.819   2.396  0.00  0.00    +0.005 A 
ATOM     22  C   UNL     1       0.677  -2.174   2.554  0.00  0.00    -0.064 A 
ATOM     23  C   UNL     1       0.038  -3.084   1.733  0.00  0.00    +0.005 A 
ATOM     24  C   UNL     1      -0.833  -2.642   0.756  0.00  0.00    +0.046 A 
BRANCH  19  26
ATOM     25  C   UNL     1      -2.090   0.568  -0.484  0.00  0.00    +0.277 C 
ATOM     26  O   UNL     1      -1.908  -0.845  -0.372  0.00  0.00    -0.495 OA
ENDBRANCH  19  26
ENDBRANCH  18  22
ENDBRANCH  11  18
ENDBRANCH   1  14
BRANCH   1  27
ATOM     27  S   UNL     1      -0.718  -6.004   9.240  0.00  0.00    +0.075 S 
ATOM     28  O   UNL     1      -1.852  -5.981  10.097  0.00  0.00    -0.150 OA
ATOM     29  O   UNL     1      -0.469  -7.069   8.333  0.00  0.00    -0.150 OA
BRANCH  27  30
ATOM     30  C   UNL     1       0.700  -5.886  10.280  0.00  0.00    +0.109 A 
ATOM     31  C   UNL     1       1.922  -6.358   9.837  0.00  0.00    +0.030 A 
ATOM     32  C   UNL     1       3.035  -6.266  10.652  0.00  0.00    +0.022 A 
ATOM     33  C   UNL     1       2.925  -5.702  11.911  0.00  0.00    +0.041 A 
ATOM     34  C   UNL     1       1.702  -5.230  12.353  0.00  0.00    +0.022 A 
ATOM     35  C   UNL     1       0.592  -5.317  11.535  0.00  0.00    +0.030 A 
ATOM     36 CL   UNL     1       4.322  -5.587  12.935  0.00  0.00    -0.084 Cl
ENDBRANCH  27  30
ENDBRANCH   1  27
TORSDOF 7
