REMARK  Name = ZINC12305405
REMARK  7 active torsions:
REMARK  status: ('A' for Active; 'I' for Inactive)
REMARK    1  A    between atoms: N_9  and  C_10
REMARK    2  A    between atoms: C_10  and  C_11
REMARK    3  A    between atoms: C_11  and  N_12
REMARK    4  A    between atoms: C_13  and  C_15
REMARK    5  A    between atoms: C_15  and  C_16
REMARK    6  A    between atoms: C_23  and  C_24
REMARK    7  A    between atoms: C_23  and  N_55
REMARK                            x       y       z     vdW  Elec       q    Type
REMARK                         _______ _______ _______ _____ _____    ______ ____
ROOT
ATOM      1  C   UNL     1      -0.268   1.111   4.656  0.00  0.00    +0.028 C 
ATOM      2  C   UNL     1       1.124   1.663   4.781  0.00  0.00    +0.200 C 
ATOM      3  O   UNL     1       1.338   2.792   4.396  0.00  0.00    -0.278 OA
ATOM      4  N   UNL     1       2.136   0.960   5.300  0.00  0.00    -0.318 N 
ATOM      5  C   UNL     1       1.993  -0.418   5.760  0.00  0.00    +0.085 C 
ATOM      6  C   UNL     1       0.515  -0.746   5.980  0.00  0.00    -0.058 C 
ATOM      7  H   UNL     1       3.005   1.385   5.375  0.00  0.00    +0.149 HD
ATOM      8  N   UNL     1      -0.226  -0.360   4.763  0.00  0.00    +0.391 N 
ATOM      9  H   UNL     1       0.256  -0.743   3.941  0.00  0.00    -0.080 HD
ENDROOT
BRANCH   1  10
ATOM     10  C   UNL     1      -0.845   1.494   3.291  0.00  0.00    +0.089 C 
BRANCH  10  12
ATOM     11  N   UNL     1      -0.272   1.152   0.909  0.00  0.00    -0.314 N 
ATOM     12  C   UNL     1      -0.017   0.864   2.201  0.00  0.00    +0.212 C 
ATOM     13  O   UNL     1       0.878   0.097   2.486  0.00  0.00    -0.276 OA
ATOM     14  H   UNL     1      -0.989   1.765   0.682  0.00  0.00    +0.149 HD
BRANCH  11  15
ATOM     15  C   UNL     1       0.532   0.539  -0.151  0.00  0.00    +0.125 C 
BRANCH  15  16
ATOM     16  C   UNL     1       0.040   1.030  -1.513  0.00  0.00    +0.140 C 
BRANCH  16  25
ATOM     17  C   UNL     1       0.664  -3.172  -4.603  0.00  0.00    +0.001 A 
ATOM     18  C   UNL     1      -0.317  -2.968  -3.642  0.00  0.00    +0.002 A 
ATOM     19  C   UNL     1      -0.348  -1.804  -2.906  0.00  0.00    +0.026 A 
ATOM     20  C   UNL     1       0.611  -0.821  -3.128  0.00  0.00    +0.049 A 
ATOM     21  C   UNL     1       1.603  -1.032  -4.103  0.00  0.00    -0.000 A 
ATOM     22  C   UNL     1       1.616  -2.220  -4.837  0.00  0.00    +0.010 A 
ATOM     23  C   UNL     1       2.444   0.167  -4.092  0.00  0.00    +0.027 A 
ATOM     24  C   UNL     1       1.936   0.994  -3.164  0.00  0.00    +0.087 A 
ATOM     25  N   UNL     1       0.844   0.418  -2.573  0.00  0.00    -0.345 N 
ENDBRANCH  16  25
ENDBRANCH  15  16
ENDBRANCH  11  15
ENDBRANCH  10  12
ENDBRANCH   1  10
BRANCH   8  26
ATOM     26  C   UNL     1      -1.602  -0.904   4.811  0.00  0.00    -0.042 C 
BRANCH  26  27
ATOM     27  C   UNL     1      -1.549  -2.388   4.556  0.00  0.00    -0.061 A 
ATOM     28  C   UNL     1      -1.418  -3.267   5.614  0.00  0.00    +0.003 A 
ATOM     29  C   UNL     1      -1.369  -4.629   5.382  0.00  0.00    +0.023 A 
ATOM     30  C   UNL     1      -1.452  -5.113   4.089  0.00  0.00    +0.076 A 
ATOM     31  C   UNL     1      -1.584  -4.233   3.028  0.00  0.00    +0.142 A 
ATOM     32  C   UNL     1      -1.638  -2.870   3.263  0.00  0.00    +0.041 A 
ATOM     33  F   UNL     1      -1.666  -4.705   1.764  0.00  0.00    -0.204 F 
ATOM     34 CL   UNL     1      -1.393  -6.824   3.797  0.00  0.00    -0.081 Cl
ENDBRANCH  26  27
ENDBRANCH   8  26
TORSDOF 7
