REMARK  Name = ZINC02309265
REMARK  9 active torsions:
REMARK  status: ('A' for Active; 'I' for Inactive)
REMARK    1  A    between atoms: C_1  and  C_2
REMARK    2  A    between atoms: C_2  and  C_4
REMARK    3  A    between atoms: C_2  and  S_8
REMARK    4  A    between atoms: C_4  and  O_6
REMARK    5  A    between atoms: O_6  and  C_7
REMARK    6  A    between atoms: S_8  and  C_9
REMARK    7  A    between atoms: C_20  and  C_23
REMARK    8  A    between atoms: C_23  and  C_24
REMARK    9  A    between atoms: C_23  and  C_25
REMARK                            x       y       z     vdW  Elec       q    Type
REMARK                         _______ _______ _______ _____ _____    ______ ____
ROOT
ATOM      1  C   UNL     1       2.514   0.050   1.294  0.00  0.00    +0.192 A 
ATOM      2  N   UNL     1       2.819   0.747   0.206  0.00  0.00    -0.207 NA
ATOM      3  C   UNL     1       4.060   1.107  -0.073  0.00  0.00    +0.129 A 
ATOM      4  C   UNL     1       5.109   0.740   0.817  0.00  0.00    +0.051 A 
ATOM      5  C   UNL     1       6.539   1.026   0.716  0.00  0.00    -0.020 A 
ATOM      6  C   UNL     1       7.330   0.559   1.706  0.00  0.00    +0.021 A 
ATOM      7  S   UNL     1       6.235  -0.278   2.816  0.00  0.00    -0.071 S 
ATOM      8  C   UNL     1       4.712   0.001   1.950  0.00  0.00    +0.115 A 
ATOM      9  N   UNL     1       3.449  -0.315   2.161  0.00  0.00    -0.214 NA
ATOM     10  C   UNL     1       8.814   0.733   1.810  0.00  0.00    +0.203 C 
ATOM     11  O   UNL     1       9.208   1.739   0.864  0.00  0.00    -0.371 OA
ATOM     12  C   UNL     1       8.665   1.536  -0.443  0.00  0.00    +0.126 C 
ATOM     13  C   UNL     1       7.159   1.812  -0.437  0.00  0.00    +0.068 C 
ATOM     14  N   UNL     1       4.337   1.832  -1.218  0.00  0.00    -0.343 N 
ATOM     15  H   UNL     1       3.651   1.952  -1.894  0.00  0.00    +0.144 HD
ATOM     16  H   UNL     1       5.216   2.221  -1.345  0.00  0.00    +0.144 HD
ENDROOT
BRANCH  12  17
ATOM     17  C   UNL     1       9.348   2.487  -1.429  0.00  0.00    +0.012 C 
ATOM     18  C   UNL     1      10.851   2.206  -1.451  0.00  0.00    +0.010 C 
ATOM     19  C   UNL     1       8.768   2.272  -2.829  0.00  0.00    +0.010 C 
ENDBRANCH  12  17
BRANCH   1  20
ATOM     20  S   UNL     1       0.835  -0.391   1.596  0.00  0.00    -0.072 S 
BRANCH  20  22
ATOM     21  C   UNL     1       0.034   1.830   0.216  0.00  0.00    +0.031 C 
ATOM     22  C   UNL     1      -0.063   0.304   0.181  0.00  0.00    +0.160 C 
BRANCH  22  23
ATOM     23  C   UNL     1      -1.510  -0.110   0.252  0.00  0.00    +0.320 C 
ATOM     24  O   UNL     1      -2.007  -0.391   1.317  0.00  0.00    -0.250 OA
BRANCH  23  25
ATOM     25  O   UNL     1      -2.248  -0.166  -0.868  0.00  0.00    -0.467 OA
ATOM     26  C   UNL     1      -3.612  -0.566  -0.726  0.00  0.00    +0.280 C 
ENDBRANCH  23  25
ENDBRANCH  22  23
ENDBRANCH  20  22
ENDBRANCH   1  20
TORSDOF 5
