REMARK  Name = ZINC09720405
REMARK  9 active torsions:
REMARK  status: ('A' for Active; 'I' for Inactive)
REMARK    1  A    between atoms: C_1  and  C_2
REMARK    2  A    between atoms: C_2  and  C_33
REMARK    3  A    between atoms: C_6  and  C_23
REMARK    4  A    between atoms: N_8  and  C_16
REMARK    5  A    between atoms: C_16  and  N_18
REMARK    6  A    between atoms: N_18  and  C_19
REMARK    7  A    between atoms: C_19  and  C_20
REMARK    8  A    between atoms: C_20  and  O_21
REMARK    9  A    between atoms: O_21  and  C_22
REMARK                            x       y       z     vdW  Elec       q    Type
REMARK                         _______ _______ _______ _____ _____    ______ ____
ROOT
ATOM      1  C   UNL     1      -3.360   0.784  -4.148  0.00  0.00    +0.011 C 
ATOM      2  C   UNL     1      -4.491   1.736  -3.754  0.00  0.00    -0.023 C 
ATOM      3  C   UNL     1      -3.909   3.076  -3.308  0.00  0.00    +0.058 C 
ATOM      4  C   UNL     1      -2.980   2.865  -2.122  0.00  0.00    +0.017 C 
ATOM      5  C   UNL     1      -3.241   1.905  -1.222  0.00  0.00    +0.037 C 
ATOM      6  C   UNL     1      -2.434   1.613   0.016  0.00  0.00    +0.146 C 
ATOM      7  N   UNL     1      -1.156   2.290   0.074  0.00  0.00    -0.269 N 
ATOM      8  C   UNL     1      -1.080   3.680   0.138  0.00  0.00    +0.057 A 
ATOM      9  C   UNL     1      -0.580   4.324   1.259  0.00  0.00    +0.025 A 
ATOM     10  C   UNL     1      -0.567   5.707   1.302  0.00  0.00    +0.002 A 
ATOM     11  C   UNL     1      -1.050   6.446   0.237  0.00  0.00    +0.002 A 
ATOM     12  C   UNL     1      -1.534   5.807  -0.892  0.00  0.00    +0.025 A 
ATOM     13  C   UNL     1      -1.527   4.424  -0.944  0.00  0.00    +0.053 A 
ATOM     14  N   UNL     1      -1.925   3.719  -2.075  0.00  0.00    -0.316 N 
ATOM     15  C   UNL     1      -4.356   1.050  -1.392  0.00  0.00    +0.163 C 
ATOM     16  O   UNL     1      -4.577   0.202  -0.549  0.00  0.00    -0.292 OA
ATOM     17  C   UNL     1      -5.274   1.151  -2.572  0.00  0.00    +0.086 C 
ATOM     18  C   UNL     1      -5.429   1.948  -4.944  0.00  0.00    +0.011 C 
ATOM     19  H   UNL     1      -1.413   3.847  -2.888  0.00  0.00    +0.152 HD
ENDROOT
BRANCH   6  20
ATOM     20  C   UNL     1      -3.246   2.021   1.219  0.00  0.00    -0.022 A 
ATOM     21  C   UNL     1      -3.547   3.353   1.430  0.00  0.00    +0.007 A 
ATOM     22  C   UNL     1      -4.297   3.727   2.530  0.00  0.00    +0.020 A 
ATOM     23  C   UNL     1      -4.737   2.768   3.425  0.00  0.00    +0.041 A 
ATOM     24  C   UNL     1      -4.430   1.435   3.216  0.00  0.00    +0.020 A 
ATOM     25  C   UNL     1      -3.686   1.062   2.113  0.00  0.00    +0.007 A 
ATOM     26 CL   UNL     1      -5.672   3.237   4.810  0.00  0.00    -0.084 Cl
ENDBRANCH   6  20
BRANCH   7  27
ATOM     27  C   UNL     1      -0.020   1.564   0.061  0.00  0.00    +0.138 C 
ATOM     28  S   UNL     1      -0.097  -0.144  -0.018  0.00  0.00    -0.018 S 
BRANCH  27  29
ATOM     29  N   UNL     1       1.176   2.184   0.103  0.00  0.00    -0.324 N 
ATOM     30  H   UNL     1       1.220   3.152   0.147  0.00  0.00    +0.148 HD
BRANCH  29  31
ATOM     31  C   UNL     1       2.410   1.395   0.082  0.00  0.00    +0.131 C 
BRANCH  31  32
ATOM     32  C   UNL     1       3.617   2.335   0.139  0.00  0.00    +0.178 C 
BRANCH  32  33
ATOM     33  O   UNL     1       3.628   3.021   1.392  0.00  0.00    -0.381 OA
ATOM     34  C   UNL     1       4.720   3.928   1.549  0.00  0.00    +0.194 C 
ENDBRANCH  32  33
ENDBRANCH  31  32
ENDBRANCH  29  31
ENDBRANCH  27  29
ENDBRANCH   7  27
TORSDOF 6
