REMARK  Name = ZINC39328025
REMARK  14 active torsions:
REMARK  status: ('A' for Active; 'I' for Inactive)
REMARK    1  A    between atoms: C_1  and  C_2
REMARK    2  A    between atoms: C_2  and  C_3
REMARK    3  A    between atoms: C_2  and  C_4
REMARK    4  A    between atoms: C_7  and  C_10
REMARK    5  A    between atoms: C_12  and  C_38
REMARK    6  A    between atoms: C_13  and  N_37
REMARK    7  A    between atoms: C_15  and  C_21
REMARK    8  A    between atoms: C_16  and  C_17
REMARK    9  A    between atoms: C_17  and  O_19
REMARK   10  A    between atoms: O_19  and  C_20
REMARK   11  A    between atoms: C_21  and  S_22
REMARK   12  A    between atoms: S_22  and  C_23
REMARK   13  A    between atoms: C_24  and  C_35
REMARK   14  A    between atoms: C_27  and  C_29
REMARK                            x       y       z     vdW  Elec       q    Type
REMARK                         _______ _______ _______ _____ _____    ______ ____
ROOT
ATOM      1  C   UNL     1      -5.433  -2.023   0.059  0.00  0.00    +0.105 C 
ATOM      2  C   UNL     1      -6.234  -1.538  -1.118  0.00  0.00    +0.098 C 
ATOM      3  C   UNL     1      -6.451  -2.341  -2.188  0.00  0.00    +0.198 C 
ATOM      4  O   UNL     1      -5.962  -3.594  -2.236  0.00  0.00    -0.444 OA
ATOM      5  C   UNL     1      -5.576  -4.205  -1.105  0.00  0.00    +0.128 C 
ATOM      6  C   UNL     1      -5.311  -3.521   0.012  0.00  0.00    +0.088 C 
ENDROOT
BRANCH   1  10
ATOM      7  C   UNL     1      -1.535  -0.280  -0.060  0.00  0.00    -0.045 A 
ATOM      8  C   UNL     1      -2.363  -0.047   1.022  0.00  0.00    +0.004 A 
ATOM      9  C   UNL     1      -3.624  -0.611   1.060  0.00  0.00    +0.005 A 
ATOM     10  C   UNL     1      -4.058  -1.407   0.017  0.00  0.00    -0.034 A 
ATOM     11  C   UNL     1      -3.230  -1.639  -1.066  0.00  0.00    +0.005 A 
ATOM     12  C   UNL     1      -1.970  -1.072  -1.106  0.00  0.00    +0.004 A 
BRANCH   7  14
ATOM     13  C   UNL     1      -0.280   1.859  -0.044  0.00  0.00    +0.012 C 
ATOM     14  C   UNL     1      -0.160   0.335  -0.103  0.00  0.00    +0.013 C 
ATOM     15  C   UNL     1       0.657  -0.158   1.094  0.00  0.00    +0.012 C 
ENDBRANCH   7  14
ENDBRANCH   1  10
BRANCH   3  16
ATOM     16  N   UNL     1      -7.187  -1.866  -3.245  0.00  0.00    -0.328 N 
ATOM     17  H   UNL     1      -7.545  -0.965  -3.221  0.00  0.00    +0.145 HD
ATOM     18  H   UNL     1      -7.349  -2.432  -4.016  0.00  0.00    +0.145 HD
ENDBRANCH   3  16
BRANCH   6  19
ATOM     19  C   UNL     1      -4.907  -4.223   1.175  0.00  0.00    +0.339 C 
ATOM     20  O   UNL     1      -5.712  -4.454   2.057  0.00  0.00    -0.245 OA
BRANCH  19  21
ATOM     21  O   UNL     1      -3.628  -4.636   1.303  0.00  0.00    -0.465 OA
ATOM     22  C   UNL     1      -3.291  -5.338   2.501  0.00  0.00    +0.280 C 
ENDBRANCH  19  21
ENDBRANCH   6  19
BRANCH   2  23
ATOM     23  C   UNL     1      -6.774  -0.211  -1.108  0.00  0.00    +0.101 C 
ATOM     24  N   UNL     1      -7.202   0.841  -1.100  0.00  0.00    -0.191 NA
ENDBRANCH   2  23
BRANCH   5  25
ATOM     25  C   UNL     1      -5.438  -5.706  -1.096  0.00  0.00    +0.150 C 
BRANCH  25  26
ATOM     26  S   UNL     1      -7.085  -6.464  -1.042  0.00  0.00    -0.097 S 
BRANCH  26  27
ATOM     27  C   UNL     1      -6.757  -8.196  -1.036  0.00  0.00    +0.115 A 
ATOM     28  C   UNL     1      -7.827  -9.110  -1.002  0.00  0.00    +0.084 A 
ATOM     29  C   UNL     1      -7.548 -10.482  -0.998  0.00  0.00    +0.023 A 
ATOM     30  C   UNL     1      -6.227 -10.885  -1.027  0.00  0.00    +0.030 A 
ATOM     31  C   UNL     1      -5.218  -9.923  -1.060  0.00  0.00    +0.074 A 
ATOM     32  N   UNL     1      -5.508  -8.627  -1.068  0.00  0.00    -0.239 NA
BRANCH  31  33
ATOM     33  C   UNL     1      -3.800 -10.353  -1.091  0.00  0.00    +0.018 A 
ATOM     34  C   UNL     1      -2.769  -9.411  -1.012  0.00  0.00    +0.013 A 
ATOM     35  C   UNL     1      -1.462  -9.865  -1.045  0.00  0.00    +0.020 A 
ATOM     36  C   UNL     1      -1.219 -11.222  -1.154  0.00  0.00    +0.111 A 
ATOM     37  N   UNL     1      -2.212 -12.087  -1.226  0.00  0.00    -0.263 NA
ATOM     38  C   UNL     1      -3.472 -11.704  -1.193  0.00  0.00    +0.120 A 
ENDBRANCH  31  33
BRANCH  28  39
ATOM     39  C   UNL     1      -9.181  -8.643  -0.972  0.00  0.00    +0.102 C 
ATOM     40  N   UNL     1     -10.255  -8.273  -0.949  0.00  0.00    -0.191 NA
ENDBRANCH  28  39
ENDBRANCH  26  27
ENDBRANCH  25  26
ENDBRANCH   5  25
TORSDOF 11
