REMARK  Name = ZINC63411378
REMARK  6 active torsions:
REMARK  status: ('A' for Active; 'I' for Inactive)
REMARK    1  A    between atoms: C_4  and  N_32
REMARK    2  A    between atoms: C_5  and  C_7
REMARK    3  A    between atoms: C_8  and  C_9
REMARK    4  A    between atoms: N_10  and  N_11
REMARK    5  A    between atoms: C_12  and  C_14
REMARK    6  A    between atoms: C_17  and  C_20
REMARK                            x       y       z     vdW  Elec       q    Type
REMARK                         _______ _______ _______ _____ _____    ______ ____
ROOT
ATOM      1  N   UNL     1      -3.410  -2.266  -0.631  0.00  0.00    -0.205 N 
ATOM      2  C   UNL     1      -4.570  -2.919  -0.839  0.00  0.00    +0.263 C 
ATOM      3  O   UNL     1      -4.584  -4.131  -0.882  0.00  0.00    -0.271 OA
ATOM      4  H   UNL     1      -3.398  -1.296  -0.596  0.00  0.00    +0.177 HD
ENDROOT
BRANCH   2   5
ATOM      5  C   UNL     1      -5.850  -2.143  -1.018  0.00  0.00    +0.240 C 
ATOM      6  C   UNL     1      -6.432  -1.752   0.329  0.00  0.00    +0.041 C 
ATOM      7  C   UNL     1      -7.631  -2.369   0.354  0.00  0.00    +0.092 C 
ATOM      8  N   UNL     1      -7.827  -3.068  -0.795  0.00  0.00    -0.153 NA
ATOM      9  N   UNL     1      -6.896  -2.995  -1.606  0.00  0.00    -0.170 NA
BRANCH   7  10
ATOM     10  C   UNL     1      -8.596  -2.297   1.475  0.00  0.00    +0.010 A 
ATOM     11  C   UNL     1      -8.382  -1.434   2.541  0.00  0.00    +0.011 A 
ATOM     12  C   UNL     1      -9.273  -1.345   3.608  0.00  0.00    +0.005 A 
ATOM     13  C   UNL     1     -10.398  -2.114   3.638  0.00  0.00    -0.039 A 
ATOM     14  C   UNL     1     -10.630  -2.986   2.578  0.00  0.00    -0.011 A 
ATOM     15  C   UNL     1      -9.759  -3.101   1.481  0.00  0.00    -0.008 A 
ATOM     16  C   UNL     1     -10.097  -4.007   0.467  0.00  0.00    +0.009 A 
ATOM     17  C   UNL     1     -11.250  -4.729   0.585  0.00  0.00    +0.001 A 
ATOM     18  C   UNL     1     -12.104  -4.596   1.681  0.00  0.00    +0.004 A 
ATOM     19  C   UNL     1     -11.800  -3.731   2.689  0.00  0.00    -0.039 A 
ATOM     20  C   UNL     1     -12.469  -3.335   3.982  0.00  0.00    +0.040 C 
ATOM     21  C   UNL     1     -11.544  -2.269   4.609  0.00  0.00    +0.040 C 
ENDBRANCH   7  10
ENDBRANCH   2   5
BRANCH   1  23
ATOM     22  C   UNL     1      -1.099  -2.356  -0.263  0.00  0.00    +0.130 C 
ATOM     23  N   UNL     1      -2.220  -2.987  -0.465  0.00  0.00    -0.188 NA
BRANCH  22  25
ATOM     24  C   UNL     1       1.246  -2.440   0.222  0.00  0.00    +0.012 C 
ATOM     25  C   UNL     1       0.105  -3.086  -0.095  0.00  0.00    +0.022 C 
BRANCH  24  30
ATOM     26  C   UNL     1       0.151   0.879   1.581  0.00  0.00    +0.001 A 
ATOM     27  C   UNL     1       1.159   1.705   1.116  0.00  0.00    +0.002 A 
ATOM     28  C   UNL     1       2.196   1.186   0.361  0.00  0.00    +0.033 A 
ATOM     29  C   UNL     1       2.232  -0.161   0.067  0.00  0.00    +0.133 A 
ATOM     30  C   UNL     1       1.216  -1.002   0.533  0.00  0.00    +0.005 A 
ATOM     31  C   UNL     1       0.172  -0.469   1.295  0.00  0.00    +0.010 A 
BRANCH  29  32
ATOM     32  N   UNL     1       3.341  -0.715  -0.742  0.00  0.00    +0.057 N 
ATOM     33  O   UNL     1       4.172   0.025  -1.215  0.00  0.00    -0.126 OA
ATOM     34  O   UNL     1       3.417  -1.907  -0.928  0.00  0.00    -0.126 OA
ENDBRANCH  29  32
ENDBRANCH  24  30
ENDBRANCH  22  25
ENDBRANCH   1  23
TORSDOF 6
