REMARK  Name = ZINC32655368
REMARK  5 active torsions:
REMARK  status: ('A' for Active; 'I' for Inactive)
REMARK    1  A    between atoms: C_1  and  C_2
REMARK    2  A    between atoms: C_2  and  C_28
REMARK    3  A    between atoms: C_6  and  C_18
REMARK    4  A    between atoms: C_11  and  S_15
REMARK    5  A    between atoms: S_15  and  C_16
REMARK                            x       y       z     vdW  Elec       q    Type
REMARK                         _______ _______ _______ _____ _____    ______ ____
ROOT
ATOM      1  C   UNL     1      -3.675   4.491   2.813  0.00  0.00    +0.011 C 
ATOM      2  C   UNL     1      -2.288   4.496   3.461  0.00  0.00    -0.023 C 
ATOM      3  C   UNL     1      -1.273   5.113   2.497  0.00  0.00    +0.058 C 
ATOM      4  C   UNL     1      -1.202   4.284   1.237  0.00  0.00    +0.017 C 
ATOM      5  C   UNL     1      -1.419   2.952   1.270  0.00  0.00    +0.024 C 
ATOM      6  C   UNL     1      -1.332   2.114   0.020  0.00  0.00    +0.090 C 
ATOM      7  C   UNL     1      -1.430   2.961  -1.213  0.00  0.00    +0.044 A 
ATOM      8  C   UNL     1      -1.734   2.387  -2.446  0.00  0.00    +0.126 A 
ATOM      9  N   UNL     1      -1.812   3.172  -3.518  0.00  0.00    -0.207 NA
ATOM     10  C   UNL     1      -1.604   4.477  -3.421  0.00  0.00    +0.191 A 
ATOM     11  N   UNL     1      -1.312   5.054  -2.263  0.00  0.00    -0.206 NA
ATOM     12  C   UNL     1      -1.219   4.329  -1.152  0.00  0.00    +0.133 A 
ATOM     13  N   UNL     1      -0.916   4.923   0.062  0.00  0.00    -0.302 N 
ATOM     14  N   UNL     1      -1.952   1.022  -2.554  0.00  0.00    -0.343 N 
ATOM     15  C   UNL     1      -1.736   2.300   2.474  0.00  0.00    +0.162 C 
ATOM     16  O   UNL     1      -1.915   1.098   2.470  0.00  0.00    -0.292 OA
ATOM     17  C   UNL     1      -1.857   3.058   3.767  0.00  0.00    +0.086 C 
ATOM     18  C   UNL     1      -2.331   5.307   4.758  0.00  0.00    +0.011 C 
ATOM     19  H   UNL     1      -0.442   5.915   0.076  0.00  0.00    +0.153 HD
ATOM     20  H   UNL     1      -2.192   0.580  -3.532  0.00  0.00    +0.144 HD
ATOM     21  H   UNL     1      -1.886   0.382  -1.662  0.00  0.00    +0.144 HD
ENDROOT
BRANCH   6  22
ATOM     22  C   UNL     1      -0.017   1.378   0.010  0.00  0.00    -0.035 A 
ATOM     23  C   UNL     1       1.171   2.086   0.002  0.00  0.00    +0.006 A 
ATOM     24  C   UNL     1       2.377   1.412  -0.013  0.00  0.00    +0.020 A 
ATOM     25  C   UNL     1       2.397   0.029  -0.021  0.00  0.00    +0.041 A 
ATOM     26  C   UNL     1       1.208  -0.679  -0.013  0.00  0.00    +0.020 A 
ATOM     27  C   UNL     1       0.002  -0.004   0.002  0.00  0.00    +0.006 A 
ATOM     28 CL   UNL     1       3.912  -0.818  -0.040  0.00  0.00    -0.084 Cl
ENDBRANCH   6  22
BRANCH  10  29
ATOM     29  S   UNL     1      -1.718   5.473  -4.870  0.00  0.00    -0.089 S 
ATOM     30  C   UNL     1      -2.124   4.203  -6.093  0.00  0.00    +0.093 C 
ENDBRANCH  10  29
TORSDOF 2
