REMARK  Name = ZINC09116886
REMARK  10 active torsions:
REMARK  status: ('A' for Active; 'I' for Inactive)
REMARK    1  A    between atoms: C_1  and  C_2
REMARK    2  A    between atoms: C_5  and  N_8
REMARK    3  A    between atoms: C_9  and  C_11
REMARK    4  A    between atoms: C_14  and  C_17
REMARK    5  A    between atoms: C_17  and  N_18
REMARK    6  A    between atoms: N_18  and  S_19
REMARK    7  A    between atoms: S_19  and  C_22
REMARK    8  A    between atoms: C_28  and  C_33
REMARK    9  A    between atoms: C_28  and  C_34
REMARK   10  A    between atoms: N_31  and  C_32
REMARK                            x       y       z     vdW  Elec       q    Type
REMARK                         _______ _______ _______ _____ _____    ______ ____
ROOT
ATOM      1  C   UNL     1      -2.928   1.570  -2.460  0.00  0.00    +0.109 C 
ENDROOT
BRANCH   1   5
ATOM      2  C   UNL     1      -0.729   1.579   1.267  0.00  0.00    +0.075 C 
ATOM      3  C   UNL     1      -0.013   1.086   0.008  0.00  0.00    +0.013 C 
ATOM      4  C   UNL     1      -0.753   1.593  -1.232  0.00  0.00    +0.005 C 
ATOM      5  C   UNL     1      -2.188   1.063  -1.221  0.00  0.00    +0.005 C 
ATOM      6  C   UNL     1      -2.904   1.556   0.038  0.00  0.00    +0.005 C 
ATOM      7  C   UNL     1      -2.164   1.050   1.278  0.00  0.00    +0.013 C 
BRANCH   2   9
ATOM      8  N   UNL     1      -0.453   1.393   3.718  0.00  0.00    -0.312 N 
ATOM      9  C   UNL     1       0.000   1.080   2.488  0.00  0.00    +0.216 C 
ATOM     10  O   UNL     1       0.994   0.397   2.363  0.00  0.00    -0.276 OA
ATOM     11  H   UNL     1      -1.355   2.012   3.831  0.00  0.00    +0.149 HD
BRANCH   8  16
ATOM     12  C   UNL     1      -3.516   0.489   6.985  0.00  0.00    +0.007 C 
ATOM     13  C   UNL     1      -2.012   0.460   6.705  0.00  0.00    -0.014 C 
ATOM     14  C   UNL     1      -1.529   1.871   6.364  0.00  0.00    +0.005 C 
ATOM     15  C   UNL     1      -0.025   1.841   6.084  0.00  0.00    +0.022 C 
ATOM     16  C   UNL     1       0.256   0.907   4.905  0.00  0.00    +0.073 C 
ATOM     17  C   UNL     1      -0.228  -0.504   5.246  0.00  0.00    +0.022 C 
ATOM     18  C   UNL     1      -1.731  -0.474   5.526  0.00  0.00    +0.005 C 
ENDBRANCH   8  16
ENDBRANCH   2   9
ENDBRANCH   1   5
BRANCH   1  19
ATOM     19  N   UNL     1      -4.263   0.968  -2.512  0.00  0.00    -0.190 NA
ATOM     20  H   UNL     1      -4.452   0.005  -2.015  0.00  0.00    +0.148 HD
BRANCH  19  21
ATOM     21  S   UNL     1      -5.417   1.599  -3.518  0.00  0.00    +0.058 S 
ATOM     22  O   UNL     1      -6.576   0.792  -3.363  0.00  0.00    -0.153 OA
ATOM     23  O   UNL     1      -5.430   3.002  -3.291  0.00  0.00    -0.153 OA
BRANCH  21  24
ATOM     24  C   UNL     1      -4.855   1.362  -5.171  0.00  0.00    +0.106 A 
ATOM     25  C   UNL     1      -4.088   2.333  -5.788  0.00  0.00    +0.030 A 
ATOM     26  C   UNL     1      -3.640   2.150  -7.080  0.00  0.00    +0.026 A 
ATOM     27  C   UNL     1      -3.968   0.989  -7.777  0.00  0.00    +0.040 A 
ATOM     28  C   UNL     1      -4.743   0.024  -7.148  0.00  0.00    -0.010 A 
ATOM     29  C   UNL     1      -5.185   0.206  -5.856  0.00  0.00    +0.035 A 
ATOM     30  C   UNL     1      -4.923  -1.096  -8.147  0.00  0.00    +0.068 C 
ATOM     31  C   UNL     1      -4.163  -0.624  -9.368  0.00  0.00    +0.230 C 
ATOM     32  O   UNL     1      -4.043  -1.221 -10.417  0.00  0.00    -0.274 OA
ATOM     33  N   UNL     1      -3.646   0.580  -9.072  0.00  0.00    -0.273 N 
ATOM     34  C   UNL     1      -2.837   1.373 -10.001  0.00  0.00    +0.138 C 
ATOM     35  C   UNL     1      -4.321  -2.396  -7.610  0.00  0.00    +0.025 C 
ATOM     36  C   UNL     1      -6.404  -1.287  -8.478  0.00  0.00    +0.025 C 
ENDBRANCH  21  24
ENDBRANCH  19  21
ENDBRANCH   1  19
TORSDOF 6
