REMARK  Name = ZINC36633796
REMARK  6 active torsions:
REMARK  status: ('A' for Active; 'I' for Inactive)
REMARK    1  A    between atoms: N_11  and  C_15
REMARK    2  A    between atoms: C_15  and  C_16
REMARK    3  A    between atoms: C_16  and  C_17
REMARK    4  A    between atoms: N_19  and  C_20
REMARK    5  A    between atoms: C_23  and  S_26
REMARK    6  A    between atoms: S_26  and  N_29
REMARK                            x       y       z     vdW  Elec       q    Type
REMARK                         _______ _______ _______ _____ _____    ______ ____
ROOT
ATOM      1  C   UNL     1       0.032   1.365  -0.001  0.00  0.00    +0.001 A 
ATOM      2  C   UNL     1       1.226   2.062  -0.011  0.00  0.00    +0.004 A 
ATOM      3  C   UNL     1       2.424   1.379  -0.021  0.00  0.00    +0.046 A 
ATOM      4  C   UNL     1       2.439  -0.012  -0.025  0.00  0.00    +0.124 A 
ATOM      5  C   UNL     1       1.239  -0.707  -0.024  0.00  0.00    +0.003 A 
ATOM      6  C   UNL     1       0.041  -0.017  -0.007  0.00  0.00    +0.008 A 
ATOM      7  C   UNL     1       1.230  -2.208  -0.056  0.00  0.00    +0.069 C 
ATOM      8  C   UNL     1       0.111  -2.806   0.712  0.00  0.00    +0.033 A 
ATOM      9  C   UNL     1       0.090  -3.979   1.384  0.00  0.00    +0.090 A 
ATOM     10  N   UNL     1      -1.107  -4.279   1.988  0.00  0.00    -0.296 N 
ATOM     11  C   UNL     1      -2.142  -3.424   1.895  0.00  0.00    +0.292 A 
ATOM     12  O   UNL     1      -3.259  -3.535   2.369  0.00  0.00    -0.259 OA
ATOM     13  S   UNL     1      -1.522  -2.163   0.970  0.00  0.00    -0.030 S 
ATOM     14  S   UNL     1       1.534  -5.015   1.466  0.00  0.00    -0.106 S 
ATOM     15  C   UNL     1       2.631  -4.256   0.226  0.00  0.00    +0.083 C 
ATOM     16  C   UNL     1       2.572  -2.740   0.442  0.00  0.00    +0.049 C 
ATOM     17  C   UNL     1       3.686  -2.041  -0.337  0.00  0.00    +0.234 C 
ATOM     18  O   UNL     1       3.640  -0.646  -0.022  0.00  0.00    -0.491 OA
ENDROOT
BRANCH  10  19
ATOM     19  C   UNL     1      -1.257  -5.531   2.733  0.00  0.00    +0.135 C 
BRANCH  19  20
ATOM     20  C   UNL     1      -0.869  -5.305   4.195  0.00  0.00    +0.118 C 
BRANCH  20  21
ATOM     21  C   UNL     1      -1.023  -6.593   4.962  0.00  0.00    +0.219 C 
ATOM     22  O   UNL     1      -1.406  -7.594   4.394  0.00  0.00    -0.275 OA
ATOM     23  N   UNL     1      -0.736  -6.633   6.278  0.00  0.00    -0.285 N 
ATOM     24  H   UNL     1      -0.366  -5.851   6.717  0.00  0.00    +0.155 HD
BRANCH  23  25
ATOM     25  C   UNL     1      -0.970  -7.802   7.010  0.00  0.00    +0.033 A 
ATOM     26  C   UNL     1      -1.393  -7.723   8.330  0.00  0.00    +0.025 A 
ATOM     27  C   UNL     1      -1.624  -8.878   9.050  0.00  0.00    +0.030 A 
ATOM     28  C   UNL     1      -1.435 -10.114   8.458  0.00  0.00    +0.105 A 
ATOM     29  C   UNL     1      -1.013 -10.196   7.144  0.00  0.00    +0.030 A 
ATOM     30  C   UNL     1      -0.786  -9.044   6.416  0.00  0.00    +0.025 A 
BRANCH  28  31
ATOM     31  S   UNL     1      -1.730 -11.585   9.380  0.00  0.00    +0.056 S 
ATOM     32  O   UNL     1      -0.956 -12.609   8.770  0.00  0.00    -0.153 OA
ATOM     33  O   UNL     1      -1.591 -11.240  10.752  0.00  0.00    -0.153 OA
BRANCH  31  34
ATOM     34  N   UNL     1      -3.319 -11.995   9.154  0.00  0.00    -0.204 NA
ATOM     35  H   UNL     1      -3.886 -11.444   8.591  0.00  0.00    +0.144 HD
ATOM     36  H   UNL     1      -3.682 -12.785   9.583  0.00  0.00    +0.144 HD
ENDBRANCH  31  34
ENDBRANCH  28  31
ENDBRANCH  23  25
ENDBRANCH  20  21
ENDBRANCH  19  20
ENDBRANCH  10  19
TORSDOF 6
