REMARK  Name = ZINC64152365
REMARK  9 active torsions:
REMARK  status: ('A' for Active; 'I' for Inactive)
REMARK    1  A    between atoms: C_1  and  C_2
REMARK    2  A    between atoms: C_2  and  C_3
REMARK    3  A    between atoms: C_3  and  C_5
REMARK    4  A    between atoms: C_3  and  C_6
REMARK    5  A    between atoms: N_8  and  C_9
REMARK    6  A    between atoms: C_9  and  C_10
REMARK    7  A    between atoms: C_22  and  C_24
REMARK    8  A    between atoms: C_24  and  C_25
REMARK    9  A    between atoms: C_25  and  C_26
REMARK                            x       y       z     vdW  Elec       q    Type
REMARK                         _______ _______ _______ _____ _____    ______ ____
ROOT
ATOM      1  C   UNL     1       1.858  -4.550   3.664  0.00  0.00    +0.157 C 
ATOM      2  N   UNL     1       1.174  -3.934   4.827  0.00  0.00    -0.237 NA
ATOM      3  N   UNL     1       2.265  -3.578   5.750  0.00  0.00    -0.238 NA
ATOM      4  C   UNL     1       3.354  -3.158   4.827  0.00  0.00    +0.141 C 
ATOM      5  N   UNL     1       3.241  -4.024   3.684  0.00  0.00    -0.267 NA
ATOM      6  C   UNL     1       3.567  -3.392   2.387  0.00  0.00    +0.106 C 
ATOM      7  C   UNL     1       4.790  -2.451   2.564  0.00  0.00    +0.123 C 
ATOM      8  N   UNL     1       5.831  -2.960   3.408  0.00  0.00    -0.300 N 
ATOM      9  C   UNL     1       5.798  -2.664   4.875  0.00  0.00    +0.110 C 
ATOM     10  C   UNL     1       4.704  -3.427   5.479  0.00  0.00    +0.055 C 
ATOM     11  C   UNL     1       6.830  -3.699   2.885  0.00  0.00    +0.216 C 
ATOM     12  O   UNL     1       7.708  -4.127   3.604  0.00  0.00    -0.276 OA
ATOM     13  H   UNL     1       0.654  -3.115   4.549  0.00  0.00    +0.142 HD
ATOM     14  H   UNL     1       1.992  -2.819   6.357  0.00  0.00    +0.142 HD
ENDROOT
BRANCH   1  15
ATOM     15  C   UNL     1       1.158  -4.147   2.365  0.00  0.00    +0.140 C 
BRANCH  15  18
ATOM     16  C   UNL     1      -0.978  -4.539   1.259  0.00  0.00    +0.216 C 
ATOM     17  O   UNL     1      -0.622  -3.792   0.372  0.00  0.00    -0.276 OA
ATOM     18  N   UNL     1      -0.160  -4.783   2.302  0.00  0.00    -0.312 N 
ATOM     19  H   UNL     1      -0.445  -5.381   3.012  0.00  0.00    +0.149 HD
BRANCH  16  20
ATOM     20  C   UNL     1      -2.333  -5.194   1.194  0.00  0.00    +0.072 C 
ATOM     21  C   UNL     1      -3.158  -4.780   2.415  0.00  0.00    +0.017 C 
BRANCH  20  23
ATOM     22  C   UNL     1      -4.375  -5.510  -0.210  0.00  0.00    +0.004 C 
ATOM     23  C   UNL     1      -3.053  -4.751  -0.081  0.00  0.00    +0.009 C 
ENDBRANCH  20  23
ENDBRANCH  16  20
ENDBRANCH  15  18
ENDBRANCH   1  15
BRANCH  11  24
ATOM     24  C   UNL     1       6.856  -3.993   1.408  0.00  0.00    +0.100 C 
BRANCH  24  25
ATOM     25  C   UNL     1       8.085  -4.843   1.078  0.00  0.00    +0.042 C 
BRANCH  25  26
ATOM     26  C   UNL     1       8.111  -5.138  -0.399  0.00  0.00    -0.041 C 
ATOM     27  C   UNL     1       8.783  -4.453  -1.353  0.00  0.00    -0.001 A 
ATOM     28  C   UNL     1       9.656  -3.275  -1.303  0.00  0.00    +0.010 A 
ATOM     29  C   UNL     1      10.196  -2.809  -2.452  0.00  0.00    +0.001 A 
ATOM     30  C   UNL     1       9.943  -3.421  -3.687  0.00  0.00    +0.002 A 
ATOM     31  C   UNL     1       9.152  -4.508  -3.813  0.00  0.00    +0.026 A 
ATOM     32  C   UNL     1       8.531  -5.082  -2.670  0.00  0.00    +0.043 A 
ATOM     33  N   UNL     1       7.736  -6.115  -2.535  0.00  0.00    -0.380 N 
ATOM     34  C   UNL     1       7.396  -6.262  -1.115  0.00  0.00    +0.144 C 
ATOM     35  H   UNL     1       7.426  -6.689  -3.253  0.00  0.00    +0.160 HD
ENDBRANCH  25  26
ENDBRANCH  24  25
ENDBRANCH  11  24
TORSDOF 7
