REMARK  Name = ZINC45575388
REMARK  11 active torsions:
REMARK  status: ('A' for Active; 'I' for Inactive)
REMARK    1  A    between atoms: C_1  and  C_2
REMARK    2  A    between atoms: C_3  and  C_38
REMARK    3  A    between atoms: C_9  and  C_12
REMARK    4  A    between atoms: N_14  and  C_15
REMARK    5  A    between atoms: C_15  and  C_16
REMARK    6  A    between atoms: C_16  and  C_18
REMARK    7  A    between atoms: C_16  and  C_28
REMARK    8  A    between atoms: C_22  and  O_26
REMARK    9  A    between atoms: C_23  and  O_24
REMARK   10  A    between atoms: O_24  and  C_25
REMARK   11  A    between atoms: O_26  and  C_27
REMARK                            x       y       z     vdW  Elec       q    Type
REMARK                         _______ _______ _______ _____ _____    ______ ____
ROOT
ATOM      1  C   UNL     1       0.127  -3.712   7.886  0.00  0.00    +0.072 C 
ENDROOT
BRANCH   1   2
ATOM      2  C   UNL     1      -1.153  -4.455   7.605  0.00  0.00    -0.013 A 
ATOM      3  C   UNL     1      -2.397  -4.042   7.897  0.00  0.00    +0.088 A 
ATOM      4  N   UNL     1      -3.307  -4.981   7.493  0.00  0.00    -0.360 N 
ATOM      5  H   UNL     1      -4.268  -4.906   7.597  0.00  0.00    +0.165 HD
ATOM      6  C   UNL     1      -2.654  -6.048   6.916  0.00  0.00    +0.047 A 
ATOM      7  C   UNL     1      -1.277  -5.762   6.955  0.00  0.00    +0.003 A 
ATOM      8  C   UNL     1      -0.361  -6.675   6.429  0.00  0.00    +0.010 A 
ATOM      9  C   UNL     1      -0.808  -7.841   5.874  0.00  0.00    +0.001 A 
ATOM     10  C   UNL     1      -2.166  -8.126   5.830  0.00  0.00    +0.002 A 
ATOM     11  C   UNL     1      -3.087  -7.243   6.351  0.00  0.00    +0.026 A 
ENDBRANCH   1   2
BRANCH   1  12
ATOM     12  C   UNL     1       0.262  -3.487   9.370  0.00  0.00    +0.007 A 
ATOM     13  C   UNL     1      -0.703  -2.769  10.051  0.00  0.00    +0.008 A 
ATOM     14  C   UNL     1      -0.582  -2.561  11.412  0.00  0.00    +0.004 A 
ATOM     15  C   UNL     1       0.505  -3.070  12.099  0.00  0.00    +0.049 A 
ATOM     16  C   UNL     1       1.475  -3.791  11.422  0.00  0.00    +0.162 A 
ATOM     17  C   UNL     1       1.351  -4.005  10.053  0.00  0.00    +0.165 A 
BRANCH  17  18
ATOM     18  O   UNL     1       2.298  -4.717   9.385  0.00  0.00    -0.491 OA
ATOM     19  C   UNL     1       3.400  -3.984   8.846  0.00  0.00    +0.277 C 
ENDBRANCH  17  18
BRANCH  16  20
ATOM     20  O   UNL     1       2.545  -4.292  12.096  0.00  0.00    -0.491 OA
ATOM     21  C   UNL     1       2.604  -4.038  13.501  0.00  0.00    +0.277 C 
ENDBRANCH  16  20
ENDBRANCH   1  12
BRANCH   1  22
ATOM     22  C   UNL     1       0.102  -2.362   7.166  0.00  0.00    +0.117 C 
BRANCH  22  25
ATOM     23  C   UNL     1       0.069  -1.528   4.877  0.00  0.00    +0.244 C 
ATOM     24  O   UNL     1       0.058  -0.396   5.321  0.00  0.00    -0.270 OA
ATOM     25  N   UNL     1       0.091  -2.581   5.718  0.00  0.00    -0.310 N 
ATOM     26  H   UNL     1       0.100  -3.484   5.364  0.00  0.00    +0.149 HD
BRANCH  23  35
ATOM     27  C   UNL     1      -0.018   1.503   0.010  0.00  0.00    +0.046 C 
ATOM     28  C   UNL     1       0.002  -0.004   0.002  0.00  0.00    -0.022 A 
ATOM     29  C   UNL     1       0.009  -0.797  -1.081  0.00  0.00    +0.017 A 
ATOM     30  N   UNL     1       0.028  -2.111  -0.697  0.00  0.00    -0.358 N 
ATOM     31  H   UNL     1       0.037  -2.868  -1.304  0.00  0.00    +0.166 HD
ATOM     32  C   UNL     1       0.035  -2.200   0.674  0.00  0.00    +0.047 A 
ATOM     33  C   UNL     1       0.025  -0.883   1.175  0.00  0.00    +0.004 A 
ATOM     34  C   UNL     1       0.035  -0.661   2.549  0.00  0.00    +0.023 A 
ATOM     35  C   UNL     1       0.058  -1.749   3.417  0.00  0.00    +0.037 A 
ATOM     36  C   UNL     1       0.071  -3.054   2.906  0.00  0.00    +0.015 A 
ATOM     37  C   UNL     1       0.054  -3.275   1.561  0.00  0.00    +0.027 A 
ATOM     38  C   UNL     1      -0.004  -0.313  -2.507  0.00  0.00    +0.063 C 
ENDBRANCH  23  35
ENDBRANCH  22  25
ENDBRANCH   1  22
TORSDOF 7
