REMARK  Name = ZINC12546239
REMARK  5 active torsions:
REMARK  status: ('A' for Active; 'I' for Inactive)
REMARK    1  A    between atoms: C_9  and  C_11
REMARK    2  A    between atoms: C_15  and  N_16
REMARK    3  A    between atoms: C_17  and  C_19
REMARK    4  A    between atoms: C_19  and  C_20
REMARK    5  A    between atoms: C_20  and  N_21
REMARK                            x       y       z     vdW  Elec       q    Type
REMARK                         _______ _______ _______ _____ _____    ______ ____
ROOT
ATOM      1  N   UNL     1      -5.503   1.228   2.960  0.00  0.00    -0.279 N 
ATOM      2  C   UNL     1      -6.763   0.991   2.543  0.00  0.00    +0.219 C 
ATOM      3  O   UNL     1      -6.966   0.629   1.403  0.00  0.00    -0.275 OA
ATOM      4  H   UNL     1      -5.340   1.517   3.872  0.00  0.00    +0.155 HD
ENDROOT
BRANCH   1   9
ATOM      5  C   UNL     1      -3.079   1.148   2.340  0.00  0.00    +0.049 A 
ATOM      6  C   UNL     1      -2.162   0.924   1.238  0.00  0.00    -0.025 A 
ATOM      7  C   UNL     1      -2.725   0.644   0.040  0.00  0.00    -0.005 A 
ATOM      8  S   UNL     1      -4.471   0.670   0.343  0.00  0.00    -0.077 S 
ATOM      9  C   UNL     1      -4.437   1.058   2.084  0.00  0.00    +0.083 A 
ATOM     10  C   UNL     1      -2.019   0.374  -1.253  0.00  0.00    +0.043 C 
ATOM     11  C   UNL     1      -0.558   0.825  -1.111  0.00  0.00    +0.005 C 
ATOM     12  C   UNL     1       0.001   0.272   0.203  0.00  0.00    +0.005 C 
ATOM     13  C   UNL     1      -0.647   0.993   1.386  0.00  0.00    +0.037 C 
BRANCH   5  22
ATOM     14  C   UNL     1      -0.482   2.464   7.590  0.00  0.00    +0.002 A 
ATOM     15  C   UNL     1      -1.782   2.343   8.060  0.00  0.00    +0.002 A 
ATOM     16  C   UNL     1      -2.810   2.034   7.198  0.00  0.00    +0.030 A 
ATOM     17  C   UNL     1      -2.542   1.839   5.839  0.00  0.00    +0.089 A 
ATOM     18  C   UNL     1      -1.223   1.962   5.370  0.00  0.00    +0.066 A 
ATOM     19  C   UNL     1      -0.201   2.275   6.253  0.00  0.00    +0.028 A 
ATOM     20  N   UNL     1      -1.272   1.712   4.010  0.00  0.00    -0.338 N 
ATOM     21  H   UNL     1      -0.497   1.715   3.378  0.00  0.00    +0.167 HD
ATOM     22  C   UNL     1      -2.580   1.460   3.691  0.00  0.00    +0.142 A 
ATOM     23  N   UNL     1      -3.322   1.533   4.772  0.00  0.00    -0.228 NA
ENDBRANCH   5  22
ENDBRANCH   1   9
BRANCH   2  24
ATOM     24  C   UNL     1      -7.918   1.175   3.493  0.00  0.00    +0.115 C 
BRANCH  24  25
ATOM     25  C   UNL     1      -9.227   0.843   2.774  0.00  0.00    +0.120 C 
BRANCH  25  26
ATOM     26  N   UNL     1     -10.350   1.022   3.698  0.00  0.00    -0.298 N 
ATOM     27  C   UNL     1     -10.772  -0.064   4.474  0.00  0.00    +0.048 A 
ATOM     28  C   UNL     1     -10.766  -1.345   3.952  0.00  0.00    +0.024 A 
ATOM     29  C   UNL     1     -11.183  -2.411   4.729  0.00  0.00    +0.002 A 
ATOM     30  C   UNL     1     -11.602  -2.208   6.030  0.00  0.00    +0.001 A 
ATOM     31  C   UNL     1     -11.608  -0.931   6.566  0.00  0.00    +0.017 A 
ATOM     32  C   UNL     1     -11.192   0.137   5.794  0.00  0.00    +0.034 A 
ATOM     33  S   UNL     1     -11.187   1.777   6.450  0.00  0.00    -0.086 S 
ATOM     34  C   UNL     1     -11.424   2.762   5.003  0.00  0.00    +0.034 A 
ATOM     35  C   UNL     1     -10.975   2.271   3.774  0.00  0.00    +0.048 A 
ATOM     36  C   UNL     1     -11.155   3.034   2.631  0.00  0.00    +0.024 A 
ATOM     37  C   UNL     1     -11.774   4.269   2.715  0.00  0.00    +0.002 A 
ATOM     38  C   UNL     1     -12.216   4.750   3.933  0.00  0.00    +0.001 A 
ATOM     39  C   UNL     1     -12.041   3.995   5.081  0.00  0.00    +0.017 A 
ENDBRANCH  25  26
ENDBRANCH  24  25
ENDBRANCH   2  24
TORSDOF 5
