REMARK  Name = ZINC39637338
REMARK  7 active torsions:
REMARK  status: ('A' for Active; 'I' for Inactive)
REMARK    1  A    between atoms: C_1  and  C_2
REMARK    2  A    between atoms: C_7  and  N_12
REMARK    3  A    between atoms: C_9  and  C_11
REMARK    4  A    between atoms: C_13  and  C_15
REMARK    5  A    between atoms: C_26  and  C_28
REMARK    6  A    between atoms: C_28  and  O_29
REMARK    7  A    between atoms: O_29  and  C_30
REMARK                            x       y       z     vdW  Elec       q    Type
REMARK                         _______ _______ _______ _____ _____    ______ ____
ROOT
ATOM      1  C   UNL     1      -2.287  -4.298   1.743  0.00  0.00    +0.100 C 
ATOM      2  C   UNL     1      -3.149  -3.495   2.743  0.00  0.00    +0.121 C 
ATOM      3  N   UNL     1      -4.051  -4.501   3.352  0.00  0.00    -0.297 N 
ATOM      4  C   UNL     1      -3.197  -5.699   3.533  0.00  0.00    +0.115 C 
ATOM      5  C   UNL     1      -2.320  -5.744   2.266  0.00  0.00    -0.004 C 
ATOM      6  C   UNL     1      -0.911  -6.212   2.616  0.00  0.00    -0.010 C 
ATOM      7  C   UNL     1      -0.962  -7.671   3.078  0.00  0.00    -0.082 C 
ATOM      8  N   UNL     1      -1.525  -8.505   2.008  0.00  0.00    +0.379 N 
ATOM      9  C   UNL     1      -2.913  -8.108   1.742  0.00  0.00    -0.082 C 
ATOM     10  C   UNL     1      -2.944  -6.668   1.224  0.00  0.00    -0.010 C 
ATOM     11  C   UNL     1      -5.353  -4.359   3.670  0.00  0.00    +0.253 C 
ATOM     12  O   UNL     1      -5.960  -5.283   4.168  0.00  0.00    -0.272 OA
ATOM     13  H   UNL     1      -0.976  -8.389   1.169  0.00  0.00    -0.086 HD
ATOM     14  H   UNL     1      -1.501  -9.473   2.291  0.00  0.00    -0.086 HD
ENDROOT
BRANCH   1  16
ATOM     15  N   UNL     1      -0.139  -3.841   0.604  0.00  0.00    -0.312 N 
ATOM     16  C   UNL     1      -0.873  -3.776   1.733  0.00  0.00    +0.218 C 
ATOM     17  O   UNL     1      -0.396  -3.298   2.740  0.00  0.00    -0.275 OA
ATOM     18  H   UNL     1      -0.521  -4.224  -0.201  0.00  0.00    +0.149 HD
BRANCH  15  24
ATOM     19  C   UNL     1       1.913  -3.774  -3.171  0.00  0.00    +0.008 C 
ATOM     20  C   UNL     1       1.525  -4.167  -1.744  0.00  0.00    -0.009 C 
ATOM     21  C   UNL     1       2.474  -5.255  -1.239  0.00  0.00    +0.003 C 
ATOM     22  C   UNL     1       2.086  -5.648   0.188  0.00  0.00    +0.002 C 
ATOM     23  C   UNL     1       2.184  -4.423   1.099  0.00  0.00    +0.022 C 
ATOM     24  C   UNL     1       1.235  -3.334   0.594  0.00  0.00    +0.076 C 
ATOM     25  C   UNL     1       1.623  -2.941  -0.833  0.00  0.00    +0.009 C 
ATOM     26  C   UNL     1       0.674  -1.853  -1.339  0.00  0.00    +0.009 C 
ENDBRANCH  15  24
ENDBRANCH   1  16
BRANCH  11  27
ATOM     27  C   UNL     1      -6.054  -3.051   3.406  0.00  0.00    +0.324 C 
BRANCH  27  28
ATOM     28  O   UNL     1      -7.416  -3.148   3.826  0.00  0.00    -0.483 OA
BRANCH  28  29
ATOM     29  C   UNL     1      -8.194  -2.046   3.657  0.00  0.00    +0.123 A 
ATOM     30  C   UNL     1      -7.658  -0.897   3.093  0.00  0.00    +0.046 A 
ATOM     31  C   UNL     1      -8.450   0.221   2.922  0.00  0.00    +0.005 A 
ATOM     32  C   UNL     1      -9.777   0.197   3.311  0.00  0.00    +0.020 A 
ATOM     33  C   UNL     1     -10.314  -0.947   3.873  0.00  0.00    +0.044 A 
ATOM     34  C   UNL     1      -9.526  -2.071   4.042  0.00  0.00    +0.065 A 
ATOM     35 CL   UNL     1     -11.980  -0.974   4.362  0.00  0.00    -0.083 Cl
ENDBRANCH  28  29
ENDBRANCH  27  28
ENDBRANCH  11  27
TORSDOF 5
