REMARK  Name = ZINC15277572
REMARK  6 active torsions:
REMARK  status: ('A' for Active; 'I' for Inactive)
REMARK    1  A    between atoms: C_1  and  C_2
REMARK    2  A    between atoms: C_2  and  C_3
REMARK    3  A    between atoms: C_3  and  C_32
REMARK    4  A    between atoms: C_8  and  C_10
REMARK    5  A    between atoms: C_15  and  O_16
REMARK    6  A    between atoms: N_19  and  C_22
REMARK                            x       y       z     vdW  Elec       q    Type
REMARK                         _______ _______ _______ _____ _____    ______ ____
ROOT
ATOM      1  C   UNL     1      -1.118   1.477  -0.674  0.00  0.00    +0.048 C 
ATOM      2  C   UNL     1       0.062   1.038   0.083  0.00  0.00    +0.086 C 
ATOM      3  C   UNL     1      -0.354   1.345   1.577  0.00  0.00    +0.077 C 
ATOM      4  C   UNL     1      -1.723   0.653   1.511  0.00  0.00    -0.023 C 
ATOM      5  C   UNL     1       0.800   0.614   2.210  0.00  0.00    +0.229 C 
ATOM      6  O   UNL     1       0.787  -0.015   3.246  0.00  0.00    -0.275 OA
ATOM      7  N   UNL     1       1.864   0.806   1.375  0.00  0.00    -0.209 N 
ATOM      8  C   UNL     1       1.490   1.246   0.130  0.00  0.00    +0.229 C 
ATOM      9  O   UNL     1       2.201   1.707  -0.738  0.00  0.00    -0.275 OA
ATOM     10  N   UNL     1      -2.264   1.140   0.210  0.00  0.00    +0.396 N 
ATOM     11  H   UNL     1      -2.834   0.405  -0.225  0.00  0.00    -0.083 HD
ATOM     12  H   UNL     1      -2.841   1.975   0.364  0.00  0.00    -0.083 HD
ENDROOT
BRANCH   7  13
ATOM     13  C   UNL     1       3.193   0.580   1.750  0.00  0.00    +0.052 A 
ATOM     14  C   UNL     1       3.940   1.594   2.308  0.00  0.00    +0.024 A 
ATOM     15  C   UNL     1       5.263   1.380   2.685  0.00  0.00    +0.002 A 
ATOM     16  C   UNL     1       5.854   0.166   2.514  0.00  0.00    +0.008 A 
ATOM     17  C   UNL     1       5.127  -0.895   1.948  0.00  0.00    -0.016 A 
ATOM     18  C   UNL     1       3.778  -0.690   1.566  0.00  0.00    +0.004 A 
ATOM     19  C   UNL     1       3.055  -1.749   0.995  0.00  0.00    +0.010 A 
ATOM     20  C   UNL     1       3.653  -2.961   0.827  0.00  0.00    +0.001 A 
ATOM     21  C   UNL     1       4.978  -3.165   1.207  0.00  0.00    +0.001 A 
ATOM     22  C   UNL     1       5.712  -2.159   1.758  0.00  0.00    +0.008 A 
ENDBRANCH   7  13
BRANCH   4  23
ATOM     23  C   UNL     1      -2.597   1.089   2.659  0.00  0.00    -0.019 A 
ATOM     24  C   UNL     1      -2.271   2.217   3.387  0.00  0.00    +0.005 A 
ATOM     25  C   UNL     1      -3.075   2.619   4.438  0.00  0.00    +0.000 A 
ATOM     26  C   UNL     1      -4.201   1.888   4.769  0.00  0.00    +0.004 A 
ATOM     27  C   UNL     1      -4.529   0.757   4.047  0.00  0.00    +0.045 A 
ATOM     28  C   UNL     1      -3.726   0.354   2.989  0.00  0.00    +0.118 A 
BRANCH  28  29
ATOM     29  O   UNL     1      -4.046  -0.759   2.278  0.00  0.00    -0.507 OA
ATOM     30  H   UNL     1      -3.721  -1.582   2.667  0.00  0.00    +0.292 HD
ENDBRANCH  28  29
ENDBRANCH   4  23
BRANCH   1  31
ATOM     31  C   UNL     1      -1.231   0.709  -1.966  0.00  0.00    +0.346 C 
ATOM     32  O   UNL     1      -0.245   0.225  -2.469  0.00  0.00    -0.248 OA
ATOM     33  O   UNL     1      -2.427   0.563  -2.558  0.00  0.00    -0.248 OA
ENDBRANCH   1  31
BRANCH   1  35
ATOM     34  C   UNL     1      -2.342   3.436  -1.627  0.00  0.00    +0.003 C 
ATOM     35  C   UNL     1      -1.048   2.981  -0.949  0.00  0.00    -0.004 C 
ENDBRANCH   1  35
TORSDOF 5
