REMARK  Name = ZINC29481351
REMARK  7 active torsions:
REMARK  status: ('A' for Active; 'I' for Inactive)
REMARK    1  A    between atoms: C_1  and  C_2
REMARK    2  A    between atoms: C_5  and  N_9
REMARK    3  A    between atoms: C_10  and  C_12
REMARK    4  A    between atoms: C_12  and  C_14
REMARK    5  A    between atoms: C_12  and  N_25
REMARK    6  A    between atoms: C_14  and  C_15
REMARK    7  A    between atoms: C_26  and  C_28
REMARK                            x       y       z     vdW  Elec       q    Type
REMARK                         _______ _______ _______ _____ _____    ______ ____
ROOT
ATOM      1  C   UNL     1       3.744  -0.965   0.176  0.00  0.00    +0.164 C 
ENDROOT
BRANCH   1   3
ATOM      2  N   UNL     1       2.403   1.105  -0.015  0.00  0.00    -0.282 N 
ATOM      3  C   UNL     1       2.427  -0.239   0.079  0.00  0.00    +0.238 C 
ATOM      4  O   UNL     1       1.388  -0.865   0.086  0.00  0.00    -0.273 OA
ATOM      5  H   UNL     1       3.345   1.668  -0.095  0.00  0.00    +0.155 HD
BRANCH   2  10
ATOM      6  C   UNL     1      -2.558   3.863  -0.003  0.00  0.00    +0.044 C 
ATOM      7  C   UNL     1      -1.240   3.131  -0.006  0.00  0.00    -0.048 A 
ATOM      8  C   UNL     1      -1.141   1.891  -0.609  0.00  0.00    +0.005 A 
ATOM      9  C   UNL     1       0.064   1.215  -0.609  0.00  0.00    +0.026 A 
ATOM     10  C   UNL     1       1.179   1.786  -0.011  0.00  0.00    +0.069 A 
ATOM     11  C   UNL     1       1.079   3.035   0.590  0.00  0.00    +0.145 A 
ATOM     12  C   UNL     1      -0.132   3.704   0.591  0.00  0.00    +0.043 A 
ATOM     13  F   UNL     1       2.161   3.595   1.173  0.00  0.00    -0.204 F 
ENDBRANCH   2  10
ENDBRANCH   1   3
BRANCH   1  14
ATOM     14  N   UNL     1       3.502  -2.406   0.268  0.00  0.00    -0.300 N 
ATOM     15  C   UNL     1       4.416  -3.207   0.851  0.00  0.00    +0.245 C 
ATOM     16  O   UNL     1       5.441  -2.733   1.301  0.00  0.00    -0.270 OA
ATOM     17  H   UNL     1       2.574  -2.835  -0.139  0.00  0.00    +0.150 HD
BRANCH  15  18
ATOM     18  C   UNL     1       4.172  -4.662   0.944  0.00  0.00    +0.037 A 
ATOM     19  C   UNL     1       2.993  -5.209   0.433  0.00  0.00    +0.014 A 
ATOM     20  C   UNL     1       2.774  -6.567   0.516  0.00  0.00    +0.021 A 
ATOM     21  C   UNL     1       3.714  -7.388   1.116  0.00  0.00    +0.041 A 
ATOM     22  C   UNL     1       4.883  -6.851   1.630  0.00  0.00    +0.021 A 
ATOM     23  C   UNL     1       5.117  -5.494   1.547  0.00  0.00    +0.014 A 
ATOM     24 CL   UNL     1       3.428  -9.097   1.224  0.00  0.00    -0.084 Cl
ENDBRANCH  15  18
ENDBRANCH   1  14
BRANCH   1  25
ATOM     25  C   UNL     1       4.583  -0.666  -1.068  0.00  0.00    +0.069 C 
BRANCH  25  26
ATOM     26  C   UNL     1       5.947  -1.290  -0.915  0.00  0.00    -0.020 A 
ATOM     27  C   UNL     1       7.056  -0.685  -0.465  0.00  0.00    +0.087 A 
ATOM     28  N   UNL     1       8.102  -1.567  -0.464  0.00  0.00    -0.360 N 
ATOM     29  H   UNL     1       9.095  -1.244  -0.117  0.00  0.00    +0.165 HD
ATOM     30  C   UNL     1       7.682  -2.791  -0.934  0.00  0.00    +0.047 A 
ATOM     31  C   UNL     1       6.313  -2.672  -1.237  0.00  0.00    +0.003 A 
ATOM     32  C   UNL     1       5.613  -3.770  -1.738  0.00  0.00    +0.010 A 
ATOM     33  C   UNL     1       6.261  -4.958  -1.932  0.00  0.00    +0.001 A 
ATOM     34  C   UNL     1       7.611  -5.080  -1.635  0.00  0.00    +0.002 A 
ATOM     35  C   UNL     1       8.322  -4.009  -1.139  0.00  0.00    +0.026 A 
ENDBRANCH  25  26
ENDBRANCH   1  25
TORSDOF 6
