REMARK  Name = ZINC39895354
REMARK  10 active torsions:
REMARK  status: ('A' for Active; 'I' for Inactive)
REMARK    1  A    between atoms: C_1  and  C_2
REMARK    2  A    between atoms: C_5  and  C_8
REMARK    3  A    between atoms: C_9  and  C_36
REMARK    4  A    between atoms: C_10  and  N_35
REMARK    5  A    between atoms: C_15  and  N_25
REMARK    6  A    between atoms: C_16  and  C_17
REMARK    7  A    between atoms: N_25  and  C_26
REMARK    8  A    between atoms: C_29  and  C_32
REMARK    9  A    between atoms: C_32  and  C_33
REMARK   10  A    between atoms: C_32  and  C_34
REMARK                            x       y       z     vdW  Elec       q    Type
REMARK                         _______ _______ _______ _____ _____    ______ ____
ROOT
ATOM      1  C   UNL     1       0.095  -4.260  -0.103  0.00  0.00    +0.019 A 
ATOM      2  C   UNL     1      -1.068  -4.989  -0.444  0.00  0.00    +0.100 A 
ATOM      3  C   UNL     1      -1.069  -6.376  -0.207  0.00  0.00    +0.135 A 
ATOM      4  N   UNL     1      -0.031  -6.989   0.314  0.00  0.00    -0.230 NA
ATOM      5  C   UNL     1       1.107  -6.348   0.660  0.00  0.00    +0.095 A 
ATOM      6  C   UNL     1       1.163  -4.960   0.439  0.00  0.00    +0.049 A 
ATOM      7  S   UNL     1       2.778  -4.485   0.997  0.00  0.00    -0.071 S 
ATOM      8  C   UNL     1       3.384  -6.080   1.510  0.00  0.00    +0.085 A 
ATOM      9  C   UNL     1       2.316  -6.928   1.243  0.00  0.00    +0.091 A 
ENDROOT
BRANCH   9  10
ATOM     10  C   UNL     1       2.404  -8.361   1.524  0.00  0.00    +0.251 C 
ATOM     11  O   UNL     1       2.828  -9.123   0.674  0.00  0.00    -0.270 OA
ATOM     12  N   UNL     1       2.015  -8.838   2.723  0.00  0.00    -0.293 N 
ATOM     13  C   UNL     1       1.494  -7.937   3.764  0.00  0.00    +0.136 C 
ATOM     14  C   UNL     1       0.168  -8.509   4.277  0.00  0.00    +0.179 C 
ATOM     15  O   UNL     1       0.358  -9.874   4.656  0.00  0.00    -0.377 OA
ATOM     16  C   UNL     1       0.744 -10.732   3.579  0.00  0.00    +0.179 C 
ATOM     17  C   UNL     1       2.095 -10.275   3.028  0.00  0.00    +0.136 C 
ENDBRANCH   9  10
BRANCH   1  22
ATOM     18  C   UNL     1       0.395   1.425  -0.957  0.00  0.00    +0.044 C 
ATOM     19  C   UNL     1       0.317  -0.063  -0.734  0.00  0.00    -0.050 A 
ATOM     20  C   UNL     1       0.204  -0.918  -1.816  0.00  0.00    +0.004 A 
ATOM     21  C   UNL     1       0.132  -2.281  -1.618  0.00  0.00    +0.009 A 
ATOM     22  C   UNL     1       0.173  -2.798  -0.323  0.00  0.00    -0.015 A 
ATOM     23  C   UNL     1       0.286  -1.931   0.764  0.00  0.00    +0.009 A 
ATOM     24  C   UNL     1       0.363  -0.570   0.553  0.00  0.00    +0.004 A 
ENDBRANCH   1  22
BRANCH   3  25
ATOM     25  N   UNL     1      -2.196  -7.115  -0.532  0.00  0.00    -0.342 N 
ATOM     26  H   UNL     1      -2.970  -6.675  -0.917  0.00  0.00    +0.144 HD
ATOM     27  H   UNL     1      -2.210  -8.072  -0.374  0.00  0.00    +0.144 HD
ENDBRANCH   3  25
BRANCH   8  28
ATOM     28  N   UNL     1       4.609  -6.395   2.049  0.00  0.00    -0.308 N 
ATOM     29  H   UNL     1       4.845  -7.322   2.211  0.00  0.00    +0.153 HD
BRANCH  28  30
ATOM     30  C   UNL     1       5.516  -5.379   2.364  0.00  0.00    +0.032 A 
ATOM     31  C   UNL     1       6.881  -5.594   2.218  0.00  0.00    +0.023 A 
ATOM     32  C   UNL     1       7.774  -4.588   2.529  0.00  0.00    +0.006 A 
ATOM     33  C   UNL     1       7.311  -3.367   2.986  0.00  0.00    -0.045 A 
ATOM     34  C   UNL     1       5.953  -3.150   3.133  0.00  0.00    +0.006 A 
ATOM     35  C   UNL     1       5.054  -4.150   2.817  0.00  0.00    +0.023 A 
BRANCH  33  36
ATOM     36  C   UNL     1       8.288  -2.272   3.325  0.00  0.00    +0.013 C 
ATOM     37  C   UNL     1       8.011  -1.051   2.446  0.00  0.00    +0.012 C 
ATOM     38  C   UNL     1       8.131  -1.886   4.798  0.00  0.00    +0.012 C 
ENDBRANCH  33  36
ENDBRANCH  28  30
ENDBRANCH   8  28
BRANCH   2  39
ATOM     39  C   UNL     1      -2.208  -4.336  -1.012  0.00  0.00    +0.103 C 
ATOM     40  N   UNL     1      -3.113  -3.817  -1.463  0.00  0.00    -0.191 NA
ENDBRANCH   2  39
TORSDOF 7
