REMARK  Name = ZINC65456976
REMARK  6 active torsions:
REMARK  status: ('A' for Active; 'I' for Inactive)
REMARK    1  A    between atoms: C_1  and  C_2
REMARK    2  A    between atoms: C_6  and  C_8
REMARK    3  A    between atoms: C_11  and  C_14
REMARK    4  A    between atoms: C_24  and  N_26
REMARK    5  A    between atoms: N_26  and  C_27
REMARK    6  A    between atoms: N_26  and  C_28
REMARK                            x       y       z     vdW  Elec       q    Type
REMARK                         _______ _______ _______ _____ _____    ______ ____
ROOT
ATOM      1  C   UNL     1       0.097  -4.969   6.068  0.00  0.00    +0.062 C 
ATOM      2  C   UNL     1       1.361  -5.827   6.138  0.00  0.00    +0.109 C 
ATOM      3  C   UNL     1       1.257  -6.973   5.168  0.00  0.00    +0.218 C 
ATOM      4  O   UNL     1       2.251  -7.363   4.593  0.00  0.00    -0.275 OA
ATOM      5  N   UNL     1       0.074  -7.569   4.931  0.00  0.00    -0.285 N 
ATOM      6  C   UNL     1      -1.086  -7.123   5.572  0.00  0.00    +0.039 A 
ATOM      7  C   UNL     1      -1.119  -5.857   6.143  0.00  0.00    -0.018 A 
ATOM      8  C   UNL     1      -2.262  -5.413   6.778  0.00  0.00    +0.008 A 
ATOM      9  C   UNL     1      -3.377  -6.227   6.847  0.00  0.00    +0.023 A 
ATOM     10  C   UNL     1      -3.351  -7.494   6.278  0.00  0.00    +0.031 A 
ATOM     11  C   UNL     1      -2.203  -7.942   5.640  0.00  0.00    +0.046 A 
ATOM     12  H   UNL     1       0.026  -8.314   4.311  0.00  0.00    +0.155 HD
ENDROOT
BRANCH   1  16
ATOM     13  C   UNL     1       0.052  -2.846   2.463  0.00  0.00    +0.160 A 
ATOM     14  N   UNL     1       0.043  -2.177   3.608  0.00  0.00    -0.235 NA
ATOM     15  C   UNL     1       0.056  -2.817   4.764  0.00  0.00    +0.119 A 
ATOM     16  C   UNL     1       0.080  -4.204   4.769  0.00  0.00    -0.003 A 
ATOM     17  C   UNL     1       0.089  -4.872   3.554  0.00  0.00    +0.119 A 
ATOM     18  N   UNL     1       0.070  -4.171   2.433  0.00  0.00    -0.235 NA
BRANCH  13  24
ATOM     19  C   UNL     1      -0.018   1.503   0.010  0.00  0.00    +0.044 C 
ATOM     20  C   UNL     1       0.002  -0.004   0.002  0.00  0.00    -0.050 A 
ATOM     21  C   UNL     1       0.006  -0.688  -1.201  0.00  0.00    +0.003 A 
ATOM     22  C   UNL     1       0.025  -2.071  -1.216  0.00  0.00    +0.001 A 
ATOM     23  C   UNL     1       0.040  -2.776  -0.030  0.00  0.00    +0.011 A 
ATOM     24  C   UNL     1       0.036  -2.093   1.185  0.00  0.00    +0.019 A 
ATOM     25  C   UNL     1       0.023  -0.699   1.194  0.00  0.00    +0.015 A 
ENDBRANCH  13  24
ENDBRANCH   1  16
BRANCH  10  26
ATOM     26  N   UNL     1      -4.478  -8.316   6.348  0.00  0.00    -0.336 N 
ATOM     27  C   UNL     1      -5.689  -7.842   7.023  0.00  0.00    +0.129 C 
ATOM     28  C   UNL     1      -4.449  -9.652   5.747  0.00  0.00    +0.129 C 
ENDBRANCH  10  26
TORSDOF 3
