REMARK  Name = ZINC14459009
REMARK  6 active torsions:
REMARK  status: ('A' for Active; 'I' for Inactive)
REMARK    1  A    between atoms: C_1  and  O_2
REMARK    2  A    between atoms: O_2  and  C_3
REMARK    3  A    between atoms: C_5  and  C_10
REMARK    4  A    between atoms: C_8  and  O_9
REMARK    5  A    between atoms: C_21  and  N_27
REMARK    6  A    between atoms: C_23  and  O_26
REMARK                            x       y       z     vdW  Elec       q    Type
REMARK                         _______ _______ _______ _____ _____    ______ ____
ROOT
ATOM      1  C   UNL     1      -2.559   3.864   0.046  0.00  0.00    +0.105 C 
ATOM      2  C   UNL     1      -3.140   3.899  -1.370  0.00  0.00    +0.029 C 
ATOM      3  C   UNL     1      -2.231   4.818  -2.233  0.00  0.00    +0.033 C 
ATOM      4  C   UNL     1      -2.722   6.214  -1.903  0.00  0.00    -0.030 C 
ATOM      5  C   UNL     1      -3.940   6.171  -1.423  0.00  0.00    -0.023 C 
ATOM      6  C   UNL     1      -4.432   4.744  -1.358  0.00  0.00    +0.049 C 
ATOM      7  C   UNL     1      -5.237   4.503  -0.115  0.00  0.00    -0.014 A 
ATOM      8  C   UNL     1      -6.505   5.068  -0.039  0.00  0.00    +0.039 A 
ATOM      9  C   UNL     1      -7.293   4.886   1.077  0.00  0.00    +0.130 A 
ATOM     10  C   UNL     1      -6.825   4.134   2.140  0.00  0.00    +0.080 A 
ATOM     11  C   UNL     1      -5.566   3.567   2.077  0.00  0.00    +0.140 A 
ATOM     12  C   UNL     1      -4.766   3.750   0.944  0.00  0.00    +0.074 A 
ATOM     13  N   UNL     1      -3.490   3.171   0.938  0.00  0.00    -0.334 N 
ATOM     14  H   UNL     1      -3.559   2.193   0.700  0.00  0.00    +0.147 HD
ENDROOT
BRANCH   1  17
ATOM     15  C   UNL     1       1.155   3.176   0.008  0.00  0.00    +0.162 A 
ATOM     16  C   UNL     1      -0.057   3.846   0.022  0.00  0.00    +0.054 A 
ATOM     17  C   UNL     1      -1.241   3.133   0.030  0.00  0.00    -0.023 A 
ATOM     18  C   UNL     1      -1.219   1.751   0.017  0.00  0.00    +0.009 A 
ATOM     19  C   UNL     1      -0.013   1.076   0.008  0.00  0.00    +0.049 A 
ATOM     20  C   UNL     1       1.178   1.785   0.000  0.00  0.00    +0.158 A 
BRANCH  15  22
ATOM     21  C   UNL     1       2.221   5.302   0.008  0.00  0.00    +0.277 C 
ATOM     22  O   UNL     1       2.321   3.877  -0.000  0.00  0.00    -0.491 OA
ENDBRANCH  15  22
BRANCH  20  23
ATOM     23  O   UNL     1       2.365   1.123  -0.015  0.00  0.00    -0.503 OA
ATOM     24  H   UNL     1       2.701   0.936  -0.902  0.00  0.00    +0.292 HD
ENDBRANCH  20  23
ENDBRANCH   1  17
BRANCH   9  25
ATOM     25  N   UNL     1      -8.640   5.494   1.139  0.00  0.00    +0.057 N 
ATOM     26  O   UNL     1      -9.053   6.156   0.203  0.00  0.00    -0.126 OA
ATOM     27  O   UNL     1      -9.337   5.334   2.125  0.00  0.00    -0.126 OA
ENDBRANCH   9  25
BRANCH  11  28
ATOM     28  O   UNL     1      -5.103   2.828   3.120  0.00  0.00    -0.505 OA
ATOM     29  H   UNL     1      -5.315   1.886   3.060  0.00  0.00    +0.292 HD
ENDBRANCH  11  28
TORSDOF 5
