REMARK  Name = ZINC14623834
REMARK  14 active torsions:
REMARK  status: ('A' for Active; 'I' for Inactive)
REMARK    1  A    between atoms: C_1  and  C_2
REMARK    2  A    between atoms: C_2  and  C_3
REMARK    3  A    between atoms: C_3  and  C_4
REMARK    4  A    between atoms: C_4  and  N_5
REMARK    5  A    between atoms: C_6  and  N_36
REMARK    6  A    between atoms: C_7  and  N_14
REMARK    7  A    between atoms: N_14  and  C_15
REMARK    8  A    between atoms: C_15  and  C_16
REMARK    9  A    between atoms: C_16  and  C_17
REMARK   10  A    between atoms: C_17  and  C_18
REMARK   11  A    between atoms: C_19  and  C_21
REMARK   12  A    between atoms: N_26  and  C_28
REMARK   13  A    between atoms: C_32  and  C_35
REMARK   14  A    between atoms: C_33  and  C_34
REMARK                            x       y       z     vdW  Elec       q    Type
REMARK                         _______ _______ _______ _____ _____    ______ ____
ROOT
ATOM      1  N   UNL     1       0.394  -2.744   2.485  0.00  0.00    -0.264 N 
ATOM      2  C   UNL     1      -0.152  -2.159   3.571  0.00  0.00    +0.225 C 
ATOM      3  O   UNL     1      -0.479  -0.992   3.533  0.00  0.00    -0.275 OA
ENDROOT
BRANCH   1   6
ATOM      4  N   UNL     1      -0.062  -1.666  -0.998  0.00  0.00    -0.280 N 
ATOM      5  C   UNL     1      -0.201  -2.393   0.162  0.00  0.00    +0.127 A 
ATOM      6  C   UNL     1       0.515  -2.019   1.280  0.00  0.00    +0.140 A 
ATOM      7  C   UNL     1       1.369  -0.903   1.199  0.00  0.00    +0.277 A 
ATOM      8  O   UNL     1       2.014  -0.552   2.173  0.00  0.00    -0.266 OA
ATOM      9  N   UNL     1       1.469  -0.226   0.039  0.00  0.00    -0.273 N 
ATOM     10  H   UNL     1       2.073   0.570  -0.019  0.00  0.00    +0.173 HD
ATOM     11  C   UNL     1       0.767  -0.607  -1.043  0.00  0.00    +0.331 A 
ATOM     12  O   UNL     1       0.880   0.019  -2.079  0.00  0.00    -0.246 OA
BRANCH   5  13
ATOM     13  N   UNL     1      -1.044  -3.477   0.206  0.00  0.00    -0.343 N 
ATOM     14  H   UNL     1      -1.604  -3.688  -0.558  0.00  0.00    +0.144 HD
ATOM     15  H   UNL     1      -1.080  -4.032   1.001  0.00  0.00    +0.144 HD
ENDBRANCH   5  13
BRANCH   4  16
ATOM     16  C   UNL     1      -0.816  -2.051  -2.194  0.00  0.00    +0.128 C 
BRANCH  16  17
ATOM     17  C   UNL     1      -2.163  -1.327  -2.202  0.00  0.00    +0.021 C 
BRANCH  17  19
ATOM     18  C   UNL     1      -4.298  -1.004  -3.459  0.00  0.00    +0.004 C 
ATOM     19  C   UNL     1      -2.951  -1.729  -3.451  0.00  0.00    -0.002 C 
ENDBRANCH  17  19
ENDBRANCH  16  17
ENDBRANCH   4  16
ENDBRANCH   1   6
BRANCH   2  20
ATOM     20  C   UNL     1      -0.357  -2.957   4.833  0.00  0.00    +0.102 C 
ATOM     21  C   UNL     1      -1.639  -3.817   4.743  0.00  0.00    +0.110 C 
ATOM     22  C   UNL     1      -2.215  -3.772   6.141  0.00  0.00    +0.221 C 
ATOM     23  O   UNL     1      -3.057  -4.532   6.571  0.00  0.00    -0.275 OA
ATOM     24  N   UNL     1      -1.658  -2.767   6.839  0.00  0.00    -0.270 N 
ATOM     25  C   UNL     1      -0.682  -2.031   6.027  0.00  0.00    +0.127 C 
BRANCH  24  26
ATOM     26  C   UNL     1      -1.968  -2.462   8.169  0.00  0.00    +0.039 A 
ATOM     27  C   UNL     1      -2.988  -1.564   8.457  0.00  0.00    +0.024 A 
ATOM     28  C   UNL     1      -3.297  -1.269   9.770  0.00  0.00    +0.002 A 
ATOM     29  C   UNL     1      -2.583  -1.858  10.798  0.00  0.00    +0.004 A 
ATOM     30  C   UNL     1      -1.563  -2.747  10.515  0.00  0.00    -0.046 A 
ATOM     31  C   UNL     1      -1.254  -3.051   9.203  0.00  0.00    -0.026 A 
ATOM     32  C   UNL     1      -0.141  -4.020   8.895  0.00  0.00    +0.046 C 
ATOM     33  C   UNL     1      -0.787  -3.386  11.638  0.00  0.00    +0.044 C 
ENDBRANCH  24  26
ENDBRANCH   2  20
BRANCH   1  34
ATOM     34  C   UNL     1       0.861  -4.131   2.556  0.00  0.00    +0.114 C 
BRANCH  34  35
ATOM     35  C   UNL     1       2.323  -4.154   3.005  0.00  0.00    +0.019 C 
BRANCH  35  36
ATOM     36  C   UNL     1       2.811  -5.602   3.079  0.00  0.00    -0.002 C 
ATOM     37  C   UNL     1       4.274  -5.625   3.528  0.00  0.00    +0.004 C 
ENDBRANCH  35  36
ENDBRANCH  34  35
ENDBRANCH   1  34
TORSDOF 10
