REMARK  Name = ZINC13564710
REMARK  8 active torsions:
REMARK  status: ('A' for Active; 'I' for Inactive)
REMARK    1  A    between atoms: C_1  and  O_2
REMARK    2  A    between atoms: O_2  and  C_3
REMARK    3  A    between atoms: C_6  and  C_9
REMARK    4  A    between atoms: C_12  and  C_25
REMARK    5  A    between atoms: N_17  and  C_19
REMARK    6  A    between atoms: C_25  and  N_26
REMARK    7  A    between atoms: N_26  and  C_27
REMARK    8  A    between atoms: C_27  and  C_28
REMARK                            x       y       z     vdW  Elec       q    Type
REMARK                         _______ _______ _______ _____ _____    ______ ____
ROOT
ATOM      1  C   UNL     1       2.356  -2.512  -4.421  0.00  0.00    +0.102 A 
ATOM      2  C   UNL     1       2.810  -3.844  -4.442  0.00  0.00    +0.045 A 
ATOM      3  C   UNL     1       2.662  -4.928  -3.552  0.00  0.00    +0.020 A 
ATOM      4  C   UNL     1       3.241  -6.117  -3.876  0.00  0.00    +0.001 A 
ATOM      5  C   UNL     1       3.966  -6.232  -5.079  0.00  0.00    +0.252 A 
ATOM      6  O   UNL     1       4.486  -7.301  -5.368  0.00  0.00    -0.268 OA
ATOM      7  N   UNL     1       4.095  -5.194  -5.909  0.00  0.00    -0.307 N 
ATOM      8  C   UNL     1       3.550  -4.022  -5.636  0.00  0.00    +0.145 A 
ATOM      9  N   UNL     1       3.535  -2.818  -6.309  0.00  0.00    -0.215 N 
ATOM     10  N   UNL     1       2.794  -1.900  -5.556  0.00  0.00    -0.164 NA
ATOM     11  H   UNL     1       4.601  -5.303  -6.729  0.00  0.00    +0.170 HD
ENDROOT
BRANCH   1  15
ATOM     12  C   UNL     1       0.022  -0.725  -1.371  0.00  0.00    +0.120 A 
ATOM     13  C   UNL     1       1.131  -1.496  -1.035  0.00  0.00    +0.046 A 
ATOM     14  C   UNL     1       1.889  -2.077  -2.018  0.00  0.00    +0.013 A 
ATOM     15  C   UNL     1       1.547  -1.893  -3.364  0.00  0.00    +0.003 A 
ATOM     16  C   UNL     1       0.430  -1.116  -3.697  0.00  0.00    +0.013 A 
ATOM     17  C   UNL     1      -0.325  -0.544  -2.706  0.00  0.00    +0.046 A 
BRANCH  12  19
ATOM     18  C   UNL     1      -0.312  -0.380   0.955  0.00  0.00    +0.277 C 
ATOM     19  O   UNL     1      -0.725  -0.153  -0.395  0.00  0.00    -0.495 OA
ENDBRANCH  12  19
ENDBRANCH   1  15
BRANCH   9  20
ATOM     20  C   UNL     1       4.152  -2.560  -7.537  0.00  0.00    +0.068 A 
ATOM     21  C   UNL     1       3.996  -3.448  -8.594  0.00  0.00    +0.028 A 
ATOM     22  C   UNL     1       4.606  -3.190  -9.806  0.00  0.00    +0.002 A 
ATOM     23  C   UNL     1       5.371  -2.049  -9.968  0.00  0.00    +0.000 A 
ATOM     24  C   UNL     1       5.528  -1.163  -8.918  0.00  0.00    +0.002 A 
ATOM     25  C   UNL     1       4.916  -1.413  -7.705  0.00  0.00    +0.028 A 
ENDBRANCH   9  20
BRANCH   4  26
ATOM     26  C   UNL     1       3.108  -7.301  -2.954  0.00  0.00    -0.041 C 
BRANCH  26  27
ATOM     27  N   UNL     1       1.979  -8.135  -3.387  0.00  0.00    +0.384 N 
ATOM     28  H   UNL     1       1.130  -7.591  -3.361  0.00  0.00    -0.085 HD
ATOM     29  H   UNL     1       2.142  -8.459  -4.329  0.00  0.00    -0.085 HD
BRANCH  27  30
ATOM     30  C   UNL     1       1.850  -9.290  -2.488  0.00  0.00    -0.046 C 
BRANCH  30  31
ATOM     31  C   UNL     1       0.692 -10.145  -2.933  0.00  0.00    -0.064 A 
ATOM     32  C   UNL     1      -0.576  -9.904  -2.438  0.00  0.00    +0.002 A 
ATOM     33  C   UNL     1      -1.639 -10.688  -2.845  0.00  0.00    +0.000 A 
ATOM     34  C   UNL     1      -1.433 -11.714  -3.749  0.00  0.00    +0.000 A 
ATOM     35  C   UNL     1      -0.166 -11.955  -4.245  0.00  0.00    +0.000 A 
ATOM     36  C   UNL     1       0.896 -11.168  -3.840  0.00  0.00    +0.002 A 
ENDBRANCH  30  31
ENDBRANCH  27  30
ENDBRANCH  26  27
ENDBRANCH   4  26
TORSDOF 7
