REMARK  Name = ZINC20898524
REMARK  7 active torsions:
REMARK  status: ('A' for Active; 'I' for Inactive)
REMARK    1  A    between atoms: C_1  and  N_2
REMARK    2  A    between atoms: C_5  and  C_26
REMARK    3  A    between atoms: C_8  and  C_17
REMARK    4  A    between atoms: C_21  and  O_24
REMARK    5  A    between atoms: C_22  and  O_23
REMARK    6  A    between atoms: O_24  and  C_25
REMARK    7  A    between atoms: N_34  and  C_37
REMARK                            x       y       z     vdW  Elec       q    Type
REMARK                         _______ _______ _______ _____ _____    ______ ____
ROOT
ATOM      1  C   UNL     1      -1.801  -2.397  -0.914  0.00  0.00    +0.154 C 
ATOM      2  N   UNL     1      -1.162  -2.874  -2.143  0.00  0.00    -0.294 N 
ATOM      3  C   UNL     1       0.234  -2.941  -2.261  0.00  0.00    +0.082 A 
ATOM      4  C   UNL     1       0.821  -3.437  -3.532  0.00  0.00    +0.089 A 
ATOM      5  C   UNL     1       2.184  -3.399  -3.374  0.00  0.00    +0.069 A 
ATOM      6  N   UNL     1       2.439  -2.940  -2.118  0.00  0.00    -0.306 N 
ATOM      7  C   UNL     1       1.251  -2.652  -1.462  0.00  0.00    +0.073 A 
ATOM      8  C   UNL     1       1.237  -2.096  -0.055  0.00  0.00    +0.154 C 
ATOM      9  N   UNL     1       2.485  -2.507   0.607  0.00  0.00    -0.330 N 
ATOM     10  C   UNL     1       3.688  -2.520  -0.111  0.00  0.00    +0.052 A 
ATOM     11  C   UNL     1       3.679  -2.767  -1.488  0.00  0.00    +0.068 A 
ATOM     12  C   UNL     1       4.867  -2.852  -2.187  0.00  0.00    +0.028 A 
ATOM     13  C   UNL     1       6.069  -2.658  -1.527  0.00  0.00    +0.002 A 
ATOM     14  C   UNL     1       6.080  -2.387  -0.172  0.00  0.00    +0.002 A 
ATOM     15  C   UNL     1       4.896  -2.318   0.538  0.00  0.00    +0.025 A 
ATOM     16  C   UNL     1      -0.071  -3.836  -4.625  0.00  0.00    +0.266 A 
ATOM     17  O   UNL     1       0.349  -4.245  -5.691  0.00  0.00    -0.267 OA
ATOM     18  N   UNL     1      -1.399  -3.716  -4.367  0.00  0.00    -0.263 N 
ATOM     19  C   UNL     1      -1.893  -3.268  -3.208  0.00  0.00    +0.332 A 
ATOM     20  O   UNL     1      -3.103  -3.211  -3.105  0.00  0.00    -0.246 OA
ATOM     21  C   UNL     1      -2.344  -4.101  -5.418  0.00  0.00    +0.157 C 
ATOM     22  H   UNL     1       2.474  -2.805   1.665  0.00  0.00    +0.147 HD
ENDROOT
BRANCH   8  23
ATOM     23  C   UNL     1       1.157  -0.592  -0.101  0.00  0.00    +0.024 A 
ATOM     24  C   UNL     1       1.424   0.079  -1.281  0.00  0.00    +0.009 A 
ATOM     25  C   UNL     1       1.351   1.458  -1.327  0.00  0.00    +0.004 A 
ATOM     26  C   UNL     1       1.010   2.174  -0.194  0.00  0.00    +0.049 A 
ATOM     27  C   UNL     1       0.741   1.509   0.990  0.00  0.00    +0.162 A 
ATOM     28  C   UNL     1       0.815   0.119   1.037  0.00  0.00    +0.164 A 
BRANCH  28  29
ATOM     29  O   UNL     1       0.551  -0.538   2.198  0.00  0.00    -0.503 OA
ATOM     30  H   UNL     1       0.280   0.028   3.101  0.00  0.00    +0.292 HD
ENDBRANCH  28  29
BRANCH  27  31
ATOM     31  O   UNL     1       0.400   2.211   2.104  0.00  0.00    -0.491 OA
ATOM     32  C   UNL     1       0.344   3.634   1.982  0.00  0.00    +0.277 C 
ENDBRANCH  27  31
ENDBRANCH   8  23
BRANCH   5  33
ATOM     33  C   UNL     1       3.191  -3.785  -4.382  0.00  0.00    -0.000 A 
ATOM     34  C   UNL     1       3.213  -3.154  -5.628  0.00  0.00    +0.010 A 
ATOM     35  C   UNL     1       4.159  -3.516  -6.564  0.00  0.00    +0.001 A 
ATOM     36  C   UNL     1       5.078  -4.510  -6.275  0.00  0.00    +0.000 A 
ATOM     37  C   UNL     1       5.059  -5.143  -5.044  0.00  0.00    +0.001 A 
ATOM     38  C   UNL     1       4.121  -4.787  -4.097  0.00  0.00    +0.010 A 
ENDBRANCH   5  33
TORSDOF 4
