REMARK  Name = ZINC08961334
REMARK  6 active torsions:
REMARK  status: ('A' for Active; 'I' for Inactive)
REMARK    1  A    between atoms: C_1  and  C_2
REMARK    2  A    between atoms: C_13  and  N_18
REMARK    3  A    between atoms: N_18  and  S_19
REMARK    4  A    between atoms: S_19  and  C_22
REMARK    5  A    between atoms: C_27  and  O_28
REMARK    6  A    between atoms: O_28  and  C_29
REMARK                            x       y       z     vdW  Elec       q    Type
REMARK                         _______ _______ _______ _____ _____    ______ ____
ROOT
ATOM      1  C   UNL     1      -3.536   6.826  -4.615  0.00  0.00    +0.044 C 
ATOM      2  C   UNL     1      -3.253   6.033  -3.365  0.00  0.00    -0.048 A 
ATOM      3  C   UNL     1      -4.028   4.931  -3.057  0.00  0.00    +0.007 A 
ATOM      4  C   UNL     1      -3.762   4.196  -1.917  0.00  0.00    +0.048 A 
ATOM      5  C   UNL     1      -2.717   4.559  -1.079  0.00  0.00    +0.150 A 
ATOM      6  C   UNL     1      -1.952   5.681  -1.374  0.00  0.00    +0.077 A 
ATOM      7  C   UNL     1      -2.220   6.409  -2.529  0.00  0.00    +0.030 A 
ATOM      8  N   UNL     1      -0.922   6.104  -0.535  0.00  0.00    -0.278 N 
ATOM      9  C   UNL     1      -0.057   5.323   0.098  0.00  0.00    +0.252 C 
ATOM     10  O   UNL     1       0.793   5.863   0.779  0.00  0.00    -0.270 OA
ATOM     11  C   UNL     1      -0.048   3.855   0.039  0.00  0.00    +0.081 A 
ATOM     12  C   UNL     1       1.170   3.169   0.021  0.00  0.00    +0.041 A 
ATOM     13  C   UNL     1       1.184   1.785   0.000  0.00  0.00    +0.049 A 
ATOM     14  C   UNL     1      -0.013   1.076   0.008  0.00  0.00    +0.028 A 
ATOM     15  C   UNL     1      -1.218   1.747   0.017  0.00  0.00    +0.049 A 
ATOM     16  C   UNL     1      -1.247   3.135   0.026  0.00  0.00    +0.141 A 
ATOM     17  O   UNL     1      -2.436   3.780  -0.006  0.00  0.00    -0.453 OA
ATOM     18  H   UNL     1      -0.829   7.060  -0.402  0.00  0.00    +0.155 HD
ENDROOT
BRANCH  13  19
ATOM     19  N   UNL     1       2.403   1.098  -0.028  0.00  0.00    -0.216 N 
ATOM     20  H   UNL     1       3.126   1.369   0.560  0.00  0.00    +0.174 HD
BRANCH  19  21
ATOM     21  S   UNL     1       2.611  -0.177  -1.063  0.00  0.00    +0.076 S 
ATOM     22  O   UNL     1       3.942  -0.639  -0.876  0.00  0.00    -0.150 OA
ATOM     23  O   UNL     1       1.481  -1.023  -0.899  0.00  0.00    -0.150 OA
BRANCH  21  24
ATOM     24  C   UNL     1       2.527   0.464  -2.702  0.00  0.00    +0.151 A 
ATOM     25  C   UNL     1       3.640   0.423  -3.519  0.00  0.00    +0.052 A 
ATOM     26  C   UNL     1       3.573   0.921  -4.808  0.00  0.00    +0.043 A 
ATOM     27  C   UNL     1       2.393   1.471  -5.278  0.00  0.00    +0.024 A 
ATOM     28  C   UNL     1       1.279   1.518  -4.463  0.00  0.00    +0.049 A 
ATOM     29  C   UNL     1       1.343   1.015  -3.172  0.00  0.00    +0.147 A 
ATOM     30 CL   UNL     1       4.971   0.862  -5.835  0.00  0.00    -0.083 Cl
BRANCH  29  31
ATOM     31  O   UNL     1       0.249   1.061  -2.368  0.00  0.00    -0.493 OA
ATOM     32  C   UNL     1      -0.936   1.642  -2.917  0.00  0.00    +0.277 C 
ENDBRANCH  29  31
ENDBRANCH  21  24
ENDBRANCH  19  21
ENDBRANCH  13  19
TORSDOF 4
