REMARK  Name = ZINC55028560
REMARK  5 active torsions:
REMARK  status: ('A' for Active; 'I' for Inactive)
REMARK    1  A    between atoms: C_1  and  C_2
REMARK    2  A    between atoms: C_2  and  C_4
REMARK    3  A    between atoms: C_2  and  N_13
REMARK    4  A    between atoms: C_16  and  N_19
REMARK    5  A    between atoms: N_22  and  C_23
REMARK                            x       y       z     vdW  Elec       q    Type
REMARK                         _______ _______ _______ _____ _____    ______ ____
ROOT
ATOM      1  N   UNL     1       0.559  -0.551   1.273  0.00  0.00    +0.387 N 
ATOM      2  C   UNL     1      -0.286  -0.072   2.374  0.00  0.00    -0.076 C 
ATOM      3  C   UNL     1       0.301  -0.534   3.710  0.00  0.00    +0.004 C 
ATOM      4  C   UNL     1       0.357  -2.064   3.735  0.00  0.00    +0.071 C 
ATOM      5  C   UNL     1       1.179  -2.555   2.540  0.00  0.00    +0.004 C 
ATOM      6  C   UNL     1       0.560  -2.019   1.248  0.00  0.00    -0.076 C 
ATOM      7  H   UNL     1       1.502  -0.218   1.406  0.00  0.00    -0.081 HD
ENDROOT
BRANCH   4   8
ATOM      8  N   UNL     1       0.987  -2.510   4.980  0.00  0.00    -0.297 N 
ATOM      9  C   UNL     1       0.715  -3.735   5.472  0.00  0.00    +0.300 C 
ATOM     10  O   UNL     1      -0.054  -4.470   4.882  0.00  0.00    -0.253 OA
ATOM     11  N   UNL     1       1.295  -4.146   6.617  0.00  0.00    -0.297 N 
ATOM     12  H   UNL     1       1.601  -1.924   5.450  0.00  0.00    +0.151 HD
ATOM     13  H   UNL     1       1.908  -3.560   7.087  0.00  0.00    +0.151 HD
BRANCH  11  14
ATOM     14  C   UNL     1       0.999  -5.477   7.151  0.00  0.00    +0.074 C 
ATOM     15  C   UNL     1       1.916  -6.508   6.489  0.00  0.00    +0.022 C 
ATOM     16  C   UNL     1       1.606  -7.899   7.048  0.00  0.00    +0.002 C 
ATOM     17  C   UNL     1       1.840  -7.905   8.560  0.00  0.00    +0.000 C 
ATOM     18  C   UNL     1       0.923  -6.874   9.222  0.00  0.00    +0.002 C 
ATOM     19  C   UNL     1       1.233  -5.484   8.663  0.00  0.00    +0.022 C 
ENDBRANCH  11  14
ENDBRANCH   4   8
BRANCH   1  21
ATOM     20  C   UNL     1       0.010   1.488   0.034  0.00  0.00    -0.004 C 
ATOM     21  C   UNL     1       0.036  -0.041  -0.002  0.00  0.00    +0.016 C 
BRANCH  21  22
ATOM     22  C   UNL     1       0.923  -0.502  -1.129  0.00  0.00    +0.202 C 
ATOM     23  O   UNL     1       2.081  -0.789  -0.911  0.00  0.00    -0.277 OA
ATOM     24  N   UNL     1       0.429  -0.596  -2.380  0.00  0.00    -0.303 N 
ATOM     25  C   UNL     1      -0.977  -0.333  -2.591  0.00  0.00    +0.107 C 
ATOM     26  C   UNL     1      -1.782  -1.646  -2.426  0.00  0.00    +0.019 C 
ATOM     27  C   UNL     1      -1.527  -2.548  -3.559  0.00  0.00    +0.002 C 
ATOM     28  C   UNL     1      -0.077  -3.007  -3.684  0.00  0.00    +0.002 C 
ATOM     29  C   UNL     1       0.711  -1.973  -4.450  0.00  0.00    +0.019 C 
ATOM     30  C   UNL     1       1.347  -0.958  -3.478  0.00  0.00    +0.107 C 
ENDBRANCH  21  22
ENDBRANCH   1  21
TORSDOF 4
