REMARK  Name = ZINC14544595
REMARK  4 active torsions:
REMARK  status: ('A' for Active; 'I' for Inactive)
REMARK    1  A    between atoms: C_4  and  N_7
REMARK    2  A    between atoms: N_7  and  S_8
REMARK    3  A    between atoms: S_8  and  C_11
REMARK    4  A    between atoms: C_24  and  C_27
REMARK                            x       y       z     vdW  Elec       q    Type
REMARK                         _______ _______ _______ _____ _____    ______ ____
ROOT
ATOM      1  C   UNL     1      -3.263   9.211  -1.840  0.00  0.00    +0.109 A 
ATOM      2  C   UNL     1      -2.995   9.208  -0.483  0.00  0.00    +0.030 A 
ATOM      3  C   UNL     1      -1.954   8.445   0.007  0.00  0.00    +0.025 A 
ATOM      4  C   UNL     1      -1.182   7.683  -0.863  0.00  0.00    +0.031 A 
ATOM      5  C   UNL     1      -1.445   7.685  -2.220  0.00  0.00    -0.018 A 
ATOM      6  C   UNL     1      -2.495   8.456  -2.703  0.00  0.00    +0.034 A 
ATOM      7  C   UNL     1      -0.642   6.886  -3.210  0.00  0.00    +0.049 C 
ATOM      8  C   UNL     1      -0.037   7.852  -4.219  0.00  0.00    -0.023 C 
ATOM      9  C   UNL     1       1.195   8.148  -3.888  0.00  0.00    -0.030 C 
ATOM     10  C   UNL     1       1.591   7.421  -2.615  0.00  0.00    +0.033 C 
ATOM     11  C   UNL     1       0.598   6.235  -2.571  0.00  0.00    +0.029 C 
ATOM     12  C   UNL     1       0.341   5.792  -1.143  0.00  0.00    +0.107 C 
ATOM     13  N   UNL     1      -0.121   6.936  -0.349  0.00  0.00    -0.336 N 
ATOM     14  H   UNL     1       0.284   7.148   0.506  0.00  0.00    +0.147 HD
ENDROOT
BRANCH  12  15
ATOM     15  C   UNL     1      -0.714   4.716  -1.135  0.00  0.00    -0.002 A 
ATOM     16  C   UNL     1      -2.030   4.890  -0.940  0.00  0.00    +0.089 A 
ATOM     17  N   UNL     1      -2.675   3.684  -1.000  0.00  0.00    -0.360 N 
ATOM     18  H   UNL     1      -3.630   3.557  -0.890  0.00  0.00    +0.165 HD
ATOM     19  C   UNL     1      -1.765   2.679  -1.241  0.00  0.00    +0.047 A 
ATOM     20  C   UNL     1      -0.497   3.281  -1.336  0.00  0.00    +0.005 A 
ATOM     21  C   UNL     1       0.631   2.495  -1.579  0.00  0.00    +0.010 A 
ATOM     22  C   UNL     1       0.497   1.143  -1.724  0.00  0.00    +0.001 A 
ATOM     23  C   UNL     1      -0.752   0.544  -1.631  0.00  0.00    +0.002 A 
ATOM     24  C   UNL     1      -1.879   1.302  -1.397  0.00  0.00    +0.026 A 
ENDBRANCH  12  15
BRANCH   1  25
ATOM     25  S   UNL     1      -4.591  10.183  -2.469  0.00  0.00    +0.072 S 
ATOM     26  O   UNL     1      -4.897   9.666  -3.757  0.00  0.00    -0.150 OA
ATOM     27  O   UNL     1      -5.559  10.267  -1.433  0.00  0.00    -0.150 OA
BRANCH  25  28
ATOM     28  N   UNL     1      -4.010  11.716  -2.700  0.00  0.00    -0.216 N 
ATOM     29  H   UNL     1      -4.377  12.456  -2.191  0.00  0.00    +0.174 HD
BRANCH  28  33
ATOM     30  C   UNL     1      -0.973  12.397  -5.466  0.00  0.00    +0.000 A 
ATOM     31  C   UNL     1      -2.260  12.140  -5.904  0.00  0.00    +0.002 A 
ATOM     32  C   UNL     1      -3.269  11.914  -4.989  0.00  0.00    +0.024 A 
ATOM     33  C   UNL     1      -2.991  11.944  -3.628  0.00  0.00    +0.048 A 
ATOM     34  C   UNL     1      -1.699  12.207  -3.192  0.00  0.00    +0.024 A 
ATOM     35  C   UNL     1      -0.693  12.428  -4.112  0.00  0.00    +0.002 A 
ENDBRANCH  28  33
ENDBRANCH  25  28
ENDBRANCH   1  25
TORSDOF 4
