REMARK  Name = ZINC08799162
REMARK  11 active torsions:
REMARK  status: ('A' for Active; 'I' for Inactive)
REMARK    1  A    between atoms: C_1  and  C_2
REMARK    2  A    between atoms: C_2  and  O_3
REMARK    3  A    between atoms: O_3  and  C_4
REMARK    4  A    between atoms: C_7  and  C_32
REMARK    5  A    between atoms: C_9  and  S_10
REMARK    6  A    between atoms: S_10  and  N_13
REMARK    7  A    between atoms: N_13  and  C_14
REMARK    8  A    between atoms: C_14  and  C_15
REMARK    9  A    between atoms: C_15  and  C_17
REMARK   10  A    between atoms: C_15  and  N_67
REMARK   11  A    between atoms: N_26  and  C_27
REMARK                            x       y       z     vdW  Elec       q    Type
REMARK                         _______ _______ _______ _____ _____    ______ ____
ROOT
ATOM      1  C   UNL     1       3.123  -2.433   4.123  0.00  0.00    -0.022 C 
ENDROOT
BRANCH   1   2
ATOM      2  C   UNL     1       2.391  -1.718   3.017  0.00  0.00    -0.059 A 
ATOM      3  C   UNL     1       1.056  -1.993   2.778  0.00  0.00    +0.004 A 
ATOM      4  C   UNL     1       0.390  -1.340   1.763  0.00  0.00    +0.023 A 
ATOM      5  C   UNL     1       1.053  -0.399   0.973  0.00  0.00    +0.033 A 
ATOM      6  C   UNL     1       2.386  -0.124   1.220  0.00  0.00    -0.026 A 
ATOM      7  C   UNL     1       3.051  -0.787   2.240  0.00  0.00    +0.007 A 
ATOM      8  C   UNL     1       3.157   0.888   0.410  0.00  0.00    +0.038 C 
ATOM      9  C   UNL     1       2.389   1.213  -0.873  0.00  0.00    +0.024 C 
ATOM     10  C   UNL     1       0.926   1.478  -0.493  0.00  0.00    +0.105 C 
ATOM     11  N   UNL     1       0.325   0.222  -0.040  0.00  0.00    -0.333 N 
ATOM     12  C   UNL     1      -1.073   0.424   0.363  0.00  0.00    +0.129 C 
ENDBRANCH   1   2
BRANCH   1  17
ATOM     13  C   UNL     1       2.266  -4.541   3.259  0.00  0.00    -0.078 C 
ATOM     14  C   UNL     1       2.844  -5.669   2.368  0.00  0.00    -0.020 C 
ATOM     15  C   UNL     1       3.999  -4.963   1.622  0.00  0.00    -0.020 C 
ATOM     16  C   UNL     1       4.358  -3.747   2.496  0.00  0.00    -0.078 C 
ATOM     17  N   UNL     1       3.476  -3.809   3.662  0.00  0.00    +0.385 N 
ATOM     18  H   UNL     1       3.946  -4.309   4.426  0.00  0.00    -0.081 HD
ENDBRANCH   1  17
BRANCH   1  19
ATOM     19  C   UNL     1       2.224  -2.516   5.359  0.00  0.00    +0.095 C 
BRANCH  19  20
ATOM     20  N   UNL     1       2.887  -3.314   6.393  0.00  0.00    -0.191 NA
ATOM     21  H   UNL     1       3.650  -3.867   6.163  0.00  0.00    +0.148 HD
BRANCH  20  22
ATOM     22  S   UNL     1       2.335  -3.271   7.953  0.00  0.00    +0.062 S 
ATOM     23  O   UNL     1       3.158  -4.158   8.699  0.00  0.00    -0.153 OA
ATOM     24  O   UNL     1       2.188  -1.900   8.294  0.00  0.00    -0.153 OA
BRANCH  22  30
ATOM     25  C   UNL     1      -0.314  -3.327   7.279  0.00  0.00    +0.147 A 
ATOM     26  C   UNL     1      -1.586  -3.880   7.276  0.00  0.00    +0.048 A 
ATOM     27  C   UNL     1      -1.827  -5.059   7.952  0.00  0.00    +0.007 A 
ATOM     28  C   UNL     1      -0.800  -5.693   8.627  0.00  0.00    -0.048 A 
ATOM     29  C   UNL     1       0.470  -5.147   8.627  0.00  0.00    +0.035 A 
ATOM     30  C   UNL     1       0.716  -3.967   7.952  0.00  0.00    +0.147 A 
ATOM     31  C   UNL     1      -1.065  -6.980   9.365  0.00  0.00    +0.044 C 
BRANCH  25  32
ATOM     32  O   UNL     1      -0.076  -2.163   6.619  0.00  0.00    -0.490 OA
BRANCH  32  34
ATOM     33  C   UNL     1      -0.726  -0.268   5.267  0.00  0.00    +0.048 C 
ATOM     34  C   UNL     1      -1.184  -1.559   5.948  0.00  0.00    +0.226 C 
ENDBRANCH  32  34
ENDBRANCH  25  32
ENDBRANCH  22  30
ENDBRANCH  20  22
ENDBRANCH  19  20
ENDBRANCH   1  19
TORSDOF 8
