REMARK  Name = ZINC31796365
REMARK  11 active torsions:
REMARK  status: ('A' for Active; 'I' for Inactive)
REMARK    1  A    between atoms: C_4  and  O_28
REMARK    2  A    between atoms: C_5  and  C_7
REMARK    3  A    between atoms: N_9  and  C_10
REMARK    4  A    between atoms: C_10  and  C_11
REMARK    5  A    between atoms: C_11  and  C_12
REMARK    6  A    between atoms: C_12  and  C_13
REMARK    7  A    between atoms: C_14  and  C_26
REMARK    8  A    between atoms: C_15  and  N_25
REMARK    9  A    between atoms: N_16  and  C_18
REMARK   10  A    between atoms: O_28  and  C_29
REMARK   11  A    between atoms: C_29  and  C_30
REMARK                            x       y       z     vdW  Elec       q    Type
REMARK                         _______ _______ _______ _____ _____    ______ ____
ROOT
ATOM      1  C   UNL     1      -2.267   2.619   6.431  0.00  0.00    +0.105 C 
ENDROOT
BRANCH   1   4
ATOM      2  C   UNL     1      -2.595   2.808   4.024  0.00  0.00    +0.248 C 
ATOM      3  O   UNL     1      -1.542   2.221   3.863  0.00  0.00    -0.270 OA
ATOM      4  N   UNL     1      -3.045   3.057   5.269  0.00  0.00    -0.311 N 
ATOM      5  H   UNL     1      -3.997   3.588   5.415  0.00  0.00    +0.149 HD
BRANCH   2  10
ATOM      6  C   UNL     1      -5.316   4.334   1.938  0.00  0.00    +0.001 A 
ATOM      7  C   UNL     1      -4.854   4.079   0.657  0.00  0.00    +0.004 A 
ATOM      8  C   UNL     1      -3.657   3.418   0.465  0.00  0.00    +0.046 A 
ATOM      9  C   UNL     1      -2.915   2.993   1.557  0.00  0.00    +0.133 A 
ATOM     10  C   UNL     1      -3.379   3.249   2.854  0.00  0.00    +0.078 A 
ATOM     11  C   UNL     1      -4.589   3.925   3.034  0.00  0.00    +0.017 A 
BRANCH   9  12
ATOM     12  O   UNL     1      -1.742   2.338   1.370  0.00  0.00    -0.487 OA
BRANCH  12  13
ATOM     13  C   UNL     1      -1.332   2.113   0.020  0.00  0.00    +0.264 C 
BRANCH  13  14
ATOM     14  C   UNL     1      -0.017   1.378   0.010  0.00  0.00    -0.010 A 
ATOM     15  C   UNL     1       1.170   2.087   0.002  0.00  0.00    +0.010 A 
ATOM     16  C   UNL     1       2.377   1.414  -0.013  0.00  0.00    +0.039 A 
ATOM     17  C   UNL     1       2.397   0.029  -0.021  0.00  0.00    +0.123 A 
ATOM     18  C   UNL     1       1.208  -0.679  -0.013  0.00  0.00    +0.039 A 
ATOM     19  C   UNL     1       0.002  -0.004   0.002  0.00  0.00    +0.010 A 
ATOM     20  F   UNL     1       3.577  -0.630  -0.035  0.00  0.00    -0.205 F 
ENDBRANCH  13  14
ENDBRANCH  12  13
ENDBRANCH   9  12
ENDBRANCH   2  10
ENDBRANCH   1   4
BRANCH   1  21
ATOM     21  C   UNL     1      -2.995   3.022   7.714  0.00  0.00    +0.025 C 
BRANCH  21  22
ATOM     22  C   UNL     1      -2.181   2.565   8.927  0.00  0.00    +0.060 C 
BRANCH  22  23
ATOM     23  C   UNL     1      -2.898   2.962  10.191  0.00  0.00    +0.083 A 
ATOM     24  C   UNL     1      -3.852   2.179  10.884  0.00  0.00    +0.114 A 
ATOM     25  C   UNL     1      -4.258   2.919  11.992  0.00  0.00    +0.138 A 
ATOM     26  N   UNL     1      -3.579   4.088  11.960  0.00  0.00    -0.217 N 
ATOM     27  N   UNL     1      -2.743   4.083  10.838  0.00  0.00    -0.168 NA
BRANCH  26  28
ATOM     28  C   UNL     1      -3.691   5.127  12.894  0.00  0.00    +0.068 A 
ATOM     29  C   UNL     1      -4.919   5.405  13.480  0.00  0.00    +0.030 A 
ATOM     30  C   UNL     1      -5.026   6.426  14.404  0.00  0.00    +0.040 A 
ATOM     31  C   UNL     1      -3.913   7.179  14.739  0.00  0.00    +0.124 A 
ATOM     32  C   UNL     1      -2.688   6.906  14.152  0.00  0.00    +0.040 A 
ATOM     33  C   UNL     1      -2.576   5.882  13.231  0.00  0.00    +0.030 A 
ATOM     34  F   UNL     1      -4.021   8.181  15.638  0.00  0.00    -0.205 F 
ENDBRANCH  26  28
BRANCH  25  35
ATOM     35  N   UNL     1      -5.182   2.532  12.944  0.00  0.00    -0.342 N 
ATOM     36  H   UNL     1      -5.425   3.204  13.780  0.00  0.00    +0.144 HD
ATOM     37  H   UNL     1      -5.673   1.551  12.866  0.00  0.00    +0.144 HD
ENDBRANCH  25  35
BRANCH  24  38
ATOM     38  C   UNL     1      -4.311   0.874  10.517  0.00  0.00    +0.104 C 
ATOM     39  N   UNL     1      -4.675  -0.162  10.226  0.00  0.00    -0.191 NA
ENDBRANCH  24  38
ENDBRANCH  22  23
ENDBRANCH  21  22
ENDBRANCH   1  21
TORSDOF 11
