REMARK  Name = ZINC02028376
REMARK  5 active torsions:
REMARK  status: ('A' for Active; 'I' for Inactive)
REMARK    1  A    between atoms: C_4  and  C_7
REMARK    2  A    between atoms: C_16  and  C_18
REMARK    3  A    between atoms: C_26  and  C_29
REMARK    4  A    between atoms: C_32  and  O_36
REMARK    5  A    between atoms: C_33  and  O_35
REMARK                            x       y       z     vdW  Elec       q    Type
REMARK                         _______ _______ _______ _____ _____    ______ ____
ROOT
ATOM      1  C   UNL     1       1.266   3.446  -0.223  0.00  0.00    +0.013 C 
ATOM      2  C   UNL     1       1.267   2.104  -0.142  0.00  0.00    -0.024 C 
ATOM      3  C   UNL     1       2.552   1.295  -0.106  0.00  0.00    +0.037 C 
ATOM      4  C   UNL     1       2.379   0.076  -1.019  0.00  0.00    +0.009 C 
ATOM      5  C   UNL     1       1.272  -0.834  -0.480  0.00  0.00    +0.035 C 
ATOM      6  C   UNL     1       0.029  -0.021  -0.237  0.00  0.00    -0.021 C 
ATOM      7  C   UNL     1       0.013   1.315  -0.082  0.00  0.00    +0.049 C 
ATOM      8  N   UNL     1      -1.272   1.780   0.130  0.00  0.00    -0.261 N 
ATOM      9  N   UNL     1      -2.185   0.714   0.113  0.00  0.00    -0.219 N 
ATOM     10  C   UNL     1      -1.391  -0.505  -0.121  0.00  0.00    +0.154 C 
ATOM     11  C   UNL     1      -3.558   0.792   0.287  0.00  0.00    +0.179 A 
ATOM     12  N   UNL     1      -4.313   1.854   0.504  0.00  0.00    -0.224 NA
ATOM     13  C   UNL     1      -5.632   1.742   0.645  0.00  0.00    +0.080 A 
ATOM     14  C   UNL     1      -6.210   0.507   0.575  0.00  0.00    +0.077 A 
ATOM     15  S   UNL     1      -4.773  -0.518   0.285  0.00  0.00    -0.059 S 
ATOM     16  H   UNL     1      -1.510   2.711   0.265  0.00  0.00    +0.170 HD
ENDROOT
BRANCH   1  20
ATOM     17  C   UNL     1       4.912   5.593   0.100  0.00  0.00    +0.000 A 
ATOM     18  C   UNL     1       4.747   4.409   0.796  0.00  0.00    +0.001 A 
ATOM     19  C   UNL     1       3.564   3.705   0.696  0.00  0.00    +0.008 A 
ATOM     20  C   UNL     1       2.532   4.192  -0.111  0.00  0.00    -0.025 A 
ATOM     21  C   UNL     1       2.709   5.385  -0.816  0.00  0.00    +0.008 A 
ATOM     22  C   UNL     1       3.895   6.080  -0.702  0.00  0.00    +0.001 A 
ENDBRANCH   1  20
BRANCH  10  23
ATOM     23  C   UNL     1      -1.530  -1.453   1.043  0.00  0.00    -0.021 A 
ATOM     24  C   UNL     1      -1.637  -0.957   2.329  0.00  0.00    +0.006 A 
ATOM     25  C   UNL     1      -1.768  -1.826   3.396  0.00  0.00    +0.000 A 
ATOM     26  C   UNL     1      -1.782  -3.191   3.178  0.00  0.00    +0.000 A 
ATOM     27  C   UNL     1      -1.670  -3.687   1.892  0.00  0.00    +0.000 A 
ATOM     28  C   UNL     1      -1.544  -2.818   0.825  0.00  0.00    +0.006 A 
ENDBRANCH  10  23
BRANCH  13  29
ATOM     29  C   UNL     1      -6.464   2.946   0.883  0.00  0.00    +0.005 A 
ATOM     30  C   UNL     1      -5.868   4.204   0.955  0.00  0.00    +0.014 A 
ATOM     31  C   UNL     1      -6.644   5.325   1.175  0.00  0.00    +0.050 A 
ATOM     32  C   UNL     1      -8.016   5.202   1.327  0.00  0.00    +0.158 A 
ATOM     33  C   UNL     1      -8.617   3.948   1.256  0.00  0.00    +0.159 A 
ATOM     34  C   UNL     1      -7.845   2.823   1.030  0.00  0.00    +0.059 A 
BRANCH  33  35
ATOM     35  O   UNL     1      -9.964   3.830   1.405  0.00  0.00    -0.503 OA
ATOM     36  H   UNL     1     -10.458   3.895   0.576  0.00  0.00    +0.292 HD
ENDBRANCH  33  35
BRANCH  32  37
ATOM     37  O   UNL     1      -8.777   6.308   1.544  0.00  0.00    -0.503 OA
ATOM     38  H   UNL     1      -9.102   6.727   0.735  0.00  0.00    +0.292 HD
ENDBRANCH  32  37
ENDBRANCH  13  29
TORSDOF 5
