REMARK  Name = ZINC36024312
REMARK  3 active torsions:
REMARK  status: ('A' for Active; 'I' for Inactive)
REMARK    1  A    between atoms: C_3  and  N_8
REMARK    2  A    between atoms: N_21  and  C_22
REMARK    3  A    between atoms: C_22  and  C_23
REMARK                            x       y       z     vdW  Elec       q    Type
REMARK                         _______ _______ _______ _____ _____    ______ ____
ROOT
ATOM      1  N   UNL     1       5.332   0.601   1.896  0.00  0.00    -0.269 N 
ATOM      2  C   UNL     1       6.668   0.589   1.721  0.00  0.00    +0.306 C 
ATOM      3  O   UNL     1       7.306  -0.414   1.979  0.00  0.00    -0.252 OA
ATOM      4  N   UNL     1       7.298   1.687   1.259  0.00  0.00    -0.285 N 
ATOM      5  C   UNL     1       6.570   2.954   1.097  0.00  0.00    +0.109 C 
ATOM      6  C   UNL     1       7.319   4.053   1.859  0.00  0.00    +0.025 C 
ATOM      7  C   UNL     1       8.774   4.090   1.394  0.00  0.00    +0.006 C 
ATOM      8  C   UNL     1       9.455   2.751   1.671  0.00  0.00    +0.025 C 
ATOM      9  C   UNL     1       8.725   1.643   0.914  0.00  0.00    +0.109 C 
ATOM     10  N   UNL     1       9.495   5.172   2.097  0.00  0.00    +0.399 N 
ATOM     11  C   UNL     1       9.353   6.325   1.175  0.00  0.00    +0.018 C 
ATOM     12  C   UNL     1       9.173   5.705  -0.194  0.00  0.00    +0.198 C 
ATOM     13  O   UNL     1       9.306   6.279  -1.254  0.00  0.00    -0.278 OA
ATOM     14  N   UNL     1       8.841   4.407  -0.035  0.00  0.00    -0.310 N 
ATOM     15  H   UNL     1       4.803   1.333   1.543  0.00  0.00    +0.156 HD
ATOM     16  H   UNL     1       9.060   5.371   2.986  0.00  0.00    -0.082 HD
ATOM     17  H   UNL     1      10.467   4.931   2.219  0.00  0.00    -0.082 HD
ENDROOT
BRANCH   1  20
ATOM     18  C   UNL     1       3.046  -1.205   4.140  0.00  0.00    +0.005 A 
ATOM     19  C   UNL     1       3.662  -0.173   3.459  0.00  0.00    +0.023 A 
ATOM     20  C   UNL     1       4.707  -0.444   2.587  0.00  0.00    +0.037 A 
ATOM     21  C   UNL     1       5.132  -1.752   2.401  0.00  0.00    +0.061 A 
ATOM     22  C   UNL     1       4.512  -2.782   3.085  0.00  0.00    +0.125 A 
ATOM     23  C   UNL     1       3.469  -2.508   3.955  0.00  0.00    +0.038 A 
ATOM     24  F   UNL     1       4.924  -4.056   2.906  0.00  0.00    -0.205 F 
ENDBRANCH   1  20
BRANCH  14  25
ATOM     25  C   UNL     1       8.587   3.460  -1.124  0.00  0.00    +0.141 C 
BRANCH  25  26
ATOM     26  C   UNL     1       9.899   3.016  -1.719  0.00  0.00    -0.026 A 
ATOM     27  C   UNL     1      10.744   3.945  -2.297  0.00  0.00    +0.009 A 
ATOM     28  C   UNL     1      11.948   3.543  -2.844  0.00  0.00    +0.050 A 
ATOM     29  C   UNL     1      12.310   2.206  -2.814  0.00  0.00    +0.166 A 
ATOM     30  C   UNL     1      11.459   1.270  -2.232  0.00  0.00    +0.167 A 
ATOM     31  C   UNL     1      10.256   1.681  -1.681  0.00  0.00    +0.054 A 
ATOM     32  O   UNL     1      12.036   0.036  -2.329  0.00  0.00    -0.453 OA
ATOM     33  C   UNL     1      13.057   0.167  -3.335  0.00  0.00    +0.466 C 
ATOM     34  O   UNL     1      13.421   1.559  -3.275  0.00  0.00    -0.453 OA
ENDBRANCH  25  26
ENDBRANCH  14  25
TORSDOF 3
