REMARK  Name = ZINC21755399
REMARK  9 active torsions:
REMARK  status: ('A' for Active; 'I' for Inactive)
REMARK    1  A    between atoms: C_1  and  N_2
REMARK    2  A    between atoms: N_2  and  C_3
REMARK    3  A    between atoms: N_2  and  C_4
REMARK    4  A    between atoms: C_7  and  C_10
REMARK    5  A    between atoms: C_10  and  C_12
REMARK    6  A    between atoms: C_10  and  N_25
REMARK    7  A    between atoms: C_12  and  N_13
REMARK    8  A    between atoms: N_13  and  S_14
REMARK    9  A    between atoms: S_14  and  C_17
REMARK                            x       y       z     vdW  Elec       q    Type
REMARK                         _______ _______ _______ _____ _____    ______ ____
ROOT
ATOM      1  C   UNL     1      -1.385  -0.422   0.194  0.00  0.00    -0.021 C 
ENDROOT
BRANCH   1   2
ATOM      2  N   UNL     1      -0.011   0.058   0.001  0.00  0.00    +0.388 N 
ATOM      3  C   UNL     1       0.850  -0.341   1.127  0.00  0.00    -0.073 C 
ATOM      4  C   UNL     1       2.309  -0.148   0.714  0.00  0.00    +0.017 C 
ATOM      5  C   UNL     1       2.505   1.235   0.147  0.00  0.00    -0.048 A 
ATOM      6  C   UNL     1       3.796   1.730   0.042  0.00  0.00    +0.004 A 
ATOM      7  C   UNL     1       4.020   2.990  -0.475  0.00  0.00    +0.000 A 
ATOM      8  C   UNL     1       2.951   3.762  -0.891  0.00  0.00    +0.000 A 
ATOM      9  C   UNL     1       1.666   3.271  -0.787  0.00  0.00    +0.002 A 
ATOM     10  C   UNL     1       1.439   2.005  -0.266  0.00  0.00    -0.061 A 
ATOM     11  C   UNL     1       0.019   1.514  -0.169  0.00  0.00    -0.042 C 
ATOM     12  H   UNL     1       0.378  -0.405  -0.918  0.00  0.00    -0.080 HD
ENDBRANCH   1   2
BRANCH   1  16
ATOM     13  C   UNL     1      -1.394  -4.693   0.354  0.00  0.00    +0.029 A 
ATOM     14  C   UNL     1      -2.209  -3.963   1.210  0.00  0.00    +0.023 A 
ATOM     15  C   UNL     1      -2.204  -2.583   1.155  0.00  0.00    +0.004 A 
ATOM     16  C   UNL     1      -1.389  -1.928   0.250  0.00  0.00    -0.060 A 
ATOM     17  C   UNL     1      -0.580  -2.652  -0.607  0.00  0.00    +0.004 A 
ATOM     18  C   UNL     1      -0.576  -4.032  -0.554  0.00  0.00    +0.023 A 
BRANCH  13  20
ATOM     19  C   UNL     1      -2.158  -6.782   1.449  0.00  0.00    +0.129 C 
ATOM     20  N   UNL     1      -1.397  -6.089   0.406  0.00  0.00    -0.336 N 
ATOM     21  C   UNL     1      -0.640  -6.861  -0.583  0.00  0.00    +0.129 C 
ENDBRANCH  13  20
ENDBRANCH   1  16
BRANCH   1  22
ATOM     22  C   UNL     1      -2.257   0.046  -0.973  0.00  0.00    +0.095 C 
BRANCH  22  23
ATOM     23  N   UNL     1      -3.650  -0.335  -0.725  0.00  0.00    -0.191 NA
ATOM     24  H   UNL     1      -3.878  -1.197  -0.082  0.00  0.00    +0.148 HD
BRANCH  23  25
ATOM     25  S   UNL     1      -4.869   0.367  -1.600  0.00  0.00    +0.060 S 
ATOM     26  O   UNL     1      -6.082  -0.222  -1.153  0.00  0.00    -0.153 OA
ATOM     27  O   UNL     1      -4.642   1.769  -1.559  0.00  0.00    -0.153 OA
BRANCH  25  28
ATOM     28  C   UNL     1      -4.657  -0.128  -3.278  0.00  0.00    +0.125 A 
ATOM     29  C   UNL     1      -5.607  -0.926  -3.888  0.00  0.00    +0.050 A 
ATOM     30  C   UNL     1      -5.443  -1.311  -5.207  0.00  0.00    +0.043 A 
ATOM     31  C   UNL     1      -4.324  -0.905  -5.912  0.00  0.00    +0.021 A 
ATOM     32  C   UNL     1      -3.372  -0.112  -5.301  0.00  0.00    +0.023 A 
ATOM     33  C   UNL     1      -3.538   0.277  -3.983  0.00  0.00    +0.067 A 
ATOM     34 CL   UNL     1      -2.342   1.274  -3.215  0.00  0.00    -0.082 Cl
ATOM     35 CL   UNL     1      -6.639  -2.307  -5.975  0.00  0.00    -0.083 Cl
ENDBRANCH  25  28
ENDBRANCH  23  25
ENDBRANCH  22  23
ENDBRANCH   1  22
TORSDOF 7
