REMARK  Name = ZINC38670041
REMARK  8 active torsions:
REMARK  status: ('A' for Active; 'I' for Inactive)
REMARK    1  A    between atoms: C_1  and  N_2
REMARK    2  A    between atoms: C_9  and  C_11
REMARK    3  A    between atoms: C_11  and  C_13
REMARK    4  A    between atoms: C_11  and  N_31
REMARK    5  A    between atoms: C_13  and  N_14
REMARK    6  A    between atoms: C_15  and  C_17
REMARK    7  A    between atoms: N_31  and  C_32
REMARK    8  A    between atoms: N_31  and  C_33
REMARK                            x       y       z     vdW  Elec       q    Type
REMARK                         _______ _______ _______ _____ _____    ______ ____
ROOT
ATOM      1  N   UNL     1       1.930  -2.819   4.752  0.00  0.00    -0.316 N 
ATOM      2  C   UNL     1       3.261  -2.711   4.933  0.00  0.00    +0.225 C 
ATOM      3  O   UNL     1       3.961  -3.701   4.892  0.00  0.00    -0.275 OA
ATOM      4  H   UNL     1       1.370  -2.027   4.785  0.00  0.00    +0.149 HD
ENDROOT
BRANCH   2   5
ATOM      5  C   UNL     1       3.880  -1.361   5.186  0.00  0.00    +0.142 C 
ATOM      6  C   UNL     1       3.273  -0.760   6.424  0.00  0.00    +0.011 A 
ATOM      7  C   UNL     1       2.015  -0.186   6.354  0.00  0.00    +0.008 A 
ATOM      8  C   UNL     1       1.441   0.372   7.480  0.00  0.00    +0.001 A 
ATOM      9  C   UNL     1       2.123   0.359   8.683  0.00  0.00    +0.004 A 
ATOM     10  C   UNL     1       3.377  -0.212   8.760  0.00  0.00    +0.046 A 
ATOM     11  C   UNL     1       3.958  -0.774   7.628  0.00  0.00    +0.133 A 
ATOM     12  O   UNL     1       5.191  -1.328   7.723  0.00  0.00    -0.455 OA
ATOM     13  C   UNL     1       5.946  -1.494   6.610  0.00  0.00    +0.133 A 
ATOM     14  C   UNL     1       5.367  -1.519   5.352  0.00  0.00    +0.011 A 
ATOM     15  C   UNL     1       6.160  -1.689   4.231  0.00  0.00    +0.008 A 
ATOM     16  C   UNL     1       7.528  -1.835   4.363  0.00  0.00    +0.001 A 
ATOM     17  C   UNL     1       8.109  -1.811   5.618  0.00  0.00    +0.004 A 
ATOM     18  C   UNL     1       7.322  -1.641   6.740  0.00  0.00    +0.046 A 
ENDBRANCH   2   5
BRANCH   1  19
ATOM     19  C   UNL     1       1.328  -4.132   4.506  0.00  0.00    +0.093 C 
BRANCH  19  20
ATOM     20  C   UNL     1      -0.171  -3.966   4.249  0.00  0.00    -0.021 C 
BRANCH  20  29
ATOM     21  C   UNL     1      -0.942   0.150  -1.023  0.00  0.00    +0.129 C 
ATOM     22  N   UNL     1      -0.992  -1.272  -0.671  0.00  0.00    -0.332 N 
ATOM     23  C   UNL     1      -1.282  -2.359  -1.610  0.00  0.00    +0.109 C 
ATOM     24  C   UNL     1      -1.217  -3.645  -0.769  0.00  0.00    +0.056 C 
ATOM     25  C   UNL     1      -0.884  -3.169   0.627  0.00  0.00    -0.025 A 
ATOM     26  C   UNL     1      -0.763  -1.788   0.605  0.00  0.00    +0.033 A 
ATOM     27  C   UNL     1      -0.450  -1.117   1.789  0.00  0.00    +0.023 A 
ATOM     28  C   UNL     1      -0.261  -1.821   2.958  0.00  0.00    +0.004 A 
ATOM     29  C   UNL     1      -0.380  -3.199   2.969  0.00  0.00    -0.059 A 
ATOM     30  C   UNL     1      -0.698  -3.870   1.802  0.00  0.00    +0.007 A 
ENDBRANCH  20  29
BRANCH  20  31
ATOM     31  N   UNL     1      -0.781  -3.230   5.365  0.00  0.00    +0.382 N 
ATOM     32  C   UNL     1      -2.215  -3.049   5.107  0.00  0.00    -0.096 C 
ATOM     33  C   UNL     1      -0.599  -3.989   6.609  0.00  0.00    -0.096 C 
ATOM     34  H   UNL     1      -0.339  -2.327   5.454  0.00  0.00    -0.082 HD
ENDBRANCH  20  31
ENDBRANCH  19  20
ENDBRANCH   1  19
TORSDOF 5
