REMARK  Name = ZINC35991494
REMARK  10 active torsions:
REMARK  status: ('A' for Active; 'I' for Inactive)
REMARK    1  A    between atoms: C_1  and  C_2
REMARK    2  A    between atoms: C_2  and  O_3
REMARK    3  A    between atoms: O_3  and  C_4
REMARK    4  A    between atoms: C_4  and  C_6
REMARK    5  A    between atoms: C_7  and  C_25
REMARK    6  A    between atoms: N_8  and  C_24
REMARK    7  A    between atoms: C_12  and  C_14
REMARK    8  A    between atoms: C_17  and  C_20
REMARK    9  A    between atoms: C_25  and  N_26
REMARK   10  A    between atoms: C_31  and  C_33
REMARK                            x       y       z     vdW  Elec       q    Type
REMARK                         _______ _______ _______ _____ _____    ______ ____
ROOT
ATOM      1  C   UNL     1       1.256  -2.341  -2.510  0.00  0.00    +0.076 C 
ATOM      2  C   UNL     1       1.617  -3.633  -2.671  0.00  0.00    +0.010 C 
ATOM      3  N   UNL     1       2.512  -3.999  -3.636  0.00  0.00    -0.264 N 
ATOM      4  C   UNL     1       3.091  -3.134  -4.479  0.00  0.00    +0.307 C 
ATOM      5  O   UNL     1       3.877  -3.555  -5.305  0.00  0.00    -0.252 OA
ATOM      6  N   UNL     1       2.831  -1.812  -4.440  0.00  0.00    -0.288 N 
ATOM      7  C   UNL     1       1.873  -1.315  -3.438  0.00  0.00    +0.143 C 
ATOM      8  C   UNL     1       2.859  -5.417  -3.755  0.00  0.00    +0.139 C 
ATOM      9  H   UNL     1       3.262  -1.203  -5.060  0.00  0.00    +0.151 HD
ENDROOT
BRANCH   7  10
ATOM     10  C   UNL     1       2.583  -0.290  -2.592  0.00  0.00    -0.022 A 
ATOM     11  C   UNL     1       3.841  -0.561  -2.089  0.00  0.00    +0.006 A 
ATOM     12  C   UNL     1       4.493   0.379  -1.313  0.00  0.00    +0.013 A 
ATOM     13  C   UNL     1       3.885   1.590  -1.040  0.00  0.00    +0.055 A 
ATOM     14  C   UNL     1       2.627   1.862  -1.543  0.00  0.00    +0.013 A 
ATOM     15  C   UNL     1       1.977   0.923  -2.323  0.00  0.00    +0.006 A 
BRANCH  13  16
ATOM     16  C   UNL     1       4.595   2.615  -0.192  0.00  0.00    +0.417 C 
ATOM     17  F   UNL     1       5.360   3.450  -1.014  0.00  0.00    -0.166 F 
ATOM     18  F   UNL     1       3.652   3.380   0.501  0.00  0.00    -0.166 F 
ATOM     19  F   UNL     1       5.432   1.966   0.721  0.00  0.00    -0.166 F 
ENDBRANCH  13  16
ENDBRANCH   7  10
BRANCH   1  20
ATOM     20  C   UNL     1       0.329  -1.961  -1.512  0.00  0.00    +0.339 C 
ATOM     21  O   UNL     1      -0.245  -2.812  -0.858  0.00  0.00    -0.245 OA
BRANCH  20  22
ATOM     22  O   UNL     1       0.080  -0.654  -1.284  0.00  0.00    -0.462 OA
BRANCH  22  24
ATOM     23  C   UNL     1      -1.016   1.176  -0.150  0.00  0.00    +0.048 C 
ATOM     24  C   UNL     1      -0.867  -0.343  -0.261  0.00  0.00    +0.229 C 
ENDBRANCH  22  24
ENDBRANCH  20  22
ENDBRANCH   1  20
BRANCH   2  25
ATOM     25  C   UNL     1       1.024  -4.687  -1.773  0.00  0.00    -0.026 C 
BRANCH  25  26
ATOM     26  N   UNL     1      -0.290  -5.090  -2.292  0.00  0.00    +0.385 N 
ATOM     27  C   UNL     1      -0.127  -5.679  -3.627  0.00  0.00    -0.078 C 
ATOM     28  C   UNL     1      -1.500  -6.027  -4.206  0.00  0.00    -0.019 C 
ATOM     29  C   UNL     1      -2.197  -7.032  -3.284  0.00  0.00    -0.003 C 
ATOM     30  C   UNL     1      -2.295  -6.436  -1.877  0.00  0.00    -0.016 C 
ATOM     31  C   UNL     1      -0.892  -6.073  -1.384  0.00  0.00    -0.071 C 
ATOM     32  C   UNL     1      -0.985  -5.478   0.022  0.00  0.00    -0.013 C 
ATOM     33  H   UNL     1      -0.888  -4.280  -2.355  0.00  0.00    -0.081 HD
ENDBRANCH  25  26
ENDBRANCH   2  25
TORSDOF 7
