REMARK  Name = ZINC23039919
REMARK  4 active torsions:
REMARK  status: ('A' for Active; 'I' for Inactive)
REMARK    1  A    between atoms: C_4  and  C_7
REMARK    2  A    between atoms: N_16  and  C_17
REMARK    3  A    between atoms: C_17  and  C_18
REMARK    4  A    between atoms: N_20  and  C_21
REMARK                            x       y       z     vdW  Elec       q    Type
REMARK                         _______ _______ _______ _____ _____    ______ ____
ROOT
ATOM      1  C   UNL     1       9.566   3.623   0.452  0.00  0.00    -0.005 C 
ATOM      2  C   UNL     1      10.639   2.622   0.867  0.00  0.00    -0.047 A 
ATOM      3  C   UNL     1      11.960   2.968   1.140  0.00  0.00    +0.010 A 
ATOM      4  C   UNL     1      12.849   2.014   1.505  0.00  0.00    +0.045 A 
ATOM      5  S   UNL     1      11.838   0.540   1.479  0.00  0.00    -0.101 S 
ATOM      6  C   UNL     1      10.318   1.303   0.987  0.00  0.00    -0.010 A 
ATOM      7  C   UNL     1       8.979   0.685   0.748  0.00  0.00    +0.024 C 
ATOM      8  C   UNL     1       8.113   1.718   0.007  0.00  0.00    -0.072 C 
ATOM      9  N   UNL     1       8.247   3.018   0.679  0.00  0.00    +0.393 N 
ATOM     10  H   UNL     1       8.156   2.836   1.760  0.00  0.00    -0.080 HD
ENDROOT
BRANCH   1  14
ATOM     11  C   UNL     1       9.935   7.176   2.795  0.00  0.00    +0.000 A 
ATOM     12  C   UNL     1      10.432   7.143   1.506  0.00  0.00    +0.000 A 
ATOM     13  C   UNL     1      10.312   5.994   0.747  0.00  0.00    +0.002 A 
ATOM     14  C   UNL     1       9.696   4.876   1.278  0.00  0.00    -0.057 A 
ATOM     15  C   UNL     1       9.194   4.910   2.566  0.00  0.00    +0.002 A 
ATOM     16  C   UNL     1       9.318   6.058   3.326  0.00  0.00    +0.000 A 
ENDBRANCH   1  14
BRANCH   9  17
ATOM     17  C   UNL     1       7.171   3.933   0.274  0.00  0.00    +0.020 C 
BRANCH  17  18
ATOM     18  C   UNL     1       7.242   4.165  -1.213  0.00  0.00    +0.201 C 
ATOM     19  O   UNL     1       8.047   3.554  -1.885  0.00  0.00    -0.278 OA
ATOM     20  N   UNL     1       6.412   5.052  -1.797  0.00  0.00    -0.286 N 
ATOM     21  H   UNL     1       5.747   5.673  -1.179  0.00  0.00    +0.155 HD
BRANCH  20  22
ATOM     22  C   UNL     1       6.395   5.183  -3.192  0.00  0.00    +0.056 A 
ATOM     23  C   UNL     1       6.798   4.124  -3.994  0.00  0.00    +0.074 A 
ATOM     24  C   UNL     1       6.782   4.253  -5.374  0.00  0.00    +0.164 A 
ATOM     25  C   UNL     1       6.358   5.443  -5.954  0.00  0.00    +0.164 A 
ATOM     26  C   UNL     1       5.958   6.500  -5.151  0.00  0.00    +0.071 A 
ATOM     27  C   UNL     1       5.975   6.372  -3.774  0.00  0.00    +0.066 A 
ATOM     28 CL   UNL     1       5.473   7.698  -2.772  0.00  0.00    -0.082 Cl
ATOM     29  O   UNL     1       6.331   5.587  -7.308  0.00  0.00    -0.485 OA
ATOM     30  C   UNL     1       7.090   4.643  -8.071  0.00  0.00    +0.270 C 
ATOM     31  C   UNL     1       6.798   3.239  -7.525  0.00  0.00    +0.270 C 
ATOM     32  O   UNL     1       7.183   3.206  -6.146  0.00  0.00    -0.485 OA
ENDBRANCH  20  22
ENDBRANCH  17  18
ENDBRANCH   9  17
TORSDOF 4
