REMARK  Name = ZINC27484220
REMARK  13 active torsions:
REMARK  status: ('A' for Active; 'I' for Inactive)
REMARK    1  A    between atoms: C_1  and  C_2
REMARK    2  A    between atoms: C_2  and  C_3
REMARK    3  A    between atoms: C_3  and  C_4
REMARK    4  A    between atoms: C_4  and  N_5
REMARK    5  A    between atoms: C_6  and  N_30
REMARK    6  A    between atoms: C_7  and  N_14
REMARK    7  A    between atoms: N_14  and  C_15
REMARK    8  A    between atoms: C_15  and  C_16
REMARK    9  A    between atoms: C_16  and  C_17
REMARK   10  A    between atoms: C_17  and  C_18
REMARK   11  A    between atoms: C_19  and  C_21
REMARK   12  A    between atoms: C_21  and  O_22
REMARK   13  A    between atoms: O_22  and  C_23
REMARK                            x       y       z     vdW  Elec       q    Type
REMARK                         _______ _______ _______ _____ _____    ______ ____
ROOT
ATOM      1  N   UNL     1      -2.400  -3.465  -0.886  0.00  0.00    -0.280 N 
ATOM      2  C   UNL     1      -2.420  -4.199   0.277  0.00  0.00    +0.127 A 
ATOM      3  C   UNL     1      -1.378  -4.071   1.172  0.00  0.00    +0.140 A 
ATOM      4  C   UNL     1      -0.323  -3.191   0.866  0.00  0.00    +0.277 A 
ATOM      5  O   UNL     1       0.611  -3.058   1.639  0.00  0.00    -0.266 OA
ATOM      6  N   UNL     1      -0.352  -2.495  -0.287  0.00  0.00    -0.273 N 
ATOM      7  H   UNL     1       0.466  -1.802  -0.532  0.00  0.00    +0.173 HD
ATOM      8  C   UNL     1      -1.373  -2.637  -1.151  0.00  0.00    +0.331 A 
ATOM      9  O   UNL     1      -1.372  -2.000  -2.187  0.00  0.00    -0.246 OA
ENDROOT
BRANCH   3  10
ATOM     10  N   UNL     1      -1.369  -4.811   2.374  0.00  0.00    -0.261 N 
ATOM     11  C   UNL     1      -1.479  -4.174   3.559  0.00  0.00    +0.258 C 
ATOM     12  O   UNL     1      -1.493  -2.961   3.597  0.00  0.00    -0.272 OA
BRANCH  10  13
ATOM     13  C   UNL     1      -1.241  -6.269   2.336  0.00  0.00    +0.114 C 
BRANCH  13  14
ATOM     14  C   UNL     1       0.229  -6.657   2.508  0.00  0.00    +0.019 C 
BRANCH  14  15
ATOM     15  C   UNL     1       0.363  -8.181   2.467  0.00  0.00    -0.002 C 
ATOM     16  C   UNL     1       1.833  -8.568   2.640  0.00  0.00    +0.004 C 
ENDBRANCH  14  15
ENDBRANCH  13  14
ENDBRANCH  10  13
BRANCH  11  17
ATOM     17  C   UNL     1      -1.584  -4.969   4.835  0.00  0.00    +0.325 C 
BRANCH  17  18
ATOM     18  O   UNL     1      -1.689  -4.076   5.945  0.00  0.00    -0.483 OA
BRANCH  18  19
ATOM     19  C   UNL     1      -1.793  -4.636   7.179  0.00  0.00    +0.122 A 
ATOM     20  C   UNL     1      -1.798  -6.017   7.318  0.00  0.00    +0.046 A 
ATOM     21  C   UNL     1      -1.899  -6.584   8.573  0.00  0.00    +0.005 A 
ATOM     22  C   UNL     1      -2.004  -5.777   9.691  0.00  0.00    +0.015 A 
ATOM     23  C   UNL     1      -2.004  -4.400   9.556  0.00  0.00    +0.021 A 
ATOM     24  C   UNL     1      -1.899  -3.828   8.302  0.00  0.00    +0.061 A 
ATOM     25 BR   UNL     1      -2.149  -3.300  11.087  0.00  0.00    -0.050 Br
ENDBRANCH  18  19
ENDBRANCH  17  18
ENDBRANCH  11  17
ENDBRANCH   3  10
BRANCH   2  26
ATOM     26  N   UNL     1      -3.466  -5.049   0.545  0.00  0.00    -0.343 N 
ATOM     27  H   UNL     1      -3.476  -5.633   1.477  0.00  0.00    +0.144 HD
ATOM     28  H   UNL     1      -4.294  -5.146  -0.173  0.00  0.00    +0.144 HD
ENDBRANCH   2  26
BRANCH   1  29
ATOM     29  C   UNL     1      -3.500  -3.591  -1.845  0.00  0.00    +0.128 C 
BRANCH  29  30
ATOM     30  C   UNL     1      -4.584  -2.563  -1.515  0.00  0.00    +0.021 C 
BRANCH  30  32
ATOM     31  C   UNL     1      -6.817  -1.667  -2.187  0.00  0.00    +0.004 C 
ATOM     32  C   UNL     1      -5.733  -2.695  -2.517  0.00  0.00    -0.002 C 
ENDBRANCH  30  32
ENDBRANCH  29  30
ENDBRANCH   1  29
TORSDOF 11
