REMARK  Name = ZINC15826084
REMARK  8 active torsions:
REMARK  status: ('A' for Active; 'I' for Inactive)
REMARK    1  A    between atoms: C_1  and  C_2
REMARK    2  A    between atoms: C_5  and  S_8
REMARK    3  A    between atoms: S_8  and  N_11
REMARK    4  A    between atoms: N_11  and  C_12
REMARK    5  A    between atoms: C_12  and  C_14
REMARK    6  A    between atoms: C_12  and  C_15
REMARK    7  A    between atoms: N_17  and  C_18
REMARK    8  A    between atoms: N_33  and  C_34
REMARK                            x       y       z     vdW  Elec       q    Type
REMARK                         _______ _______ _______ _____ _____    ______ ____
ROOT
ATOM      1  C   UNL     1       2.082   5.128   3.801  0.00  0.00    +0.035 A 
ATOM      2  C   UNL     1       3.416   4.750   3.880  0.00  0.00    +0.025 A 
ATOM      3  C   UNL     1       4.020   4.110   2.817  0.00  0.00    +0.026 A 
ATOM      4  C   UNL     1       3.302   3.835   1.655  0.00  0.00    +0.051 A 
ATOM      5  C   UNL     1       1.966   4.213   1.580  0.00  0.00    +0.036 A 
ATOM      6  C   UNL     1       1.358   4.857   2.647  0.00  0.00    +0.040 A 
ATOM      7  S   UNL     1       1.027   3.878   0.126  0.00  0.00    -0.087 S 
ATOM      8  C   UNL     1       1.076   2.122  -0.005  0.00  0.00    +0.025 A 
ATOM      9  C   UNL     1      -0.106   1.393   0.014  0.00  0.00    +0.016 A 
ATOM     10  C   UNL     1      -0.072   0.018  -0.094  0.00  0.00    +0.001 A 
ATOM     11  C   UNL     1       1.141  -0.641  -0.221  0.00  0.00    +0.001 A 
ATOM     12  C   UNL     1       2.321   0.068  -0.239  0.00  0.00    +0.014 A 
ATOM     13  C   UNL     1       2.307   1.465  -0.129  0.00  0.00    +0.051 A 
ATOM     14  C   UNL     1       3.571   2.198  -0.146  0.00  0.00    +0.252 C 
ATOM     15  O   UNL     1       4.379   1.831  -0.977  0.00  0.00    -0.270 OA
ATOM     16  N   UNL     1       3.954   3.193   0.609  0.00  0.00    -0.263 N 
ENDROOT
BRANCH   1  19
ATOM     17  C   UNL     1       0.540   6.728   4.654  0.00  0.00    +0.236 C 
ATOM     18  O   UNL     1       0.173   6.961   3.522  0.00  0.00    -0.274 OA
ATOM     19  N   UNL     1       1.469   5.778   4.880  0.00  0.00    -0.284 N 
ATOM     20  H   UNL     1       1.714   5.545   5.789  0.00  0.00    +0.155 HD
BRANCH  17  21
ATOM     21  C   UNL     1      -0.042   7.501   5.810  0.00  0.00    +0.159 C 
ATOM     22  C   UNL     1      -0.730   6.534   6.776  0.00  0.00    +0.035 C 
BRANCH  21  23
ATOM     23  N   UNL     1      -1.022   8.467   5.306  0.00  0.00    -0.178 NA
ATOM     24  H   UNL     1      -1.575   8.243   4.542  0.00  0.00    +0.149 HD
BRANCH  23  25
ATOM     25  S   UNL     1      -1.186   9.941   6.043  0.00  0.00    +0.059 S 
ATOM     26  O   UNL     1      -2.181  10.649   5.317  0.00  0.00    -0.153 OA
ATOM     27  O   UNL     1      -1.294   9.689   7.437  0.00  0.00    -0.153 OA
BRANCH  25  32
ATOM     28  C   UNL     1       3.994  12.926   5.229  0.00  0.00    +0.044 C 
ATOM     29  C   UNL     1       2.701  12.181   5.432  0.00  0.00    -0.050 A 
ATOM     30  C   UNL     1       1.681  12.300   4.506  0.00  0.00    +0.005 A 
ATOM     31  C   UNL     1       0.494  11.616   4.693  0.00  0.00    +0.029 A 
ATOM     32  C   UNL     1       0.327  10.812   5.805  0.00  0.00    +0.105 A 
ATOM     33  C   UNL     1       1.345  10.697   6.733  0.00  0.00    +0.029 A 
ATOM     34  C   UNL     1       2.533  11.377   6.545  0.00  0.00    +0.005 A 
ENDBRANCH  25  32
ENDBRANCH  23  25
ENDBRANCH  21  23
ENDBRANCH  17  21
ENDBRANCH   1  19
BRANCH  16  35
ATOM     35  C   UNL     1       5.287   3.718   0.303  0.00  0.00    +0.082 C 
ATOM     36  C   UNL     1       5.446   5.237   0.217  0.00  0.00    +0.025 C 
ATOM     37  C   UNL     1       5.486   4.391  -1.057  0.00  0.00    +0.025 C 
ENDBRANCH  16  35
TORSDOF 6
