REMARK  Name = ZINC33810636
REMARK  10 active torsions:
REMARK  status: ('A' for Active; 'I' for Inactive)
REMARK    1  A    between atoms: C_1  and  C_2
REMARK    2  A    between atoms: C_5  and  C_8
REMARK    3  A    between atoms: C_8  and  S_9
REMARK    4  A    between atoms: S_9  and  C_10
REMARK    5  A    between atoms: C_17  and  C_29
REMARK    6  A    between atoms: C_23  and  C_27
REMARK    7  A    between atoms: C_23  and  C_28
REMARK    8  A    between atoms: C_32  and  C_35
REMARK    9  A    between atoms: C_35  and  C_36
REMARK   10  A    between atoms: C_35  and  C_37
REMARK                            x       y       z     vdW  Elec       q    Type
REMARK                         _______ _______ _______ _____ _____    ______ ____
ROOT
ATOM      1  C   UNL     1       2.344   4.091   0.395  0.00  0.00    +0.171 A 
ATOM      2  N   UNL     1       1.176   3.390   0.402  0.00  0.00    -0.208 NA
ATOM      3  C   UNL     1       1.158   2.080   0.002  0.00  0.00    +0.135 A 
ATOM      4  C   UNL     1       2.315   1.492  -0.404  0.00  0.00    +0.069 A 
ATOM      5  C   UNL     1       3.505   2.252  -0.394  0.00  0.00    +0.258 A 
ATOM      6  O   UNL     1       4.560   1.746  -0.750  0.00  0.00    -0.267 OA
ATOM      7  N   UNL     1       3.472   3.531   0.008  0.00  0.00    -0.302 N 
ATOM      8  C   UNL     1       2.336   0.062  -0.857  0.00  0.00    +0.092 C 
ATOM      9  C   UNL     1       1.102  -0.675  -0.402  0.00  0.00    +0.024 C 
ATOM     10  C   UNL     1       0.002  -0.004   0.002  0.00  0.00    +0.017 C 
ATOM     11  N   UNL     1      -0.017   1.364   0.009  0.00  0.00    -0.302 N 
ATOM     12  C   UNL     1      -1.233  -0.740   0.459  0.00  0.00    +0.058 C 
ATOM     13  C   UNL     1      -1.340  -2.074  -0.283  0.00  0.00    -0.023 C 
ATOM     14  C   UNL     1      -0.072  -2.888  -0.004  0.00  0.00    +0.086 C 
ATOM     15  C   UNL     1       1.128  -2.080  -0.416  0.00  0.00    +0.162 C 
ATOM     16  O   UNL     1       2.140  -2.654  -0.768  0.00  0.00    -0.292 OA
ATOM     17  C   UNL     1      -1.465  -1.817  -1.786  0.00  0.00    +0.011 C 
ATOM     18  C   UNL     1      -2.565  -2.846   0.210  0.00  0.00    +0.011 C 
ATOM     19  H   UNL     1      -0.982   1.892   0.021  0.00  0.00    +0.153 HD
ATOM     20  H   UNL     1       4.404   4.115   0.010  0.00  0.00    +0.171 HD
ENDROOT
BRANCH   8  21
ATOM     21  C   UNL     1       2.408   0.022  -2.361  0.00  0.00    -0.035 A 
ATOM     22  C   UNL     1       1.386   0.565  -3.117  0.00  0.00    +0.005 A 
ATOM     23  C   UNL     1       1.454   0.532  -4.497  0.00  0.00    +0.004 A 
ATOM     24  C   UNL     1       2.540  -0.052  -5.122  0.00  0.00    -0.045 A 
ATOM     25  C   UNL     1       3.560  -0.600  -4.366  0.00  0.00    +0.004 A 
ATOM     26  C   UNL     1       3.494  -0.563  -2.986  0.00  0.00    +0.005 A 
BRANCH  24  27
ATOM     27  C   UNL     1       2.612  -0.093  -6.627  0.00  0.00    +0.013 C 
ATOM     28  C   UNL     1       1.410  -0.866  -7.174  0.00  0.00    +0.012 C 
ATOM     29  C   UNL     1       2.594   1.335  -7.177  0.00  0.00    +0.012 C 
ENDBRANCH  24  27
ENDBRANCH   8  21
BRANCH   1  30
ATOM     30  S   UNL     1       2.347   5.775   0.913  0.00  0.00    -0.083 S 
BRANCH  30  31
ATOM     31  C   UNL     1       4.101   6.167   0.699  0.00  0.00    +0.112 C 
BRANCH  31  36
ATOM     32  C   UNL     1       5.046  11.664   2.211  0.00  0.00    +0.044 C 
ATOM     33  C   UNL     1       4.800  10.230   1.816  0.00  0.00    -0.050 A 
ATOM     34  C   UNL     1       4.901   9.226   2.761  0.00  0.00    +0.003 A 
ATOM     35  C   UNL     1       4.675   7.911   2.400  0.00  0.00    +0.005 A 
ATOM     36  C   UNL     1       4.347   7.601   1.093  0.00  0.00    -0.037 A 
ATOM     37  C   UNL     1       4.251   8.604   0.147  0.00  0.00    +0.005 A 
ATOM     38  C   UNL     1       4.472   9.919   0.510  0.00  0.00    +0.003 A 
ENDBRANCH  31  36
ENDBRANCH  30  31
ENDBRANCH   1  30
TORSDOF 5
