REMARK  Name = ZINC39747615
REMARK  14 active torsions:
REMARK  status: ('A' for Active; 'I' for Inactive)
REMARK    1  A    between atoms: C_1  and  C_2
REMARK    2  A    between atoms: C_2  and  C_3
REMARK    3  A    between atoms: C_2  and  C_4
REMARK    4  A    between atoms: C_4  and  N_5
REMARK    5  A    between atoms: C_6  and  C_31
REMARK    6  A    between atoms: C_9  and  S_10
REMARK    7  A    between atoms: S_10  and  C_11
REMARK    8  A    between atoms: C_11  and  C_12
REMARK    9  A    between atoms: N_14  and  C_15
REMARK   10  A    between atoms: C_16  and  C_29
REMARK   11  A    between atoms: C_21  and  C_25
REMARK   12  A    between atoms: C_25  and  C_26
REMARK   13  A    between atoms: C_25  and  C_27
REMARK   14  A    between atoms: C_25  and  C_28
REMARK                            x       y       z     vdW  Elec       q    Type
REMARK                         _______ _______ _______ _____ _____    ______ ____
ROOT
ATOM      1  C   UNL     1      -0.701  -4.033   4.854  0.00  0.00    +0.228 C 
ATOM      2  O   UNL     1      -0.618  -2.925   5.340  0.00  0.00    -0.275 OA
ATOM      3  N   UNL     1      -0.605  -5.123   5.642  0.00  0.00    -0.278 N 
ATOM      4  H   UNL     1      -0.671  -6.009   5.254  0.00  0.00    +0.155 HD
ENDROOT
BRANCH   3   5
ATOM      5  C   UNL     1      -0.411  -4.976   7.008  0.00  0.00    +0.090 A 
ATOM      6  C   UNL     1      -0.284  -5.973   7.962  0.00  0.00    +0.084 A 
ATOM      7  C   UNL     1      -0.086  -5.554   9.338  0.00  0.00    -0.018 A 
ATOM      8  C   UNL     1      -0.051  -4.214   9.509  0.00  0.00    -0.004 A 
ATOM      9  S   UNL     1      -0.268  -3.550   7.884  0.00  0.00    -0.077 S 
ATOM     10  C   UNL     1       0.140  -3.476  10.797  0.00  0.00    +0.047 C 
ATOM     11  C   UNL     1       0.665  -4.466  11.847  0.00  0.00    -0.000 C 
ATOM     12  C   UNL     1      -0.195  -5.732  11.809  0.00  0.00    +0.009 C 
ATOM     13  C   UNL     1       0.071  -6.505  10.516  0.00  0.00    +0.037 C 
BRANCH  11  14
ATOM     14  C   UNL     1       0.586  -3.831  13.236  0.00  0.00    -0.035 C 
ATOM     15  C   UNL     1      -0.869  -3.478  13.553  0.00  0.00    +0.011 C 
ATOM     16  C   UNL     1       1.110  -4.819  14.280  0.00  0.00    +0.011 C 
ATOM     17  C   UNL     1       1.437  -2.559  13.265  0.00  0.00    +0.011 C 
ENDBRANCH  11  14
BRANCH   6  18
ATOM     18  C   UNL     1      -0.346  -7.358   7.606  0.00  0.00    +0.102 C 
ATOM     19  N   UNL     1      -0.396  -8.457   7.323  0.00  0.00    -0.191 NA
ENDBRANCH   6  18
ENDBRANCH   3   5
BRANCH   1  20
ATOM     20  C   UNL     1      -0.912  -4.192   3.371  0.00  0.00    +0.173 C 
BRANCH  20  21
ATOM     21  S   UNL     1      -1.000  -2.556   2.593  0.00  0.00    -0.077 S 
BRANCH  21  26
ATOM     22  N   UNL     1      -1.374  -1.993  -0.121  0.00  0.00    -0.302 N 
ATOM     23  C   UNL     1      -1.540  -2.727  -1.272  0.00  0.00    +0.165 A 
ATOM     24  N   UNL     1      -1.511  -3.994  -0.929  0.00  0.00    -0.128 NA
ATOM     25  N   UNL     1      -1.341  -4.101   0.340  0.00  0.00    -0.122 NA
ATOM     26  C   UNL     1      -1.245  -2.908   0.884  0.00  0.00    +0.192 A 
BRANCH  23  27
ATOM     27  C   UNL     1      -1.718  -2.191  -2.639  0.00  0.00    +0.022 A 
ATOM     28  C   UNL     1      -1.361  -0.872  -2.926  0.00  0.00    +0.012 A 
ATOM     29  C   UNL     1      -1.528  -0.377  -4.202  0.00  0.00    +0.003 A 
ATOM     30  C   UNL     1      -2.049  -1.183  -5.198  0.00  0.00    +0.038 A 
ATOM     31  C   UNL     1      -2.406  -2.493  -4.921  0.00  0.00    +0.124 A 
ATOM     32  C   UNL     1      -2.238  -3.002  -3.648  0.00  0.00    +0.050 A 
ATOM     33  F   UNL     1      -2.915  -3.275  -5.899  0.00  0.00    -0.205 F 
ENDBRANCH  23  27
BRANCH  22  34
ATOM     34  C   UNL     1      -1.338  -0.533   0.001  0.00  0.00    +0.129 C 
BRANCH  34  36
ATOM     35  C   UNL     1       0.125   1.486  -0.162  0.00  0.00    +0.009 C 
ATOM     36  C   UNL     1       0.103  -0.044  -0.164  0.00  0.00    +0.003 C 
ATOM     37  C   UNL     1       0.955  -0.568   0.994  0.00  0.00    +0.009 C 
ENDBRANCH  34  36
ENDBRANCH  22  34
ENDBRANCH  21  26
ENDBRANCH  20  21
ENDBRANCH   1  20
TORSDOF 9
