REMARK  Name = ZINC35729504
REMARK  10 active torsions:
REMARK  status: ('A' for Active; 'I' for Inactive)
REMARK    1  A    between atoms: C_1  and  C_2
REMARK    2  A    between atoms: C_2  and  O_3
REMARK    3  A    between atoms: O_3  and  C_4
REMARK    4  A    between atoms: C_4  and  C_6
REMARK    5  A    between atoms: C_7  and  C_33
REMARK    6  A    between atoms: N_8  and  C_32
REMARK    7  A    between atoms: C_12  and  C_14
REMARK    8  A    between atoms: C_17  and  N_20
REMARK    9  A    between atoms: C_21  and  C_23
REMARK   10  A    between atoms: C_26  and  N_29
REMARK                            x       y       z     vdW  Elec       q    Type
REMARK                         _______ _______ _______ _____ _____    ______ ____
ROOT
ATOM      1  C   UNL     1      -3.230  -0.714  -0.638  0.00  0.00    -0.022 A 
ATOM      2  C   UNL     1      -3.090  -1.404  -1.828  0.00  0.00    +0.007 A 
ATOM      3  C   UNL     1      -2.744  -0.730  -2.983  0.00  0.00    +0.023 A 
ATOM      4  C   UNL     1      -2.537   0.643  -2.947  0.00  0.00    +0.034 A 
ATOM      5  C   UNL     1      -2.678   1.333  -1.750  0.00  0.00    +0.023 A 
ATOM      6  C   UNL     1      -3.030   0.654  -0.601  0.00  0.00    +0.007 A 
ENDROOT
BRANCH   1  13
ATOM      7  C   UNL     1      -2.357  -2.107   1.171  0.00  0.00    +0.078 C 
ATOM      8  C   UNL     1      -2.369  -3.447   1.337  0.00  0.00    +0.021 C 
ATOM      9  N   UNL     1      -3.469  -4.188   1.013  0.00  0.00    -0.289 N 
ATOM     10  C   UNL     1      -4.597  -3.664   0.518  0.00  0.00    +0.137 C 
ATOM     11  S   UNL     1      -5.905  -4.707   0.154  0.00  0.00    -0.018 S 
ATOM     12  N   UNL     1      -4.738  -2.342   0.297  0.00  0.00    -0.315 N 
ATOM     13  C   UNL     1      -3.608  -1.453   0.619  0.00  0.00    +0.141 C 
ATOM     14  C   UNL     1      -3.412  -5.637   1.218  0.00  0.00    +0.137 C 
ATOM     15  C   UNL     1      -1.148  -4.137   1.887  0.00  0.00    +0.061 C 
ATOM     16  H   UNL     1      -5.564  -1.983  -0.063  0.00  0.00    +0.149 HD
BRANCH   7  17
ATOM     17  C   UNL     1      -1.218  -1.339   1.507  0.00  0.00    +0.339 C 
ATOM     18  O   UNL     1      -0.255  -1.873   2.023  0.00  0.00    -0.245 OA
BRANCH  17  19
ATOM     19  O   UNL     1      -1.200  -0.013   1.254  0.00  0.00    -0.462 OA
BRANCH  19  21
ATOM     20  C   UNL     1      -0.182   2.179   1.259  0.00  0.00    +0.048 C 
ATOM     21  C   UNL     1      -0.017   0.701   1.619  0.00  0.00    +0.229 C 
ENDBRANCH  19  21
ENDBRANCH  17  19
ENDBRANCH   7  17
ENDBRANCH   1  13
BRANCH   4  22
ATOM     22  N   UNL     1      -2.185   1.329  -4.114  0.00  0.00    -0.282 N 
ATOM     23  C   UNL     1      -2.668   0.923  -5.306  0.00  0.00    +0.248 C 
ATOM     24  O   UNL     1      -3.484   0.024  -5.356  0.00  0.00    -0.270 OA
ATOM     25  H   UNL     1      -1.595   2.097  -4.066  0.00  0.00    +0.155 HD
BRANCH  23  26
ATOM     26  C   UNL     1      -2.204   1.572  -6.550  0.00  0.00    +0.037 A 
ATOM     27  C   UNL     1      -1.263   2.601  -6.496  0.00  0.00    +0.015 A 
ATOM     28  C   UNL     1      -0.835   3.202  -7.662  0.00  0.00    +0.033 A 
ATOM     29  C   UNL     1      -1.336   2.787  -8.883  0.00  0.00    +0.126 A 
ATOM     30  C   UNL     1      -2.269   1.767  -8.943  0.00  0.00    +0.033 A 
ATOM     31  C   UNL     1      -2.702   1.154  -7.786  0.00  0.00    +0.015 A 
BRANCH  29  32
ATOM     32  N   UNL     1      -0.873   3.437 -10.129  0.00  0.00    +0.056 N 
ATOM     33  O   UNL     1      -0.058   4.329 -10.079  0.00  0.00    -0.126 OA
ATOM     34  O   UNL     1      -1.309   3.076 -11.197  0.00  0.00    -0.126 OA
ENDBRANCH  29  32
ENDBRANCH  23  26
ENDBRANCH   4  22
TORSDOF 7
