REMARK  Name = ZINC14475782
REMARK  5 active torsions:
REMARK  status: ('A' for Active; 'I' for Inactive)
REMARK    1  A    between atoms: C_1  and  C_2
REMARK    2  A    between atoms: C_4  and  N_28
REMARK    3  A    between atoms: C_9  and  C_18
REMARK    4  A    between atoms: C_20  and  N_25
REMARK    5  A    between atoms: C_23  and  O_24
REMARK                            x       y       z     vdW  Elec       q    Type
REMARK                         _______ _______ _______ _____ _____    ______ ____
ROOT
ATOM      1  C   UNL     1      -0.018   1.503   0.010  0.00  0.00    +0.046 C 
ATOM      2  C   UNL     1       0.002  -0.004   0.002  0.00  0.00    -0.027 A 
ATOM      3  C   UNL     1       0.006  -0.686  -1.198  0.00  0.00    +0.038 A 
ATOM      4  C   UNL     1       0.027  -2.069  -1.202  0.00  0.00    +0.127 A 
ATOM      5  C   UNL     1       0.050  -2.766  -0.011  0.00  0.00    +0.038 A 
ATOM      6  C   UNL     1       0.050  -2.088   1.200  0.00  0.00    -0.017 A 
ATOM      7  C   UNL     1       0.023  -0.705   1.204  0.00  0.00    +0.034 A 
ATOM      8  N   UNL     1      -0.004   0.004   2.400  0.00  0.00    -0.336 N 
ATOM      9  C   UNL     1      -0.024  -0.644   3.695  0.00  0.00    +0.108 C 
ATOM     10  C   UNL     1       0.470  -2.060   3.693  0.00  0.00    +0.029 C 
ATOM     11  C   UNL     1       0.095  -2.894   2.468  0.00  0.00    +0.049 C 
ATOM     12  C   UNL     1       1.245  -3.882   2.348  0.00  0.00    -0.023 C 
ATOM     13  C   UNL     1       2.285  -3.463   3.021  0.00  0.00    -0.030 C 
ATOM     14  C   UNL     1       2.010  -2.143   3.693  0.00  0.00    +0.033 C 
ATOM     15  H   UNL     1      -0.009   0.973   2.366  0.00  0.00    +0.147 HD
ENDROOT
BRANCH   9  16
ATOM     16  C   UNL     1      -1.440  -0.637   4.210  0.00  0.00    +0.017 A 
ATOM     17  C   UNL     1      -2.498  -0.572   3.323  0.00  0.00    +0.041 A 
ATOM     18  C   UNL     1      -3.798  -0.566   3.795  0.00  0.00    +0.127 A 
ATOM     19  C   UNL     1      -4.043  -0.625   5.154  0.00  0.00    +0.036 A 
ATOM     20  C   UNL     1      -2.989  -0.690   6.045  0.00  0.00    +0.048 A 
ATOM     21  C   UNL     1      -1.684  -0.702   5.574  0.00  0.00    +0.122 A 
BRANCH  18  22
ATOM     22  N   UNL     1      -4.929  -0.496   2.843  0.00  0.00    +0.056 N 
ATOM     23  O   UNL     1      -4.716  -0.444   1.654  0.00  0.00    -0.126 OA
ATOM     24  O   UNL     1      -6.066  -0.490   3.254  0.00  0.00    -0.126 OA
ENDBRANCH  18  22
BRANCH  21  25
ATOM     25  O   UNL     1      -0.645  -0.771   6.448  0.00  0.00    -0.506 OA
ATOM     26  H   UNL     1      -0.324   0.090   6.746  0.00  0.00    +0.292 HD
ENDBRANCH  21  25
ENDBRANCH   9  16
BRANCH   4  27
ATOM     27  N   UNL     1       0.023  -2.803  -2.487  0.00  0.00    +0.056 N 
ATOM     28  O   UNL     1       0.002  -2.194  -3.532  0.00  0.00    -0.126 OA
ATOM     29  O   UNL     1       0.041  -4.012  -2.493  0.00  0.00    -0.126 OA
ENDBRANCH   4  27
TORSDOF 4
