REMARK  Name = ZINC21148632
REMARK  16 active torsions:
REMARK  status: ('A' for Active; 'I' for Inactive)
REMARK    1  A    between atoms: C_1  and  C_2
REMARK    2  A    between atoms: C_2  and  O_3
REMARK    3  A    between atoms: O_3  and  C_4
REMARK    4  A    between atoms: C_7  and  C_12
REMARK    5  A    between atoms: C_9  and  O_10
REMARK    6  A    between atoms: O_10  and  C_11
REMARK    7  A    between atoms: C_15  and  C_30
REMARK    8  A    between atoms: N_22  and  C_23
REMARK    9  A    between atoms: C_23  and  C_24
REMARK   10  A    between atoms: C_24  and  C_25
REMARK   11  A    between atoms: C_25  and  O_26
REMARK   12  A    between atoms: O_26  and  C_27
REMARK   13  A    between atoms: C_27  and  C_28
REMARK   14  A    between atoms: C_27  and  C_29
REMARK   15  A    between atoms: C_32  and  C_37
REMARK   16  A    between atoms: C_35  and  O_36
REMARK                            x       y       z     vdW  Elec       q    Type
REMARK                         _______ _______ _______ _____ _____    ______ ____
ROOT
ATOM      1  C   UNL     1      -2.097  -6.218  -0.029  0.00  0.00    +0.141 C 
ATOM      2  C   UNL     1      -1.675  -6.718   1.325  0.00  0.00    +0.035 A 
ATOM      3  C   UNL     1      -1.890  -6.704   2.707  0.00  0.00    +0.102 A 
ATOM      4  N   UNL     1      -0.990  -7.497   3.254  0.00  0.00    -0.173 NA
ATOM      5  N   UNL     1      -0.228  -8.011   2.355  0.00  0.00    -0.272 N 
ATOM      6  H   UNL     1       0.503  -8.624   2.528  0.00  0.00    +0.189 HD
ATOM      7  C   UNL     1      -0.602  -7.564   1.119  0.00  0.00    +0.126 A 
ATOM      8  C   UNL     1      -0.323  -7.622  -0.320  0.00  0.00    +0.265 C 
ATOM      9  O   UNL     1       0.563  -8.282  -0.829  0.00  0.00    -0.268 OA
ATOM     10  N   UNL     1      -1.188  -6.843  -0.998  0.00  0.00    -0.285 N 
ENDROOT
BRANCH   3  11
ATOM     11  C   UNL     1      -2.938  -5.937   3.425  0.00  0.00    +0.044 A 
ATOM     12  C   UNL     1      -4.253  -5.952   2.968  0.00  0.00    +0.017 A 
ATOM     13  C   UNL     1      -5.224  -5.237   3.639  0.00  0.00    -0.050 A 
ATOM     14  C   UNL     1      -4.896  -4.505   4.766  0.00  0.00    +0.007 A 
ATOM     15  C   UNL     1      -3.594  -4.483   5.229  0.00  0.00    +0.046 A 
ATOM     16  C   UNL     1      -2.610  -5.201   4.568  0.00  0.00    +0.126 A 
ATOM     17  C   UNL     1      -6.647  -5.254   3.143  0.00  0.00    +0.044 C 
BRANCH  16  18
ATOM     18  O   UNL     1      -1.331  -5.186   5.025  0.00  0.00    -0.506 OA
ATOM     19  H   UNL     1      -0.811  -4.432   4.713  0.00  0.00    +0.292 HD
ENDBRANCH  16  18
ENDBRANCH   3  11
BRANCH   1  23
ATOM     20  C   UNL     1      -1.725  -1.961  -0.206  0.00  0.00    +0.162 A 
ATOM     21  C   UNL     1      -0.593  -2.755  -0.127  0.00  0.00    +0.050 A 
ATOM     22  C   UNL     1      -0.716  -4.131  -0.070  0.00  0.00    +0.009 A 
ATOM     23  C   UNL     1      -1.968  -4.717  -0.091  0.00  0.00    -0.019 A 
ATOM     24  C   UNL     1      -3.102  -3.930  -0.170  0.00  0.00    +0.055 A 
ATOM     25  C   UNL     1      -2.986  -2.551  -0.222  0.00  0.00    +0.162 A 
BRANCH  25  26
ATOM     26  O   UNL     1      -4.100  -1.775  -0.293  0.00  0.00    -0.491 OA
ATOM     27  C   UNL     1      -5.360  -2.449  -0.305  0.00  0.00    +0.277 C 
ENDBRANCH  25  26
BRANCH  20  28
ATOM     28  O   UNL     1      -1.605  -0.607  -0.262  0.00  0.00    -0.489 OA
BRANCH  28  30
ATOM     29  C   UNL     1      -0.347   1.455  -0.311  0.00  0.00    +0.048 C 
ATOM     30  C   UNL     1      -0.281  -0.072  -0.241  0.00  0.00    +0.226 C 
ENDBRANCH  28  30
ENDBRANCH  20  28
ENDBRANCH   1  23
BRANCH  10  31
ATOM     31  C   UNL     1      -1.216  -6.652  -2.450  0.00  0.00    +0.111 C 
BRANCH  31  32
ATOM     32  C   UNL     1      -0.321  -5.470  -2.827  0.00  0.00    +0.047 C 
BRANCH  32  33
ATOM     33  C   UNL     1      -0.351  -5.271  -4.343  0.00  0.00    +0.161 C 
BRANCH  33  34
ATOM     34  O   UNL     1       0.485  -4.167  -4.695  0.00  0.00    -0.377 OA
BRANCH  34  35
ATOM     35  C   UNL     1       0.527  -3.893  -6.097  0.00  0.00    +0.112 C 
ATOM     36  C   UNL     1       0.765  -2.398  -6.319  0.00  0.00    +0.037 C 
ATOM     37  C   UNL     1       1.665  -4.691  -6.737  0.00  0.00    +0.037 C 
ENDBRANCH  34  35
ENDBRANCH  33  34
ENDBRANCH  32  33
ENDBRANCH  31  32
ENDBRANCH  10  31
TORSDOF 11
