REMARK  Name = ZINC63328862
REMARK  13 active torsions:
REMARK  status: ('A' for Active; 'I' for Inactive)
REMARK    1  A    between atoms: C_1  and  C_2
REMARK    2  A    between atoms: C_2  and  C_3
REMARK    3  A    between atoms: C_2  and  C_4
REMARK    4  A    between atoms: C_4  and  C_6
REMARK    5  A    between atoms: C_4  and  N_22
REMARK    6  A    between atoms: N_8  and  C_9
REMARK    7  A    between atoms: C_9  and  C_10
REMARK    8  A    between atoms: C_10  and  C_11
REMARK    9  A    between atoms: C_14  and  O_20
REMARK   10  A    between atoms: O_20  and  C_21
REMARK   11  A    between atoms: C_23  and  C_25
REMARK   12  A    between atoms: C_25  and  C_26
REMARK   13  A    between atoms: C_25  and  C_32
REMARK                            x       y       z     vdW  Elec       q    Type
REMARK                         _______ _______ _______ _____ _____    ______ ____
ROOT
ATOM      1  C   UNL     1      -0.919  -0.239  -0.643  0.00  0.00    +0.161 C 
ENDROOT
BRANCH   1   2
ATOM      2  C   UNL     1      -0.727  -1.733  -0.595  0.00  0.00    +0.234 C 
ATOM      3  O   UNL     1      -1.328  -2.447  -1.370  0.00  0.00    -0.274 OA
ATOM      4  N   UNL     1       0.113  -2.276   0.308  0.00  0.00    -0.313 N 
ATOM      5  H   UNL     1       0.647  -1.702   0.880  0.00  0.00    +0.149 HD
BRANCH   4   6
ATOM      6  C   UNL     1       0.220  -3.732   0.427  0.00  0.00    +0.108 C 
BRANCH   6   7
ATOM      7  C   UNL     1       1.234  -4.082   1.518  0.00  0.00    +0.052 C 
BRANCH   7   8
ATOM      8  C   UNL     1       1.344  -5.580   1.640  0.00  0.00    -0.040 C 
ATOM      9  C   UNL     1       2.259  -6.379   1.045  0.00  0.00    +0.002 A 
ATOM     10  C   UNL     1       3.381  -6.106   0.141  0.00  0.00    +0.055 A 
ATOM     11  C   UNL     1       4.143  -7.133  -0.306  0.00  0.00    +0.121 A 
ATOM     12  C   UNL     1       3.898  -8.467   0.067  0.00  0.00    +0.047 A 
ATOM     13  C   UNL     1       2.889  -8.817   0.894  0.00  0.00    +0.029 A 
ATOM     14  C   UNL     1       2.002  -7.784   1.437  0.00  0.00    +0.043 A 
ATOM     15  N   UNL     1       0.971  -7.850   2.242  0.00  0.00    -0.380 N 
ATOM     16  C   UNL     1       0.458  -6.492   2.458  0.00  0.00    +0.144 C 
ATOM     17  H   UNL     1       0.609  -8.661   2.633  0.00  0.00    +0.160 HD
BRANCH  11  18
ATOM     18  O   UNL     1       5.179  -6.866  -1.144  0.00  0.00    -0.495 OA
ATOM     19  C   UNL     1       5.956  -7.979  -1.590  0.00  0.00    +0.277 C 
ENDBRANCH  11  18
ENDBRANCH   7   8
ENDBRANCH   6   7
ENDBRANCH   4   6
ENDBRANCH   1   2
BRANCH   1  20
ATOM     20  N   UNL     1      -2.233   0.066  -1.215  0.00  0.00    -0.303 N 
ATOM     21  C   UNL     1      -2.844   1.229  -0.917  0.00  0.00    +0.225 C 
ATOM     22  O   UNL     1      -2.307   2.024  -0.175  0.00  0.00    -0.275 OA
ATOM     23  H   UNL     1      -2.663  -0.570  -1.809  0.00  0.00    +0.149 HD
BRANCH  21  24
ATOM     24  C   UNL     1      -4.196   1.543  -1.506  0.00  0.00    +0.135 C 
BRANCH  24  25
ATOM     25  C   UNL     1      -4.654   2.893  -1.018  0.00  0.00    -0.031 A 
ATOM     26  C   UNL     1      -5.891   3.026  -0.415  0.00  0.00    +0.005 A 
ATOM     27  C   UNL     1      -6.312   4.265   0.033  0.00  0.00    +0.000 A 
ATOM     28  C   UNL     1      -5.496   5.370  -0.124  0.00  0.00    +0.000 A 
ATOM     29  C   UNL     1      -4.260   5.237  -0.726  0.00  0.00    +0.000 A 
ATOM     30  C   UNL     1      -3.837   3.998  -1.170  0.00  0.00    +0.005 A 
ENDBRANCH  24  25
BRANCH  24  31
ATOM     31  C   UNL     1      -4.097   1.559  -3.009  0.00  0.00    -0.031 A 
ATOM     32  C   UNL     1      -3.104   2.294  -3.629  0.00  0.00    +0.005 A 
ATOM     33  C   UNL     1      -3.014   2.308  -5.009  0.00  0.00    +0.000 A 
ATOM     34  C   UNL     1      -3.916   1.587  -5.768  0.00  0.00    +0.000 A 
ATOM     35  C   UNL     1      -4.909   0.851  -5.148  0.00  0.00    +0.000 A 
ATOM     36  C   UNL     1      -4.996   0.834  -3.768  0.00  0.00    +0.005 A 
ENDBRANCH  24  31
ENDBRANCH  21  24
ENDBRANCH   1  20
BRANCH   1  38
ATOM     37  C   UNL     1       0.030  -0.110  -2.951  0.00  0.00    +0.009 C 
ATOM     38  C   UNL     1       0.173   0.388  -1.511  0.00  0.00    +0.012 C 
ATOM     39  C   UNL     1       0.036   1.912  -1.482  0.00  0.00    +0.009 C 
ENDBRANCH   1  38
TORSDOF 10
