REMARK  Name = ZINC35966578
REMARK  11 active torsions:
REMARK  status: ('A' for Active; 'I' for Inactive)
REMARK    1  A    between atoms: C_1  and  C_2
REMARK    2  A    between atoms: C_2  and  N_3
REMARK    3  A    between atoms: C_9  and  C_11
REMARK    4  A    between atoms: C_11  and  C_13
REMARK    5  A    between atoms: C_11  and  N_16
REMARK    6  A    between atoms: C_13  and  C_14
REMARK    7  A    between atoms: C_13  and  C_15
REMARK    8  A    between atoms: C_22  and  C_30
REMARK    9  A    between atoms: N_27  and  C_28
REMARK   10  A    between atoms: C_28  and  C_29
REMARK   11  A    between atoms: C_35  and  C_36
REMARK                            x       y       z     vdW  Elec       q    Type
REMARK                         _______ _______ _______ _____ _____    ______ ____
ROOT
ATOM      1  N   UNL     1       4.856  -4.248  -3.456  0.00  0.00    -0.280 N 
ATOM      2  C   UNL     1       4.827  -5.457  -2.618  0.00  0.00    +0.160 C 
ATOM      3  C   UNL     1       5.914  -6.345  -3.180  0.00  0.00    +0.042 C 
ATOM      4  C   UNL     1       6.460  -5.670  -4.212  0.00  0.00    +0.058 C 
ATOM      5  C   UNL     1       5.822  -4.424  -4.375  0.00  0.00    +0.247 C 
ATOM      6  O   UNL     1       6.111  -3.610  -5.234  0.00  0.00    -0.270 OA
ATOM      7  C   UNL     1       7.591  -6.336  -4.969  0.00  0.00    +0.142 C 
ATOM      8  N   UNL     1       8.003  -7.674  -4.512  0.00  0.00    -0.288 N 
ATOM      9  C   UNL     1       7.359  -8.220  -3.462  0.00  0.00    +0.307 C 
ATOM     10  O   UNL     1       7.692  -9.324  -3.077  0.00  0.00    -0.252 OA
ATOM     11  N   UNL     1       6.364  -7.586  -2.829  0.00  0.00    -0.257 N 
ATOM     12  H   UNL     1       8.721  -8.151  -4.957  0.00  0.00    +0.151 HD
ENDROOT
BRANCH   7  13
ATOM     13  C   UNL     1       7.181  -6.446  -6.415  0.00  0.00    -0.011 A 
ATOM     14  C   UNL     1       6.197  -7.342  -6.789  0.00  0.00    +0.006 A 
ATOM     15  C   UNL     1       5.821  -7.443  -8.115  0.00  0.00    +0.000 A 
ATOM     16  C   UNL     1       6.429  -6.646  -9.068  0.00  0.00    +0.001 A 
ATOM     17  C   UNL     1       7.412  -5.749  -8.695  0.00  0.00    +0.013 A 
ATOM     18  C   UNL     1       7.785  -5.646  -7.367  0.00  0.00    +0.060 A 
BRANCH  18  19
ATOM     19  C   UNL     1       8.853  -4.664  -6.959  0.00  0.00    +0.418 C 
ATOM     20  F   UNL     1       9.274  -3.940  -8.080  0.00  0.00    -0.166 F 
ATOM     21  F   UNL     1       8.336  -3.783  -6.003  0.00  0.00    -0.166 F 
ATOM     22  F   UNL     1       9.940  -5.357  -6.416  0.00  0.00    -0.166 F 
ENDBRANCH  18  19
ENDBRANCH   7  13
BRANCH  11  23
ATOM     23  C   UNL     1       5.723  -8.260  -1.696  0.00  0.00    +0.111 C 
ATOM     24  C   UNL     1       4.545  -9.095  -2.200  0.00  0.00    +0.025 C 
ENDBRANCH  11  23
BRANCH   1  25
ATOM     25  C   UNL     1       3.989  -3.075  -3.319  0.00  0.00    +0.165 C 
BRANCH  25  32
ATOM     26  N   UNL     1       3.848   0.492   0.119  0.00  0.00    -0.300 NA
ATOM     27  C   UNL     1       5.235   0.401  -0.356  0.00  0.00    +0.103 C 
ATOM     28  C   UNL     1       5.241   0.256  -1.882  0.00  0.00    +0.123 C 
ATOM     29  N   UNL     1       4.383  -0.882  -2.246  0.00  0.00    -0.298 N 
ATOM     30  C   UNL     1       3.020  -0.930  -1.695  0.00  0.00    +0.123 C 
ATOM     31  C   UNL     1       3.102  -0.739  -0.177  0.00  0.00    +0.103 C 
ATOM     32  C   UNL     1       4.834  -1.854  -3.064  0.00  0.00    +0.236 C 
ATOM     33  O   UNL     1       5.919  -1.745  -3.595  0.00  0.00    -0.274 OA
BRANCH  26  35
ATOM     34  C   UNL     1       4.368   2.205   1.789  0.00  0.00    +0.020 C 
ATOM     35  C   UNL     1       3.802   0.803   1.553  0.00  0.00    +0.081 C 
ENDBRANCH  26  35
ENDBRANCH  25  32
BRANCH  25  36
ATOM     36  C   UNL     1       3.187  -2.881  -4.607  0.00  0.00    +0.012 C 
ATOM     37  C   UNL     1       2.392  -4.153  -4.910  0.00  0.00    +0.009 C 
ATOM     38  C   UNL     1       2.223  -1.705  -4.436  0.00  0.00    +0.009 C 
ENDBRANCH  25  36
ENDBRANCH   1  25
TORSDOF 7
