REMARK  Name = ZINC41583990
REMARK  10 active torsions:
REMARK  status: ('A' for Active; 'I' for Inactive)
REMARK    1  A    between atoms: C_1  and  C_2
REMARK    2  A    between atoms: C_5  and  C_34
REMARK    3  A    between atoms: N_8  and  C_10
REMARK    4  A    between atoms: C_10  and  C_11
REMARK    5  A    between atoms: C_12  and  O_33
REMARK    6  A    between atoms: C_19  and  O_22
REMARK    7  A    between atoms: O_22  and  C_23
REMARK    8  A    between atoms: C_26  and  C_29
REMARK    9  A    between atoms: C_29  and  O_31
REMARK   10  A    between atoms: O_31  and  C_32
REMARK                            x       y       z     vdW  Elec       q    Type
REMARK                         _______ _______ _______ _____ _____    ______ ____
ROOT
ATOM      1  C   UNL     1       3.008  -2.039   2.225  0.00  0.00    +0.020 A 
ATOM      2  C   UNL     1       3.942  -2.912   1.694  0.00  0.00    +0.122 A 
ATOM      3  C   UNL     1       5.296  -2.585   1.690  0.00  0.00    +0.046 A 
ATOM      4  C   UNL     1       5.721  -1.396   2.212  0.00  0.00    +0.019 A 
ATOM      5  C   UNL     1       4.793  -0.505   2.751  0.00  0.00    +0.068 A 
ATOM      6  C   UNL     1       3.423  -0.825   2.753  0.00  0.00    +0.143 A 
ATOM      7  O   UNL     1       2.534   0.046   3.273  0.00  0.00    -0.459 OA
ATOM      8  C   UNL     1       2.902   1.225   3.790  0.00  0.00    +0.245 A 
ATOM      9  C   UNL     1       4.186   1.634   3.833  0.00  0.00    +0.210 A 
ATOM     10  C   UNL     1       5.210   0.786   3.323  0.00  0.00    +0.235 A 
ATOM     11  O   UNL     1       6.382   1.122   3.346  0.00  0.00    -0.283 OA
ENDROOT
BRANCH   2  12
ATOM     12  O   UNL     1       3.535  -4.097   1.172  0.00  0.00    -0.506 OA
ATOM     13  H   UNL     1       3.322  -4.059   0.229  0.00  0.00    +0.292 HD
ENDBRANCH   2  12
BRANCH   1  14
ATOM     14  C   UNL     1       1.546  -2.403   2.224  0.00  0.00    -0.036 C 
BRANCH  14  20
ATOM     15  C   UNL     1       0.439   1.560  -0.428  0.00  0.00    +0.005 C 
ATOM     16  C   UNL     1       0.394   0.031  -0.390  0.00  0.00    -0.031 C 
ATOM     17  C   UNL     1      -1.056  -0.442  -0.522  0.00  0.00    +0.003 C 
ATOM     18  C   UNL     1      -1.098  -1.968  -0.404  0.00  0.00    -0.031 C 
ATOM     19  C   UNL     1      -0.469  -2.389   0.926  0.00  0.00    -0.075 C 
ATOM     20  N   UNL     1       0.924  -1.930   0.980  0.00  0.00    +0.383 N 
ATOM     21  C   UNL     1       0.968  -0.464   0.940  0.00  0.00    -0.075 C 
ATOM     22  C   UNL     1      -2.550  -2.445  -0.458  0.00  0.00    +0.005 C 
ATOM     23  H   UNL     1       1.430  -2.302   0.191  0.00  0.00    -0.081 HD
ENDBRANCH  14  20
ENDBRANCH   1  14
BRANCH   9  24
ATOM     24  O   UNL     1       4.502   2.844   4.370  0.00  0.00    -0.449 OA
BRANCH  24  25
ATOM     25  C   UNL     1       4.990   3.801   3.542  0.00  0.00    +0.129 A 
ATOM     26  C   UNL     1       5.040   3.572   2.171  0.00  0.00    +0.047 A 
ATOM     27  C   UNL     1       5.534   4.540   1.327  0.00  0.00    +0.018 A 
ATOM     28  C   UNL     1       5.986   5.755   1.849  0.00  0.00    +0.059 A 
ATOM     29  C   UNL     1       5.934   5.982   3.228  0.00  0.00    +0.018 A 
ATOM     30  C   UNL     1       5.433   5.011   4.065  0.00  0.00    +0.047 A 
BRANCH  28  31
ATOM     31  C   UNL     1       6.517   6.795   0.949  0.00  0.00    +0.339 C 
ATOM     32  O   UNL     1       6.561   6.597  -0.249  0.00  0.00    -0.245 OA
BRANCH  31  33
ATOM     33  O   UNL     1       6.952   7.966   1.454  0.00  0.00    -0.464 OA
ATOM     34  C   UNL     1       7.454   8.928   0.524  0.00  0.00    +0.280 C 
ENDBRANCH  31  33
ENDBRANCH  28  31
ENDBRANCH  24  25
ENDBRANCH   9  24
TORSDOF 7
