REMARK  Name = ZINC03458158
REMARK  5 active torsions:
REMARK  status: ('A' for Active; 'I' for Inactive)
REMARK    1  A    between atoms: C_1  and  C_2
REMARK    2  A    between atoms: C_2  and  C_4
REMARK    3  A    between atoms: C_2  and  N_12
REMARK    4  A    between atoms: C_13  and  C_15
REMARK    5  A    between atoms: C_15  and  N_16
REMARK                            x       y       z     vdW  Elec       q    Type
REMARK                         _______ _______ _______ _____ _____    ______ ____
ROOT
ATOM      1  C   UNL     1      -4.769   5.364  -1.754  0.00  0.00    +0.213 C 
ENDROOT
BRANCH   1   2
ATOM      2  N   UNL     1      -3.744   4.489  -1.180  0.00  0.00    -0.215 N 
ATOM      3  C   UNL     1      -2.450   4.835  -1.029  0.00  0.00    +0.247 C 
ATOM      4  O   UNL     1      -1.934   5.889  -1.331  0.00  0.00    -0.273 OA
ATOM      5  C   UNL     1      -1.776   3.631  -0.404  0.00  0.00    +0.113 C 
ATOM      6  C   UNL     1      -0.694   3.094  -1.300  0.00  0.00    +0.035 C 
ATOM      7  C   UNL     1      -0.688   1.554  -1.193  0.00  0.00    +0.003 C 
ATOM      8  C   UNL     1      -0.013   1.086   0.008  0.00  0.00    +0.000 C 
ATOM      9  C   UNL     1      -0.703   1.568   1.299  0.00  0.00    +0.000 C 
ATOM     10  C   UNL     1      -0.272   2.985   1.570  0.00  0.00    +0.003 C 
ATOM     11  C   UNL     1      -1.264   4.014   0.997  0.00  0.00    +0.035 C 
ATOM     12  N   UNL     1      -2.869   2.655  -0.260  0.00  0.00    -0.285 N 
ATOM     13  C   UNL     1      -3.978   3.246  -0.740  0.00  0.00    +0.310 C 
ATOM     14  O   UNL     1      -5.069   2.713  -0.771  0.00  0.00    -0.252 OA
ATOM     15  H   UNL     1      -2.803   1.760   0.109  0.00  0.00    +0.151 HD
ENDBRANCH   1   2
BRANCH   1  17
ATOM     16  N   UNL     1      -5.710   5.855  -3.989  0.00  0.00    -0.307 N 
ATOM     17  C   UNL     1      -4.833   5.152  -3.245  0.00  0.00    +0.231 C 
ATOM     18  O   UNL     1      -4.095   4.349  -3.775  0.00  0.00    -0.274 OA
ATOM     19  H   UNL     1      -6.300   6.498  -3.565  0.00  0.00    +0.149 HD
BRANCH  16  21
ATOM     20  C   UNL     1      -4.716   6.520  -6.123  0.00  0.00    +0.033 C 
ATOM     21  C   UNL     1      -5.771   5.649  -5.438  0.00  0.00    +0.102 C 
BRANCH  21  22
ATOM     22  C   UNL     1      -7.140   6.029  -5.941  0.00  0.00    -0.009 A 
ATOM     23  C   UNL     1      -7.909   6.936  -5.236  0.00  0.00    +0.008 A 
ATOM     24  C   UNL     1      -9.164   7.285  -5.697  0.00  0.00    +0.020 A 
ATOM     25  C   UNL     1      -9.653   6.726  -6.865  0.00  0.00    +0.042 A 
ATOM     26  C   UNL     1      -8.884   5.818  -7.571  0.00  0.00    +0.040 A 
ATOM     27  C   UNL     1      -7.625   5.474  -7.112  0.00  0.00    +0.047 A 
ATOM     28 CL   UNL     1      -6.657   4.340  -8.001  0.00  0.00    -0.083 Cl
ATOM     29 CL   UNL     1     -11.229   7.164  -7.444  0.00  0.00    -0.083 Cl
ENDBRANCH  21  22
ENDBRANCH  16  21
ENDBRANCH   1  17
TORSDOF 4
