REMARK  Name = ZINC20548965
REMARK  8 active torsions:
REMARK  status: ('A' for Active; 'I' for Inactive)
REMARK    1  A    between atoms: C_1  and  C_2
REMARK    2  A    between atoms: C_2  and  C_3
REMARK    3  A    between atoms: C_3  and  C_4
REMARK    4  A    between atoms: C_4  and  N_5
REMARK    5  A    between atoms: C_10  and  C_28
REMARK    6  A    between atoms: C_28  and  C_29
REMARK    7  A    between atoms: C_29  and  C_30
REMARK    8  A    between atoms: C_29  and  C_31
REMARK                            x       y       z     vdW  Elec       q    Type
REMARK                         _______ _______ _______ _____ _____    ______ ____
ROOT
ATOM      1  N   UNL     1       1.471  -2.526   2.420  0.00  0.00    -0.242 N 
ATOM      2  C   UNL     1       2.818  -2.755   2.456  0.00  0.00    +0.227 C 
ATOM      3  O   UNL     1       3.650  -2.353   1.671  0.00  0.00    -0.275 OA
ATOM      4  C   UNL     1       3.054  -3.608   3.672  0.00  0.00    +0.107 C 
ATOM      5  C   UNL     1       4.247  -3.298   4.585  0.00  0.00    +0.068 C 
ATOM      6  N   UNL     1       3.718  -3.638   5.947  0.00  0.00    -0.295 NA
ATOM      7  C   UNL     1       2.234  -3.455   5.907  0.00  0.00    +0.136 C 
ATOM      8  C   UNL     1       1.937  -2.931   4.564  0.00  0.00    +0.122 C 
ATOM      9  C   UNL     1       0.855  -2.794   3.616  0.00  0.00    +0.228 C 
ATOM     10  O   UNL     1      -0.334  -2.897   3.831  0.00  0.00    -0.275 OA
ATOM     11  C   UNL     1       1.559  -4.770   6.197  0.00  0.00    +0.005 A 
ATOM     12  C   UNL     1       1.541  -5.984   5.547  0.00  0.00    +0.008 A 
ATOM     13  C   UNL     1       0.808  -7.037   6.066  0.00  0.00    +0.002 A 
ATOM     14  C   UNL     1       0.095  -6.867   7.238  0.00  0.00    +0.022 A 
ATOM     15  C   UNL     1       0.110  -5.652   7.893  0.00  0.00    +0.062 A 
ATOM     16  C   UNL     1       0.847  -4.587   7.376  0.00  0.00    +0.057 A 
ATOM     17  N   UNL     1       1.018  -3.283   7.846  0.00  0.00    -0.282 N 
ATOM     18  C   UNL     1       1.817  -2.555   7.045  0.00  0.00    +0.243 C 
ATOM     19  O   UNL     1       2.139  -1.397   7.206  0.00  0.00    -0.273 OA
ATOM     20 CL   UNL     1      -0.790  -5.449   9.364  0.00  0.00    -0.082 Cl
ATOM     21  H   UNL     1       3.959  -4.584   6.203  0.00  0.00    +0.123 HD
ATOM     22  H   UNL     1       0.609  -2.942   8.657  0.00  0.00    +0.155 HD
ENDROOT
BRANCH   1  23
ATOM     23  C   UNL     1       0.763  -2.041   1.233  0.00  0.00    +0.116 C 
BRANCH  23  24
ATOM     24  C   UNL     1       0.742  -0.511   1.242  0.00  0.00    +0.019 C 
BRANCH  24  26
ATOM     25  C   UNL     1      -0.019   1.526   0.010  0.00  0.00    +0.004 C 
ATOM     26  C   UNL     1       0.002  -0.004   0.002  0.00  0.00    -0.002 C 
ENDBRANCH  24  26
ENDBRANCH  23  24
ENDBRANCH   1  23
BRANCH   5  27
ATOM     27  C   UNL     1       5.446  -4.180   4.228  0.00  0.00    +0.022 C 
BRANCH  27  28
ATOM     28  C   UNL     1       6.654  -3.762   5.069  0.00  0.00    -0.016 C 
ATOM     29  C   UNL     1       7.816  -4.722   4.804  0.00  0.00    +0.007 C 
ATOM     30  C   UNL     1       7.071  -2.339   4.691  0.00  0.00    +0.007 C 
ENDBRANCH  27  28
ENDBRANCH   5  27
TORSDOF 5
