REMARK  Name = ZINC39395798
REMARK  8 active torsions:
REMARK  status: ('A' for Active; 'I' for Inactive)
REMARK    1  A    between atoms: C_4  and  C_7
REMARK    2  A    between atoms: C_7  and  S_8
REMARK    3  A    between atoms: S_8  and  C_9
REMARK    4  A    between atoms: C_9  and  C_10
REMARK    5  A    between atoms: N_12  and  C_13
REMARK    6  A    between atoms: C_17  and  C_19
REMARK    7  A    between atoms: C_25  and  C_29
REMARK    8  A    between atoms: C_29  and  C_31
REMARK                            x       y       z     vdW  Elec       q    Type
REMARK                         _______ _______ _______ _____ _____    ______ ____
ROOT
ATOM      1  C   UNL     1       8.506  -3.033   3.924  0.00  0.00    +0.034 A 
ATOM      2  C   UNL     1       7.623  -2.806   4.972  0.00  0.00    +0.023 A 
ATOM      3  C   UNL     1       7.993  -3.120   6.265  0.00  0.00    +0.002 A 
ATOM      4  C   UNL     1       9.241  -3.659   6.517  0.00  0.00    +0.007 A 
ATOM      5  C   UNL     1      10.123  -3.886   5.476  0.00  0.00    -0.004 A 
ATOM      6  C   UNL     1       9.756  -3.580   4.180  0.00  0.00    +0.030 A 
ENDROOT
BRANCH   5   7
ATOM      7  C   UNL     1      11.482  -4.473   5.756  0.00  0.00    +0.206 C 
ATOM      8  N   UNL     1      11.914  -5.304   4.625  0.00  0.00    -0.360 N 
ATOM      9  C   UNL     1      12.079  -6.517   5.072  0.00  0.00    +0.060 A 
ATOM     10  C   UNL     1      12.496  -7.763   4.414  0.00  0.00    +0.028 A 
ATOM     11  C   UNL     1      12.586  -8.901   5.125  0.00  0.00    +0.014 A 
ATOM     12  C   UNL     1      12.279  -8.947   6.552  0.00  0.00    +0.024 A 
ATOM     13  C   UNL     1      11.886  -7.835   7.234  0.00  0.00    +0.039 A 
ATOM     14  C   UNL     1      11.764  -6.553   6.525  0.00  0.00    +0.061 A 
ATOM     15  N   UNL     1      11.417  -5.361   6.922  0.00  0.00    -0.360 N 
ATOM     16  H   UNL     1      11.162  -5.107   7.823  0.00  0.00    +0.162 HD
ATOM     17  H   UNL     1      12.051  -5.005   3.713  0.00  0.00    +0.162 HD
BRANCH  12  18
ATOM     18  C   UNL     1      12.398 -10.231   7.274  0.00  0.00    +0.193 C 
ATOM     19  O   UNL     1      11.732 -10.431   8.271  0.00  0.00    -0.287 OA
BRANCH  18  20
ATOM     20  C   UNL     1      13.325 -11.271   6.784  0.00  0.00    +0.022 A 
ATOM     21  C   UNL     1      14.369 -10.930   5.920  0.00  0.00    +0.012 A 
ATOM     22  C   UNL     1      15.231 -11.906   5.467  0.00  0.00    +0.001 A 
ATOM     23  C   UNL     1      15.064 -13.221   5.865  0.00  0.00    +0.000 A 
ATOM     24  C   UNL     1      14.032 -13.566   6.720  0.00  0.00    +0.001 A 
ATOM     25  C   UNL     1      13.166 -12.599   7.186  0.00  0.00    +0.012 A 
ENDBRANCH  18  20
ENDBRANCH  12  18
ENDBRANCH   5   7
BRANCH   1  28
ATOM     26  C   UNL     1       7.365  -1.635   2.373  0.00  0.00    +0.227 C 
ATOM     27  O   UNL     1       6.926  -0.986   3.299  0.00  0.00    -0.275 OA
ATOM     28  N   UNL     1       8.134  -2.716   2.613  0.00  0.00    -0.285 N 
ATOM     29  H   UNL     1       8.430  -3.273   1.877  0.00  0.00    +0.155 HD
BRANCH  26  30
ATOM     30  C   UNL     1       7.052  -1.233   0.955  0.00  0.00    +0.165 C 
BRANCH  30  31
ATOM     31  S   UNL     1       6.005   0.249   0.964  0.00  0.00    -0.147 S 
BRANCH  31  32
ATOM     32  C   UNL     1       5.722   0.597  -0.793  0.00  0.00    +0.104 C 
BRANCH  32  36
ATOM     33  C   UNL     1       3.262   4.067  -1.182  0.00  0.00    +0.000 A 
ATOM     34  C   UNL     1       4.638   4.197  -1.139  0.00  0.00    +0.000 A 
ATOM     35  C   UNL     1       5.434   3.074  -1.013  0.00  0.00    +0.004 A 
ATOM     36  C   UNL     1       4.854   1.821  -0.930  0.00  0.00    -0.038 A 
ATOM     37  C   UNL     1       3.479   1.692  -0.972  0.00  0.00    +0.004 A 
ATOM     38  C   UNL     1       2.683   2.815  -1.100  0.00  0.00    +0.000 A 
ENDBRANCH  32  36
ENDBRANCH  31  32
ENDBRANCH  30  31
ENDBRANCH  26  30
ENDBRANCH   1  28
TORSDOF 8
