REMARK  Name = ZINC21239859
REMARK  6 active torsions:
REMARK  status: ('A' for Active; 'I' for Inactive)
REMARK    1  A    between atoms: C_1  and  C_2
REMARK    2  A    between atoms: C_2  and  C_3
REMARK    3  A    between atoms: C_2  and  C_4
REMARK    4  A    between atoms: C_2  and  C_5
REMARK    5  A    between atoms: C_8  and  C_11
REMARK    6  A    between atoms: C_16  and  C_26
REMARK                            x       y       z     vdW  Elec       q    Type
REMARK                         _______ _______ _______ _____ _____    ______ ____
ROOT
ATOM      1  C   UNL     1      -2.363   1.310   3.605  0.00  0.00    +0.032 C 
ATOM      2  C   UNL     1      -1.658   2.613   3.229  0.00  0.00    +0.059 C 
ATOM      3  C   UNL     1      -0.655   2.355   2.116  0.00  0.00    +0.017 C 
ATOM      4  C   UNL     1      -0.899   1.419   1.185  0.00  0.00    +0.036 C 
ATOM      5  C   UNL     1      -0.013   1.086   0.008  0.00  0.00    +0.136 C 
ATOM      6  N   UNL     1       1.307   1.679   0.066  0.00  0.00    -0.331 N 
ATOM      7  C   UNL     1       1.478   3.061   0.020  0.00  0.00    +0.049 A 
ATOM      8  C   UNL     1       2.125   3.675  -1.041  0.00  0.00    +0.025 A 
ATOM      9  C   UNL     1       2.232   5.055  -1.065  0.00  0.00    +0.002 A 
ATOM     10  C   UNL     1       1.696   5.817  -0.043  0.00  0.00    +0.002 A 
ATOM     11  C   UNL     1       1.063   5.205   1.026  0.00  0.00    +0.025 A 
ATOM     12  C   UNL     1       0.974   3.825   1.062  0.00  0.00    +0.052 A 
ATOM     13  N   UNL     1       0.449   3.144   2.155  0.00  0.00    -0.316 N 
ATOM     14  C   UNL     1      -2.075   0.634   1.254  0.00  0.00    +0.163 C 
ATOM     15  O   UNL     1      -2.276  -0.197   0.390  0.00  0.00    -0.292 OA
ATOM     16  C   UNL     1      -3.082   0.790   2.354  0.00  0.00    +0.088 C 
ATOM     17  H   UNL     1       2.195   1.036   0.149  0.00  0.00    +0.147 HD
ATOM     18  H   UNL     1       0.995   3.279   3.100  0.00  0.00    +0.152 HD
ENDROOT
BRANCH   5  19
ATOM     19  C   UNL     1      -0.695   1.560  -1.250  0.00  0.00    -0.020 A 
ATOM     20  C   UNL     1      -0.898   2.912  -1.458  0.00  0.00    +0.006 A 
ATOM     21  C   UNL     1      -1.519   3.348  -2.613  0.00  0.00    +0.003 A 
ATOM     22  C   UNL     1      -1.947   2.433  -3.556  0.00  0.00    +0.038 A 
ATOM     23  C   UNL     1      -1.748   1.079  -3.346  0.00  0.00    +0.124 A 
ATOM     24  C   UNL     1      -1.121   0.643  -2.191  0.00  0.00    +0.044 A 
ATOM     25  F   UNL     1      -2.167   0.184  -4.268  0.00  0.00    -0.205 F 
ENDBRANCH   5  19
BRANCH   1  29
ATOM     26  C   UNL     1      -5.205   2.046   6.707  0.00  0.00    -0.042 A 
ATOM     27  C   UNL     1      -4.167   1.159   6.918  0.00  0.00    +0.004 A 
ATOM     28  C   UNL     1      -3.247   0.921   5.914  0.00  0.00    +0.004 A 
ATOM     29  C   UNL     1      -3.366   1.570   4.699  0.00  0.00    -0.043 A 
ATOM     30  C   UNL     1      -4.402   2.461   4.491  0.00  0.00    +0.004 A 
ATOM     31  C   UNL     1      -5.324   2.696   5.493  0.00  0.00    +0.004 A 
BRANCH  26  33
ATOM     32  C   UNL     1      -5.490   2.862   9.032  0.00  0.00    +0.015 C 
ATOM     33  C   UNL     1      -6.209   2.305   7.802  0.00  0.00    -0.013 C 
ATOM     34  C   UNL     1      -7.246   3.319   7.314  0.00  0.00    +0.015 C 
ATOM     35  C   UNL     1      -6.910   0.996   8.170  0.00  0.00    +0.015 C 
ENDBRANCH  26  33
ENDBRANCH   1  29
TORSDOF 3
