REMARK  Name = ZINC38932958
REMARK  9 active torsions:
REMARK  status: ('A' for Active; 'I' for Inactive)
REMARK    1  A    between atoms: C_1  and  C_2
REMARK    2  A    between atoms: C_7  and  N_8
REMARK    3  A    between atoms: N_8  and  C_9
REMARK    4  A    between atoms: C_9  and  C_10
REMARK    5  A    between atoms: C_22  and  C_24
REMARK    6  A    between atoms: C_27  and  C_30
REMARK    7  A    between atoms: C_30  and  C_31
REMARK    8  A    between atoms: C_30  and  C_32
REMARK    9  A    between atoms: C_30  and  C_33
REMARK                            x       y       z     vdW  Elec       q    Type
REMARK                         _______ _______ _______ _____ _____    ______ ____
ROOT
ATOM      1  N   UNL     1      -0.336   0.219   2.723  0.00  0.00    -0.266 N 
ATOM      2  C   UNL     1      -1.367   0.422   3.567  0.00  0.00    +0.251 C 
ATOM      3  O   UNL     1      -1.159   0.815   4.698  0.00  0.00    -0.270 OA
ENDROOT
BRANCH   1  10
ATOM      4  C   UNL     1       0.760  -2.330   2.095  0.00  0.00    +0.045 C 
ATOM      5  C   UNL     1      -0.052  -1.544   1.098  0.00  0.00    -0.029 A 
ATOM      6  C   UNL     1      -0.289  -2.060  -0.161  0.00  0.00    +0.005 A 
ATOM      7  C   UNL     1      -1.034  -1.340  -1.076  0.00  0.00    +0.000 A 
ATOM      8  C   UNL     1      -1.545  -0.101  -0.734  0.00  0.00    +0.002 A 
ATOM      9  C   UNL     1      -1.312   0.420   0.523  0.00  0.00    +0.024 A 
ATOM     10  C   UNL     1      -0.569  -0.303   1.447  0.00  0.00    +0.039 A 
ENDBRANCH   1  10
BRANCH   2  11
ATOM     11  C   UNL     1      -2.752   0.167   3.116  0.00  0.00    +0.037 A 
ATOM     12  C   UNL     1      -3.042  -0.961   2.346  0.00  0.00    +0.013 A 
ATOM     13  C   UNL     1      -4.337  -1.193   1.929  0.00  0.00    +0.005 A 
ATOM     14  C   UNL     1      -5.346  -0.311   2.272  0.00  0.00    -0.042 A 
ATOM     15  C   UNL     1      -5.065   0.809   3.035  0.00  0.00    +0.005 A 
ATOM     16  C   UNL     1      -3.776   1.050   3.463  0.00  0.00    +0.013 A 
BRANCH  14  17
ATOM     17  C   UNL     1      -6.758  -0.571   1.813  0.00  0.00    -0.013 C 
ATOM     18  C   UNL     1      -7.234  -1.915   2.367  0.00  0.00    +0.015 C 
ATOM     19  C   UNL     1      -7.673   0.544   2.323  0.00  0.00    +0.015 C 
ATOM     20  C   UNL     1      -6.798  -0.606   0.284  0.00  0.00    +0.015 C 
ENDBRANCH  14  17
ENDBRANCH   2  11
BRANCH   1  21
ATOM     21  C   UNL     1       1.029   0.546   3.143  0.00  0.00    +0.131 C 
BRANCH  21  22
ATOM     22  C   UNL     1       1.266   2.049   2.983  0.00  0.00    +0.116 C 
ATOM     23  C   UNL     1       2.476   2.421   3.817  0.00  0.00    -0.003 C 
ATOM     24  C   UNL     1       3.525   3.004   3.171  0.00  0.00    -0.007 A 
ATOM     25  C   UNL     1       4.732   3.395   3.900  0.00  0.00    +0.009 A 
ATOM     26  C   UNL     1       5.752   3.973   3.214  0.00  0.00    +0.001 A 
ATOM     27  C   UNL     1       5.669   4.199   1.840  0.00  0.00    +0.002 A 
ATOM     28  C   UNL     1       4.576   3.860   1.107  0.00  0.00    +0.024 A 
ATOM     29  C   UNL     1       3.464   3.254   1.720  0.00  0.00    +0.040 A 
ATOM     30  N   UNL     1       2.398   2.925   0.991  0.00  0.00    -0.284 N 
ATOM     31  C   UNL     1       1.321   2.355   1.503  0.00  0.00    +0.226 C 
ATOM     32  O   UNL     1       0.379   2.078   0.786  0.00  0.00    -0.275 OA
ATOM     33  H   UNL     1       2.414   3.113   0.039  0.00  0.00    +0.155 HD
ENDBRANCH  21  22
ENDBRANCH   1  21
TORSDOF 5
