REMARK  Name = ZINC40547924
REMARK  11 active torsions:
REMARK  status: ('A' for Active; 'I' for Inactive)
REMARK    1  A    between atoms: C_1  and  C_2
REMARK    2  A    between atoms: C_2  and  C_3
REMARK    3  A    between atoms: C_3  and  C_4
REMARK    4  A    between atoms: C_4  and  C_5
REMARK    5  A    between atoms: C_5  and  O_6
REMARK    6  A    between atoms: O_6  and  C_7
REMARK    7  A    between atoms: C_10  and  C_13
REMARK    8  A    between atoms: C_16  and  C_32
REMARK    9  A    between atoms: N_23  and  C_24
REMARK   10  A    between atoms: C_34  and  C_39
REMARK   11  A    between atoms: C_37  and  O_38
REMARK                            x       y       z     vdW  Elec       q    Type
REMARK                         _______ _______ _______ _____ _____    ______ ____
ROOT
ATOM      1  C   UNL     1       4.176  -6.504   6.930  0.00  0.00    +0.142 C 
ATOM      2  C   UNL     1       5.446  -7.099   6.386  0.00  0.00    +0.035 A 
ATOM      3  C   UNL     1       6.685  -6.877   5.774  0.00  0.00    +0.102 A 
ATOM      4  N   UNL     1       7.264  -8.052   5.619  0.00  0.00    -0.173 NA
ATOM      5  N   UNL     1       6.514  -8.992   6.072  0.00  0.00    -0.272 N 
ATOM      6  H   UNL     1       6.737  -9.936   6.063  0.00  0.00    +0.189 HD
ATOM      7  C   UNL     1       5.356  -8.465   6.569  0.00  0.00    +0.126 A 
ATOM      8  C   UNL     1       4.071  -8.766   7.211  0.00  0.00    +0.266 C 
ATOM      9  O   UNL     1       3.687  -9.882   7.507  0.00  0.00    -0.268 OA
ATOM     10  N   UNL     1       3.377  -7.632   7.426  0.00  0.00    -0.280 N 
ENDROOT
BRANCH  10  11
ATOM     11  C   UNL     1       2.054  -7.539   8.047  0.00  0.00    +0.100 C 
ATOM     12  C   UNL     1       1.044  -8.353   7.221  0.00  0.00    +0.047 C 
ATOM     13  C   UNL     1      -0.260  -8.498   8.057  0.00  0.00    +0.168 C 
ATOM     14  S   UNL     1       0.445  -8.806   9.731  0.00  0.00    -0.029 S 
ATOM     15  O   UNL     1       0.562 -10.207   9.933  0.00  0.00    -0.174 OA
ATOM     16  O   UNL     1      -0.261  -8.019  10.681  0.00  0.00    -0.174 OA
ATOM     17  C   UNL     1       2.123  -8.095   9.490  0.00  0.00    +0.188 C 
ENDBRANCH  10  11
BRANCH   3  18
ATOM     18  C   UNL     1       7.244  -5.562   5.374  0.00  0.00    +0.044 A 
ATOM     19  C   UNL     1       7.200  -4.486   6.256  0.00  0.00    +0.017 A 
ATOM     20  C   UNL     1       7.722  -3.264   5.879  0.00  0.00    -0.050 A 
ATOM     21  C   UNL     1       8.288  -3.106   4.626  0.00  0.00    +0.007 A 
ATOM     22  C   UNL     1       8.336  -4.168   3.743  0.00  0.00    +0.046 A 
ATOM     23  C   UNL     1       7.822  -5.400   4.111  0.00  0.00    +0.126 A 
ATOM     24  C   UNL     1       7.674  -2.100   6.834  0.00  0.00    +0.044 C 
BRANCH  23  25
ATOM     25  O   UNL     1       7.874  -6.447   3.247  0.00  0.00    -0.506 OA
ATOM     26  H   UNL     1       7.141  -6.473   2.616  0.00  0.00    +0.292 HD
ENDBRANCH  23  25
ENDBRANCH   3  18
BRANCH   1  30
ATOM     27  C   UNL     1       2.065  -4.458   3.828  0.00  0.00    +0.121 A 
ATOM     28  C   UNL     1       2.684  -3.738   4.839  0.00  0.00    +0.046 A 
ATOM     29  C   UNL     1       3.365  -4.402   5.841  0.00  0.00    +0.009 A 
ATOM     30  C   UNL     1       3.432  -5.783   5.836  0.00  0.00    -0.022 A 
ATOM     31  C   UNL     1       2.816  -6.503   4.829  0.00  0.00    +0.009 A 
ATOM     32  C   UNL     1       2.128  -5.844   3.828  0.00  0.00    +0.046 A 
BRANCH  27  33
ATOM     33  O   UNL     1       1.394  -3.808   2.842  0.00  0.00    -0.492 OA
BRANCH  33  34
ATOM     34  C   UNL     1       1.370  -2.380   2.905  0.00  0.00    +0.229 C 
BRANCH  34  35
ATOM     35  C   UNL     1       0.574  -1.830   1.720  0.00  0.00    +0.041 C 
BRANCH  35  36
ATOM     36  C   UNL     1       0.549  -0.302   1.788  0.00  0.00    +0.003 C 
BRANCH  36  38
ATOM     37  C   UNL     1      -0.272   1.777   0.671  0.00  0.00    +0.004 C 
ATOM     38  C   UNL     1      -0.247   0.249   0.603  0.00  0.00    -0.003 C 
ENDBRANCH  36  38
ENDBRANCH  35  36
ENDBRANCH  34  35
ENDBRANCH  33  34
ENDBRANCH  27  33
ENDBRANCH   1  30
TORSDOF 9
