REMARK  Name = ZINC39674479
REMARK  9 active torsions:
REMARK  status: ('A' for Active; 'I' for Inactive)
REMARK    1  A    between atoms: C_1  and  C_2
REMARK    2  A    between atoms: C_4  and  C_9
REMARK    3  A    between atoms: C_5  and  C_8
REMARK    4  A    between atoms: C_9  and  C_11
REMARK    5  A    between atoms: C_9  and  N_12
REMARK    6  A    between atoms: C_13  and  C_15
REMARK    7  A    between atoms: C_26  and  C_28
REMARK    8  A    between atoms: C_31  and  C_39
REMARK    9  A    between atoms: C_33  and  C_35
REMARK                            x       y       z     vdW  Elec       q    Type
REMARK                         _______ _______ _______ _____ _____    ______ ____
ROOT
ATOM      1  C   UNL     1      -3.915  -0.336  -6.109  0.00  0.00    +0.100 C 
ATOM      2  C   UNL     1      -4.258  -1.744  -5.572  0.00  0.00    +0.121 C 
ATOM      3  N   UNL     1      -4.771  -2.479  -6.752  0.00  0.00    -0.300 N 
ATOM      4  C   UNL     1      -3.900  -2.039  -7.868  0.00  0.00    +0.115 C 
ATOM      5  C   UNL     1      -3.680  -0.534  -7.616  0.00  0.00    -0.004 C 
ATOM      6  C   UNL     1      -4.684   0.288  -8.420  0.00  0.00    -0.010 C 
ATOM      7  C   UNL     1      -4.394   0.119  -9.914  0.00  0.00    -0.082 C 
ATOM      8  N   UNL     1      -3.025   0.563 -10.202  0.00  0.00    +0.379 N 
ATOM      9  C   UNL     1      -2.062  -0.292  -9.497  0.00  0.00    -0.082 C 
ATOM     10  C   UNL     1      -2.253  -0.140  -7.985  0.00  0.00    -0.010 C 
ATOM     11  C   UNL     1      -5.797  -3.352  -6.800  0.00  0.00    +0.226 C 
ATOM     12  O   UNL     1      -6.097  -3.878  -7.851  0.00  0.00    -0.275 OA
ATOM     13  H   UNL     1      -2.857   0.508 -11.195  0.00  0.00    -0.086 HD
ATOM     14  H   UNL     1      -2.911   1.518  -9.896  0.00  0.00    -0.086 HD
ENDROOT
BRANCH  11  15
ATOM     15  C   UNL     1      -6.570  -3.675  -5.547  0.00  0.00    +0.150 C 
ATOM     16  C   UNL     1      -6.948  -5.146  -5.505  0.00  0.00    +0.030 C 
ATOM     17  C   UNL     1      -8.220  -5.234  -5.829  0.00  0.00    +0.092 C 
ATOM     18  O   UNL     1      -8.793  -4.040  -6.103  0.00  0.00    -0.484 OA
ATOM     19  C   UNL     1      -7.960  -2.994  -5.563  0.00  0.00    +0.292 C 
ATOM     20  C   UNL     1      -8.968  -6.541  -5.888  0.00  0.00    +0.085 C 
BRANCH  19  21
ATOM     21  C   UNL     1      -7.959  -1.767  -6.478  0.00  0.00    +0.427 C 
ATOM     22  F   UNL     1      -7.708  -2.167  -7.794  0.00  0.00    -0.167 F 
ATOM     23  F   UNL     1      -9.205  -1.135  -6.412  0.00  0.00    -0.167 F 
ATOM     24  F   UNL     1      -6.962  -0.877  -6.063  0.00  0.00    -0.167 F 
ENDBRANCH  19  21
ENDBRANCH  11  15
BRANCH   1  26
ATOM     25  N   UNL     1      -2.485   1.516  -5.308  0.00  0.00    -0.309 N 
ATOM     26  C   UNL     1      -2.667   0.188  -5.448  0.00  0.00    +0.219 C 
ATOM     27  O   UNL     1      -1.825  -0.585  -5.041  0.00  0.00    -0.275 OA
ATOM     28  H   UNL     1      -3.158   2.135  -5.632  0.00  0.00    +0.149 HD
BRANCH  25  29
ATOM     29  C   UNL     1      -1.271   2.026  -4.665  0.00  0.00    +0.100 C 
ATOM     30  C   UNL     1      -0.150   2.130  -5.701  0.00  0.00    +0.033 C 
BRANCH  29  33
ATOM     31  C   UNL     1      -1.179   5.058  -5.918  0.00  0.00    +0.039 C 
ATOM     32  C   UNL     1      -2.107   4.611  -4.786  0.00  0.00    +0.154 C 
ATOM     33  C   UNL     1      -1.545   3.388  -4.082  0.00  0.00    -0.001 C 
ATOM     34  C   UNL     1      -1.350   3.801  -2.828  0.00  0.00    +0.063 C 
ATOM     35  N   UNL     1      -1.716   5.094  -2.685  0.00  0.00    -0.159 NA
ATOM     36  N   UNL     1      -2.149   5.623  -3.717  0.00  0.00    -0.180 NA
ATOM     37  C   UNL     1      -0.797   2.941  -1.720  0.00  0.00    +0.067 C 
ENDBRANCH  29  33
ENDBRANCH  25  29
ENDBRANCH   1  26
TORSDOF 5
