REMARK  Name = ZINC11963649
REMARK  7 active torsions:
REMARK  status: ('A' for Active; 'I' for Inactive)
REMARK    1  A    between atoms: C_6  and  C_7
REMARK    2  A    between atoms: C_7  and  O_21
REMARK    3  A    between atoms: C_12  and  C_13
REMARK    4  A    between atoms: C_12  and  N_62
REMARK    5  A    between atoms: C_18  and  O_19
REMARK    6  A    between atoms: C_23  and  C_25
REMARK    7  A    between atoms: N_27  and  C_28
REMARK                            x       y       z     vdW  Elec       q    Type
REMARK                         _______ _______ _______ _____ _____    ______ ____
ROOT
ATOM      1  C   UNL     1      -2.194   1.077  -1.207  0.00  0.00    +0.088 C 
ATOM      2  C   UNL     1      -0.752   1.593  -1.232  0.00  0.00    +0.021 C 
ATOM      3  C   UNL     1      -0.013   1.086   0.008  0.00  0.00    -0.075 C 
ATOM      4  C   UNL     1      -2.071   1.038   1.287  0.00  0.00    -0.075 C 
ATOM      5  C   UNL     1      -2.872   1.544   0.085  0.00  0.00    +0.021 C 
ATOM      6  N   UNL     1      -0.701   1.589   1.216  0.00  0.00    +0.383 N 
ATOM      7  H   UNL     1      -0.755   2.613   1.165  0.00  0.00    -0.081 HD
ENDROOT
BRANCH   1  13
ATOM      8  C   UNL     1      -2.596   2.857  -2.923  0.00  0.00    +0.010 A 
ATOM      9  C   UNL     1      -3.269   3.374  -4.009  0.00  0.00    +0.047 A 
ATOM     10  C   UNL     1      -4.309   2.655  -4.585  0.00  0.00    +0.136 A 
ATOM     11  C   UNL     1      -4.659   1.403  -4.045  0.00  0.00    +0.021 A 
ATOM     12  C   UNL     1      -3.961   0.894  -2.947  0.00  0.00    +0.018 A 
ATOM     13  C   UNL     1      -2.945   1.622  -2.394  0.00  0.00    -0.015 A 
ATOM     14  C   UNL     1      -5.769   0.914  -4.862  0.00  0.00    +0.063 A 
ATOM     15  C   UNL     1      -5.997   1.872  -5.798  0.00  0.00    +0.190 A 
ATOM     16  O   UNL     1      -5.131   2.893  -5.625  0.00  0.00    -0.450 OA
BRANCH  15  17
ATOM     17  C   UNL     1      -7.030   1.806  -6.841  0.00  0.00    +0.280 C 
ATOM     18  O   UNL     1      -7.763   0.838  -6.911  0.00  0.00    -0.267 OA
ATOM     19  N   UNL     1      -7.166   2.820  -7.719  0.00  0.00    -0.306 N 
ATOM     20  H   UNL     1      -6.582   3.592  -7.663  0.00  0.00    +0.149 HD
BRANCH  19  21
ATOM     21  C   UNL     1      -8.196   2.754  -8.759  0.00  0.00    +0.073 C 
ATOM     22  C   UNL     1      -7.643   2.035 -10.007  0.00  0.00    +0.022 C 
ATOM     23  C   UNL     1      -8.275   2.798 -11.197  0.00  0.00    +0.002 C 
ATOM     24  C   UNL     1      -8.254   4.269 -10.710  0.00  0.00    +0.002 C 
ATOM     25  C   UNL     1      -8.585   4.174  -9.206  0.00  0.00    +0.022 C 
ENDBRANCH  19  21
ENDBRANCH  15  17
ENDBRANCH   1  13
BRANCH   1  26
ATOM     26  O   UNL     1      -2.192  -0.351  -1.257  0.00  0.00    -0.384 OA
ATOM     27  H   UNL     1      -3.074  -0.746  -1.244  0.00  0.00    +0.211 HD
ENDBRANCH   1  26
BRANCH   6  28
ATOM     28  C   UNL     1       0.059   1.209   2.425  0.00  0.00    -0.039 C 
BRANCH  28  29
ATOM     29  C   UNL     1      -0.538   1.914   3.615  0.00  0.00    -0.021 A 
ATOM     30  C   UNL     1       0.047   3.067   4.100  0.00  0.00    +0.025 A 
ATOM     31  C   UNL     1      -0.500   3.715   5.193  0.00  0.00    +0.041 A 
ATOM     32  C   UNL     1      -1.635   3.210   5.802  0.00  0.00    +0.023 A 
ATOM     33  C   UNL     1      -2.224   2.057   5.320  0.00  0.00    +0.047 A 
ATOM     34  C   UNL     1      -1.679   1.409   4.221  0.00  0.00    +0.118 A 
ATOM     35 CL   UNL     1       0.237   5.165   5.801  0.00  0.00    -0.084 Cl
BRANCH  34  36
ATOM     36  O   UNL     1      -2.260   0.277   3.741  0.00  0.00    -0.507 OA
ATOM     37  H   UNL     1      -1.926  -0.536   4.142  0.00  0.00    +0.292 HD
ENDBRANCH  34  36
ENDBRANCH  28  29
ENDBRANCH   6  28
TORSDOF 7
