REMARK  Name = ZINC09216754
REMARK  7 active torsions:
REMARK  status: ('A' for Active; 'I' for Inactive)
REMARK    1  A    between atoms: C_1  and  C_2
REMARK    2  A    between atoms: C_2  and  C_23
REMARK    3  A    between atoms: N_3  and  N_4
REMARK    4  A    between atoms: C_5  and  C_7
REMARK    5  A    between atoms: C_7  and  N_52
REMARK    6  A    between atoms: N_10  and  S_13
REMARK    7  A    between atoms: S_13  and  C_16
REMARK                            x       y       z     vdW  Elec       q    Type
REMARK                         _______ _______ _______ _____ _____    ______ ____
ROOT
ATOM      1  C   UNL     1      -0.678  -0.323  -2.721  0.00  0.00    -0.061 C 
ATOM      2  C   UNL     1       0.115  -1.176  -1.725  0.00  0.00    +0.091 C 
ATOM      3  N   UNL     1      -0.247  -0.765  -0.360  0.00  0.00    -0.180 NA
ATOM      4  C   UNL     1      -0.191   0.668  -0.028  0.00  0.00    +0.091 C 
ATOM      5  C   UNL     1      -0.972   1.448  -1.091  0.00  0.00    -0.061 C 
ATOM      6  N   UNL     1      -0.432   1.105  -2.425  0.00  0.00    +0.387 N 
ATOM      7  H   UNL     1       0.581   1.276  -2.428  0.00  0.00    -0.081 HD
ENDROOT
BRANCH   3   8
ATOM      8  S   UNL     1      -0.709  -1.883   0.770  0.00  0.00    +0.061 S 
ATOM      9  O   UNL     1      -1.496  -1.189   1.729  0.00  0.00    -0.153 OA
ATOM     10  O   UNL     1      -1.199  -3.007   0.053  0.00  0.00    -0.153 OA
BRANCH   8  11
ATOM     11  C   UNL     1       0.749  -2.414   1.605  0.00  0.00    +0.106 A 
ATOM     12  C   UNL     1       1.460  -3.500   1.129  0.00  0.00    +0.029 A 
ATOM     13  C   UNL     1       2.607  -3.914   1.780  0.00  0.00    +0.017 A 
ATOM     14  C   UNL     1       3.036  -3.249   2.914  0.00  0.00    +0.018 A 
ATOM     15  C   UNL     1       2.321  -2.166   3.393  0.00  0.00    +0.017 A 
ATOM     16  C   UNL     1       1.178  -1.749   2.738  0.00  0.00    +0.029 A 
ATOM     17 BR   UNL     1       4.601  -3.819   3.810  0.00  0.00    -0.050 Br
ENDBRANCH   8  11
ENDBRANCH   3   8
BRANCH   6  18
ATOM     18  C   UNL     1      -1.064   1.951  -3.458  0.00  0.00    +0.020 C 
BRANCH  18  20
ATOM     19  N   UNL     1      -3.340   2.578  -4.197  0.00  0.00    -0.208 N 
ATOM     20  C   UNL     1      -2.561   1.780  -3.440  0.00  0.00    +0.216 C 
ATOM     21  O   UNL     1      -3.066   0.923  -2.745  0.00  0.00    -0.276 OA
ATOM     22  H   UNL     1      -2.936   3.263  -4.754  0.00  0.00    +0.177 HD
BRANCH  19  25
ATOM     23  C   UNL     1      -6.973   3.049  -4.879  0.00  0.00    +0.068 C 
ATOM     24  C   UNL     1      -5.472   3.100  -5.000  0.00  0.00    +0.063 C 
ATOM     25  N   UNL     1      -4.731   2.419  -4.181  0.00  0.00    -0.185 NA
BRANCH  24  26
ATOM     26  C   UNL     1      -4.845   3.926  -6.049  0.00  0.00    -0.003 A 
ATOM     27  C   UNL     1      -5.430   5.134  -6.435  0.00  0.00    +0.010 A 
ATOM     28  C   UNL     1      -4.835   5.903  -7.414  0.00  0.00    +0.001 A 
ATOM     29  C   UNL     1      -3.667   5.475  -8.020  0.00  0.00    +0.000 A 
ATOM     30  C   UNL     1      -3.085   4.277  -7.646  0.00  0.00    +0.001 A 
ATOM     31  C   UNL     1      -3.666   3.500  -6.665  0.00  0.00    +0.010 A 
ENDBRANCH  24  26
ENDBRANCH  19  25
ENDBRANCH  18  20
ENDBRANCH   6  18
TORSDOF 6
