REMARK  Name = ZINC20709504
REMARK  7 active torsions:
REMARK  status: ('A' for Active; 'I' for Inactive)
REMARK    1  A    between atoms: C_2  and  C_3
REMARK    2  A    between atoms: C_3  and  N_4
REMARK    3  A    between atoms: N_4  and  S_5
REMARK    4  A    between atoms: S_5  and  C_8
REMARK    5  A    between atoms: C_21  and  C_24
REMARK    6  A    between atoms: C_26  and  N_31
REMARK    7  A    between atoms: C_29  and  O_30
REMARK                            x       y       z     vdW  Elec       q    Type
REMARK                         _______ _______ _______ _____ _____    ______ ____
ROOT
ATOM      1  C   UNL     1      -1.240   1.832   0.007  0.00  0.00    +0.106 A 
ATOM      2  C   UNL     1      -1.243   3.215   0.015  0.00  0.00    +0.030 A 
ATOM      3  C   UNL     1      -0.052   3.911   0.015  0.00  0.00    +0.025 A 
ATOM      4  C   UNL     1       1.159   3.229   0.011  0.00  0.00    +0.031 A 
ATOM      5  C   UNL     1       1.155   1.830  -0.005  0.00  0.00    -0.018 A 
ATOM      6  C   UNL     1      -0.040   1.144   0.002  0.00  0.00    +0.034 A 
ATOM      7  C   UNL     1       2.464   1.144  -0.050  0.00  0.00    +0.049 C 
ATOM      8  C   UNL     1       2.677  -0.240   0.472  0.00  0.00    -0.023 C 
ATOM      9  C   UNL     1       3.911  -0.342   0.950  0.00  0.00    -0.030 C 
ATOM     10  C   UNL     1       4.643   0.993   0.796  0.00  0.00    +0.033 C 
ATOM     11  C   UNL     1       3.474   1.987   0.785  0.00  0.00    +0.029 C 
ATOM     12  C   UNL     1       3.667   3.276   0.007  0.00  0.00    +0.108 C 
ATOM     13  N   UNL     1       2.355   3.958   0.032  0.00  0.00    -0.336 N 
ATOM     14  H   UNL     1       2.306   5.056   0.068  0.00  0.00    +0.147 HD
ENDROOT
BRANCH  12  15
ATOM     15  C   UNL     1       4.070   2.974  -1.414  0.00  0.00    +0.017 A 
ATOM     16  C   UNL     1       3.103   2.830  -2.390  0.00  0.00    +0.041 A 
ATOM     17  C   UNL     1       3.472   2.558  -3.695  0.00  0.00    +0.127 A 
ATOM     18  C   UNL     1       4.808   2.418  -4.023  0.00  0.00    +0.036 A 
ATOM     19  C   UNL     1       5.778   2.556  -3.050  0.00  0.00    +0.048 A 
ATOM     20  C   UNL     1       5.411   2.834  -1.741  0.00  0.00    +0.122 A 
BRANCH  17  21
ATOM     21  N   UNL     1       2.435   2.410  -4.740  0.00  0.00    +0.056 N 
ATOM     22  O   UNL     1       2.759   2.165  -5.889  0.00  0.00    -0.126 OA
ATOM     23  O   UNL     1       1.258   2.533  -4.452  0.00  0.00    -0.126 OA
ENDBRANCH  17  21
BRANCH  20  24
ATOM     24  O   UNL     1       6.363   2.970  -0.781  0.00  0.00    -0.506 OA
ATOM     25  H   UNL     1       7.426   2.859  -1.041  0.00  0.00    +0.292 HD
ENDBRANCH  20  24
ENDBRANCH  12  15
BRANCH   1  26
ATOM     26  S   UNL     1      -2.763   0.947   0.008  0.00  0.00    +0.059 S 
ATOM     27  O   UNL     1      -3.741   1.821  -0.539  0.00  0.00    -0.153 OA
ATOM     28  O   UNL     1      -2.490  -0.333  -0.546  0.00  0.00    -0.153 OA
BRANCH  26  29
ATOM     29  N   UNL     1      -3.183   0.697   1.590  0.00  0.00    -0.186 NA
ATOM     30  H   UNL     1      -3.060  -0.305   2.027  0.00  0.00    +0.148 HD
BRANCH  29  31
ATOM     31  C   UNL     1      -3.503   1.838   2.452  0.00  0.00    +0.132 C 
BRANCH  31  33
ATOM     32  C   UNL     1      -3.718   1.659   4.878  0.00  0.00    +0.005 C 
ATOM     33  C   UNL     1      -4.195   1.348   3.698  0.00  0.00    -0.018 C 
ENDBRANCH  31  33
ENDBRANCH  29  31
ENDBRANCH  26  29
ENDBRANCH   1  26
TORSDOF 7
