REMARK  Name = ZINC44914130
REMARK  12 active torsions:
REMARK  status: ('A' for Active; 'I' for Inactive)
REMARK    1  A    between atoms: C_1  and  C_2
REMARK    2  A    between atoms: N_5  and  C_8
REMARK    3  A    between atoms: C_8  and  C_9
REMARK    4  A    between atoms: C_9  and  C_10
REMARK    5  A    between atoms: C_10  and  N_11
REMARK    6  A    between atoms: C_12  and  C_14
REMARK    7  A    between atoms: N_17  and  S_29
REMARK    8  A    between atoms: C_20  and  C_25
REMARK    9  A    between atoms: C_25  and  C_26
REMARK   10  A    between atoms: C_25  and  C_27
REMARK   11  A    between atoms: C_25  and  C_28
REMARK   12  A    between atoms: S_29  and  C_32
REMARK                            x       y       z     vdW  Elec       q    Type
REMARK                         _______ _______ _______ _____ _____    ______ ____
ROOT
ATOM      1  C   UNL     1       4.697  -8.022   3.667  0.00  0.00    +0.277 C 
ATOM      2  C   UNL     1       6.104  -7.446   3.457  0.00  0.00    +0.185 C 
ATOM      3  N   UNL     1       6.956  -7.939   4.553  0.00  0.00    -0.200 N 
ATOM      4  C   UNL     1       6.817  -9.284   4.932  0.00  0.00    +0.093 A 
ATOM      5  C   UNL     1       7.771  -9.878   5.743  0.00  0.00    +0.032 A 
ATOM      6  C   UNL     1       7.628 -11.202   6.117  0.00  0.00    -0.040 A 
ATOM      7  C   UNL     1       6.537 -11.931   5.683  0.00  0.00    +0.008 A 
ATOM      8  C   UNL     1       5.584 -11.343   4.872  0.00  0.00    +0.048 A 
ATOM      9  C   UNL     1       5.719 -10.017   4.490  0.00  0.00    +0.144 A 
ATOM     10  O   UNL     1       4.779  -9.449   3.689  0.00  0.00    -0.476 OA
ENDROOT
BRANCH   1  12
ATOM     11  N   UNL     1       3.496  -6.280   2.385  0.00  0.00    -0.312 N 
ATOM     12  C   UNL     1       3.798  -7.585   2.539  0.00  0.00    +0.255 C 
ATOM     13  O   UNL     1       3.346  -8.406   1.770  0.00  0.00    -0.272 OA
ATOM     14  H   UNL     1       3.857  -5.623   3.000  0.00  0.00    +0.149 HD
BRANCH  11  15
ATOM     15  C   UNL     1       2.622  -5.855   1.289  0.00  0.00    +0.102 C 
BRANCH  15  16
ATOM     16  C   UNL     1       2.442  -4.336   1.340  0.00  0.00    +0.000 C 
BRANCH  16  17
ATOM     17  C   UNL     1       1.530  -3.892   0.195  0.00  0.00    -0.077 C 
BRANCH  17  22
ATOM     18  C   UNL     1      -0.285   1.510   0.412  0.00  0.00    +0.007 C 
ATOM     19  C   UNL     1      -0.238  -0.019   0.364  0.00  0.00    -0.018 C 
ATOM     20  C   UNL     1       0.466  -0.470  -0.918  0.00  0.00    -0.016 C 
ATOM     21  C   UNL     1       0.580  -1.996  -0.922  0.00  0.00    -0.079 C 
ATOM     22  N   UNL     1       1.356  -2.434   0.244  0.00  0.00    +0.380 N 
ATOM     23  C   UNL     1       0.651  -2.068   1.478  0.00  0.00    -0.079 C 
ATOM     24  C   UNL     1       0.540  -0.545   1.574  0.00  0.00    -0.016 C 
ATOM     25  H   UNL     1       2.262  -1.989   0.231  0.00  0.00    -0.082 HD
ENDBRANCH  17  22
ENDBRANCH  16  17
ENDBRANCH  15  16
ENDBRANCH  11  15
ENDBRANCH   1  12
BRANCH   6  26
ATOM     26  C   UNL     1       8.664 -11.850   6.999  0.00  0.00    -0.013 C 
ATOM     27  C   UNL     1       8.746 -11.097   8.328  0.00  0.00    +0.015 C 
ATOM     28  C   UNL     1       8.272 -13.306   7.261  0.00  0.00    +0.015 C 
ATOM     29  C   UNL     1      10.026 -11.806   6.304  0.00  0.00    +0.015 C 
ENDBRANCH   6  26
BRANCH   3  30
ATOM     30  S   UNL     1       8.039  -6.942   5.311  0.00  0.00    +0.043 S 
ATOM     31  O   UNL     1       7.601  -5.627   5.000  0.00  0.00    -0.155 OA
ATOM     32  O   UNL     1       8.069  -7.396   6.657  0.00  0.00    -0.155 OA
ATOM     33  C   UNL     1       9.627  -7.279   4.502  0.00  0.00    +0.218 C 
ENDBRANCH   3  30
TORSDOF 7
