REMARK  Name = ZINC38979264
REMARK  12 active torsions:
REMARK  status: ('A' for Active; 'I' for Inactive)
REMARK    1  A    between atoms: C_1  and  C_2
REMARK    2  A    between atoms: C_2  and  O_3
REMARK    3  A    between atoms: O_3  and  C_4
REMARK    4  A    between atoms: C_6  and  C_16
REMARK    5  A    between atoms: C_8  and  O_13
REMARK    6  A    between atoms: C_9  and  O_10
REMARK    7  A    between atoms: O_10  and  C_11
REMARK    8  A    between atoms: C_11  and  C_12
REMARK    9  A    between atoms: O_13  and  C_14
REMARK   10  A    between atoms: C_14  and  C_15
REMARK   11  A    between atoms: C_16  and  N_18
REMARK   12  A    between atoms: C_22  and  C_25
REMARK                            x       y       z     vdW  Elec       q    Type
REMARK                         _______ _______ _______ _____ _____    ______ ____
ROOT
ATOM      1  C   UNL     1      -0.216  -4.963   0.455  0.00  0.00    +0.270 C 
ATOM      2  O   UNL     1      -0.779  -4.512   1.436  0.00  0.00    -0.268 OA
ENDROOT
BRANCH   1   3
ATOM      3  N   UNL     1      -0.111  -6.292   0.293  0.00  0.00    -0.149 NA
ATOM      4  C   UNL     1      -0.619  -7.111   1.198  0.00  0.00    +0.202 C 
ATOM      5  N   UNL     1      -1.292  -6.810   2.361  0.00  0.00    -0.153 NA
ATOM      6  N   UNL     1      -1.726  -7.633   3.136  0.00  0.00    -0.289 N 
ATOM      7  C   UNL     1      -1.528  -9.068   2.826  0.00  0.00    +0.195 C 
ATOM      8  S   UNL     1      -0.620  -8.902   1.229  0.00  0.00    -0.056 S 
ATOM      9  H   UNL     1      -2.193  -7.359   3.941  0.00  0.00    +0.184 HD
BRANCH   7  10
ATOM     10  C   UNL     1      -0.688  -9.748   3.876  0.00  0.00    +0.005 A 
ATOM     11  C   UNL     1      -0.477  -9.133   5.096  0.00  0.00    +0.009 A 
ATOM     12  C   UNL     1       0.293  -9.756   6.060  0.00  0.00    +0.020 A 
ATOM     13  C   UNL     1       0.853 -10.996   5.804  0.00  0.00    +0.042 A 
ATOM     14  C   UNL     1       0.642 -11.611   4.584  0.00  0.00    +0.040 A 
ATOM     15  C   UNL     1      -0.133 -10.989   3.621  0.00  0.00    +0.048 A 
ATOM     16 CL   UNL     1      -0.404 -11.763   2.091  0.00  0.00    -0.083 Cl
ATOM     17 CL   UNL     1       1.821 -11.778   7.015  0.00  0.00    -0.083 Cl
ENDBRANCH   7  10
ENDBRANCH   1   3
BRANCH   1  20
ATOM     18  C   UNL     1       0.777  -1.811  -1.336  0.00  0.00    +0.166 A 
ATOM     19  C   UNL     1       0.244  -2.665  -0.389  0.00  0.00    +0.062 A 
ATOM     20  C   UNL     1       0.353  -4.047  -0.557  0.00  0.00    +0.046 A 
ATOM     21  C   UNL     1       1.000  -4.564  -1.682  0.00  0.00    +0.062 A 
ATOM     22  C   UNL     1       1.531  -3.706  -2.626  0.00  0.00    +0.166 A 
ATOM     23  C   UNL     1       1.417  -2.328  -2.460  0.00  0.00    +0.204 A 
BRANCH  18  24
ATOM     24  O   UNL     1       0.671  -0.465  -1.174  0.00  0.00    -0.488 OA
BRANCH  24  26
ATOM     25  C   UNL     1      -0.019   1.526   0.010  0.00  0.00    +0.048 C 
ATOM     26  C   UNL     1       0.002  -0.004   0.002  0.00  0.00    +0.226 C 
ENDBRANCH  24  26
ENDBRANCH  18  24
BRANCH  23  27
ATOM     27  O   UNL     1       1.935  -1.486  -3.393  0.00  0.00    -0.485 OA
BRANCH  27  28
ATOM     28  C   UNL     1       3.291  -1.073  -3.212  0.00  0.00    +0.226 C 
ATOM     29  C   UNL     1       3.695  -0.136  -4.352  0.00  0.00    +0.048 C 
ENDBRANCH  27  28
ENDBRANCH  23  27
BRANCH  22  30
ATOM     30  O   UNL     1       2.162  -4.208  -3.722  0.00  0.00    -0.488 OA
BRANCH  30  31
ATOM     31  C   UNL     1       2.238  -5.630  -3.831  0.00  0.00    +0.226 C 
ATOM     32  C   UNL     1       2.976  -6.004  -5.118  0.00  0.00    +0.048 C 
ENDBRANCH  30  31
ENDBRANCH  22  30
ENDBRANCH   1  20
TORSDOF 9
