REMARK  Name = ZINC09244220
REMARK  11 active torsions:
REMARK  status: ('A' for Active; 'I' for Inactive)
REMARK    1  A    between atoms: C_1  and  C_2
REMARK    2  A    between atoms: C_2  and  O_3
REMARK    3  A    between atoms: O_3  and  C_4
REMARK    4  A    between atoms: C_9  and  N_10
REMARK    5  A    between atoms: C_13  and  C_14
REMARK    6  A    between atoms: N_15  and  C_16
REMARK    7  A    between atoms: C_16  and  C_17
REMARK    8  A    between atoms: C_24  and  O_25
REMARK    9  A    between atoms: O_25  and  C_26
REMARK   10  A    between atoms: C_32  and  N_65
REMARK   11  A    between atoms: C_33  and  O_37
REMARK                            x       y       z     vdW  Elec       q    Type
REMARK                         _______ _______ _______ _____ _____    ______ ____
ROOT
ATOM      1  C   UNL     1      -1.717  -2.578  -2.000  0.00  0.00    +0.099 C 
ATOM      2  N   UNL     1      -0.941  -1.935  -1.108  0.00  0.00    -0.296 NA
ENDROOT
BRANCH   1   6
ATOM      3  N   UNL     1      -0.609  -6.076  -1.566  0.00  0.00    -0.188 N 
ATOM      4  C   UNL     1      -0.623  -4.737  -1.390  0.00  0.00    +0.245 C 
ATOM      5  O   UNL     1       0.175  -4.192  -0.649  0.00  0.00    -0.274 OA
ATOM      6  C   UNL     1      -1.635  -3.957  -2.124  0.00  0.00    +0.199 C 
ATOM      7  C   UNL     1      -2.556  -4.706  -2.989  0.00  0.00    +0.198 C 
ATOM      8  N   UNL     1      -2.421  -6.020  -3.068  0.00  0.00    -0.131 NA
ATOM      9  C   UNL     1      -1.488  -6.675  -2.382  0.00  0.00    +0.339 C 
ATOM     10  O   UNL     1      -1.429  -7.886  -2.503  0.00  0.00    -0.250 OA
BRANCH   3  16
ATOM     11  C   UNL     1       1.577  -7.114  -1.468  0.00  0.00    +0.142 A 
ATOM     12  C   UNL     1       2.512  -7.877  -0.787  0.00  0.00    +0.047 A 
ATOM     13  C   UNL     1       2.212  -8.386   0.463  0.00  0.00    +0.004 A 
ATOM     14  C   UNL     1       0.982  -8.130   1.041  0.00  0.00    +0.002 A 
ATOM     15  C   UNL     1       0.046  -7.365   0.371  0.00  0.00    +0.028 A 
ATOM     16  C   UNL     1       0.340  -6.852  -0.884  0.00  0.00    +0.087 A 
BRANCH  11  17
ATOM     17  O   UNL     1       1.868  -6.619  -2.700  0.00  0.00    -0.490 OA
BRANCH  17  19
ATOM     18  C   UNL     1       3.299  -6.289  -4.619  0.00  0.00    +0.048 C 
ATOM     19  C   UNL     1       3.155  -6.928  -3.236  0.00  0.00    +0.226 C 
ENDBRANCH  17  19
ENDBRANCH  11  17
ENDBRANCH   3  16
BRANCH   7  20
ATOM     20  O   UNL     1      -3.516  -4.068  -3.692  0.00  0.00    -0.496 OA
ATOM     21  H   UNL     1      -4.066  -4.655  -4.228  0.00  0.00    +0.293 HD
ENDBRANCH   7  20
ENDBRANCH   1   6
BRANCH   2  22
ATOM     22  C   UNL     1      -1.028  -0.479  -0.977  0.00  0.00    +0.130 C 
BRANCH  22  23
ATOM     23  C   UNL     1       0.038   0.009   0.006  0.00  0.00    -0.012 C 
ATOM     24  C   UNL     1       1.403  -0.341  -0.526  0.00  0.00    -0.011 A 
ATOM     25  C   UNL     1       2.397  -0.838   0.290  0.00  0.00    -0.040 A 
ATOM     26  C   UNL     1       3.641  -1.144  -0.240  0.00  0.00    +0.053 A 
ATOM     27  C   UNL     1       3.896  -0.957  -1.589  0.00  0.00    +0.170 A 
ATOM     28  C   UNL     1       2.896  -0.458  -2.416  0.00  0.00    +0.208 A 
ATOM     29  C   UNL     1       1.654  -0.147  -1.881  0.00  0.00    +0.167 A 
ATOM     30  O   UNL     1       3.386  -0.366  -3.688  0.00  0.00    -0.449 OA
ATOM     31  C   UNL     1       4.563  -1.196  -3.707  0.00  0.00    +0.467 C 
ATOM     32  O   UNL     1       5.015  -1.178  -2.340  0.00  0.00    -0.452 OA
ATOM     33  C   UNL     1       2.170  -1.065   1.763  0.00  0.00    +0.017 C 
ATOM     34  C   UNL     1       0.928  -0.302   2.224  0.00  0.00    -0.074 C 
ATOM     35  C   UNL     1      -1.470  -0.211   1.884  0.00  0.00    -0.095 C 
ATOM     36  N   UNL     1      -0.178  -0.645   1.307  0.00  0.00    +0.384 N 
ATOM     37  H   UNL     1      -0.198  -1.663   1.171  0.00  0.00    -0.081 HD
BRANCH  29  38
ATOM     38  O   UNL     1       0.674   0.345  -2.686  0.00  0.00    -0.491 OA
ATOM     39  C   UNL     1       0.604   1.766  -2.827  0.00  0.00    +0.277 C 
ENDBRANCH  29  38
ENDBRANCH  22  23
ENDBRANCH   2  22
TORSDOF 8
