REMARK  Name = ZINC08648576
REMARK  10 active torsions:
REMARK  status: ('A' for Active; 'I' for Inactive)
REMARK    1  A    between atoms: C_4  and  C_7
REMARK    2  A    between atoms: C_7  and  C_8
REMARK    3  A    between atoms: C_7  and  N_59
REMARK    4  A    between atoms: C_15  and  S_17
REMARK    5  A    between atoms: S_17  and  C_18
REMARK    6  A    between atoms: C_18  and  C_19
REMARK    7  A    between atoms: N_21  and  N_22
REMARK    8  A    between atoms: C_23  and  C_24
REMARK    9  A    between atoms: C_27  and  O_30
REMARK   10  A    between atoms: O_30  and  C_31
REMARK                            x       y       z     vdW  Elec       q    Type
REMARK                         _______ _______ _______ _____ _____    ______ ____
ROOT
ATOM      1  S   UNL     1       6.309  -2.939   8.471  0.00  0.00    -0.152 S 
ENDROOT
BRANCH   1   3
ATOM      2  C   UNL     1       8.087  -4.306  10.167  0.00  0.00    -0.065 C 
ATOM      3  C   UNL     1       6.892  -3.336  10.142  0.00  0.00    +0.014 C 
ATOM      4  C   UNL     1       7.856  -2.289  10.727  0.00  0.00    -0.065 C 
ATOM      5  N   UNL     1       8.579  -3.416  11.132  0.00  0.00    +0.388 N 
ATOM      6  H   UNL     1       8.341  -3.707  12.087  0.00  0.00    -0.080 HD
BRANCH   5   7
ATOM      7  C   UNL     1      10.081  -3.218  11.029  0.00  0.00    -0.007 C 
BRANCH   7  11
ATOM      8  C   UNL     1      11.511  -0.430  13.932  0.00  0.00    +0.000 A 
ATOM      9  C   UNL     1      11.968  -0.366  12.629  0.00  0.00    +0.000 A 
ATOM     10  C   UNL     1      11.506  -1.269  11.690  0.00  0.00    +0.002 A 
ATOM     11  C   UNL     1      10.586  -2.234  12.053  0.00  0.00    -0.057 A 
ATOM     12  C   UNL     1      10.124  -2.294  13.355  0.00  0.00    +0.002 A 
ATOM     13  C   UNL     1      10.590  -1.395  14.296  0.00  0.00    +0.000 A 
ENDBRANCH   7  11
BRANCH   7  14
ATOM     14  C   UNL     1      10.815  -4.525  11.184  0.00  0.00    -0.057 A 
ATOM     15  C   UNL     1      10.444  -5.413  12.176  0.00  0.00    +0.002 A 
ATOM     16  C   UNL     1      11.115  -6.614  12.315  0.00  0.00    +0.000 A 
ATOM     17  C   UNL     1      12.162  -6.923  11.467  0.00  0.00    +0.000 A 
ATOM     18  C   UNL     1      12.537  -6.032  10.478  0.00  0.00    +0.000 A 
ATOM     19  C   UNL     1      11.863  -4.833  10.336  0.00  0.00    +0.002 A 
ENDBRANCH   7  14
ENDBRANCH   5   7
ENDBRANCH   1   3
BRANCH   1  20
ATOM     20  C   UNL     1       4.832  -1.924   8.751  0.00  0.00    +0.166 C 
BRANCH  20  21
ATOM     21  C   UNL     1       4.241  -1.520   7.425  0.00  0.00    +0.242 C 
ATOM     22  O   UNL     1       4.764  -1.881   6.392  0.00  0.00    -0.273 OA
ATOM     23  N   UNL     1       3.130  -0.757   7.387  0.00  0.00    -0.206 N 
ATOM     24  H   UNL     1       2.712  -0.468   8.213  0.00  0.00    +0.177 HD
BRANCH  23  25
ATOM     25  N   UNL     1       2.581  -0.382   6.154  0.00  0.00    -0.188 NA
ATOM     26  C   UNL     1       1.511   0.353   6.117  0.00  0.00    +0.138 C 
BRANCH  26  27
ATOM     27  C   UNL     1       0.933   0.748   4.819  0.00  0.00    -0.005 A 
ATOM     28  C   UNL     1      -0.218   1.539   4.777  0.00  0.00    +0.013 A 
ATOM     29  C   UNL     1      -0.755   1.906   3.562  0.00  0.00    +0.046 A 
ATOM     30  C   UNL     1      -0.153   1.491   2.381  0.00  0.00    +0.130 A 
ATOM     31  C   UNL     1       0.988   0.700   2.418  0.00  0.00    +0.046 A 
ATOM     32  C   UNL     1       1.535   0.333   3.628  0.00  0.00    +0.013 A 
BRANCH  30  33
ATOM     33  O   UNL     1      -0.686   1.856   1.185  0.00  0.00    -0.406 OA
BRANCH  33  34
ATOM     34  C   UNL     1      -0.017   1.395   0.010  0.00  0.00    +0.575 C 
ATOM     35  F   UNL     1       0.002  -0.004   0.002  0.00  0.00    -0.133 F 
ATOM     36  F   UNL     1       1.296   1.879  -0.000  0.00  0.00    -0.133 F 
ATOM     37  F   UNL     1      -0.694   1.858  -1.124  0.00  0.00    -0.133 F 
ENDBRANCH  33  34
ENDBRANCH  30  33
ENDBRANCH  26  27
ENDBRANCH  23  25
ENDBRANCH  20  21
ENDBRANCH   1  20
TORSDOF 10
