REMARK  Name = ZINC67042441
REMARK  2 active torsions:
REMARK  status: ('A' for Active; 'I' for Inactive)
REMARK    1  A    between atoms: C_9  and  N_11
REMARK    2  A    between atoms: C_18  and  C_20
REMARK                            x       y       z     vdW  Elec       q    Type
REMARK                         _______ _______ _______ _____ _____    ______ ____
ROOT
ATOM      1  N   UNL     1       4.577  -0.496  -0.997  0.00  0.00    -0.292 N 
ATOM      2  C   UNL     1       5.524   0.384  -0.617  0.00  0.00    +0.303 C 
ATOM      3  O   UNL     1       5.538   0.808   0.522  0.00  0.00    -0.253 OA
ATOM      4  N   UNL     1       6.456   0.794  -1.500  0.00  0.00    -0.278 N 
ATOM      5  C   UNL     1       6.553   0.367  -2.908  0.00  0.00    +0.110 C 
ATOM      6  C   UNL     1       8.039   0.584  -3.287  0.00  0.00    +0.021 C 
ATOM      7  C   UNL     1       8.371   1.888  -2.514  0.00  0.00    +0.029 C 
ATOM      8  C   UNL     1       7.541   1.746  -1.220  0.00  0.00    +0.111 C 
ATOM      9  H   UNL     1       4.566  -0.835  -1.906  0.00  0.00    +0.151 HD
ENDROOT
BRANCH   8  10
ATOM     10  C   UNL     1       6.963   3.082  -0.830  0.00  0.00    +0.018 A 
ATOM     11  C   UNL     1       5.649   3.381  -1.135  0.00  0.00    +0.009 A 
ATOM     12  C   UNL     1       5.115   4.605  -0.779  0.00  0.00    +0.004 A 
ATOM     13  C   UNL     1       5.895   5.536  -0.118  0.00  0.00    +0.049 A 
ATOM     14  C   UNL     1       7.215   5.242   0.191  0.00  0.00    +0.162 A 
ATOM     15  C   UNL     1       7.749   4.008  -0.160  0.00  0.00    +0.167 A 
ATOM     16  O   UNL     1       9.038   3.694   0.144  0.00  0.00    -0.485 OA
ATOM     17  C   UNL     1       9.902   4.784   0.482  0.00  0.00    +0.270 C 
ATOM     18  C   UNL     1       9.165   5.692   1.476  0.00  0.00    +0.270 C 
ATOM     19  O   UNL     1       7.972   6.169   0.839  0.00  0.00    -0.485 OA
ENDBRANCH   8  10
BRANCH   1  28
ATOM     20  C   UNL     1      -0.017   1.377   0.010  0.00  0.00    +0.000 A 
ATOM     21  C   UNL     1       1.172   2.083   0.002  0.00  0.00    +0.000 A 
ATOM     22  C   UNL     1       2.376   1.406  -0.013  0.00  0.00    +0.006 A 
ATOM     23  C   UNL     1       2.396   0.021  -0.021  0.00  0.00    -0.024 A 
ATOM     24  C   UNL     1       1.208  -0.685  -0.013  0.00  0.00    -0.042 A 
ATOM     25  C   UNL     1       0.002  -0.004   0.002  0.00  0.00    +0.004 A 
ATOM     26  C   UNL     1       1.496  -2.171  -0.025  0.00  0.00    +0.037 C 
ATOM     27  C   UNL     1       2.966  -2.294  -0.480  0.00  0.00    +0.032 C 
ATOM     28  C   UNL     1       3.564  -0.942  -0.037  0.00  0.00    +0.105 C 
ENDBRANCH   1  28
TORSDOF 2
