REMARK  Name = ZINC36605676
REMARK  13 active torsions:
REMARK  status: ('A' for Active; 'I' for Inactive)
REMARK    1  A    between atoms: C_1  and  C_2
REMARK    2  A    between atoms: C_2  and  C_3
REMARK    3  A    between atoms: C_3  and  C_4
REMARK    4  A    between atoms: C_4  and  N_5
REMARK    5  A    between atoms: C_6  and  C_8
REMARK    6  A    between atoms: C_8  and  C_10
REMARK    7  A    between atoms: C_8  and  N_17
REMARK    8  A    between atoms: C_13  and  O_16
REMARK    9  A    between atoms: N_17  and  C_18
REMARK   10  A    between atoms: C_24  and  C_26
REMARK   11  A    between atoms: C_34  and  C_36
REMARK   12  A    between atoms: C_37  and  C_38
REMARK   13  A    between atoms: C_37  and  C_39
REMARK                            x       y       z     vdW  Elec       q    Type
REMARK                         _______ _______ _______ _____ _____    ______ ____
ROOT
ATOM      1  N   UNL     1       2.040  -6.465  -4.191  0.00  0.00    -0.255 N 
ATOM      2  C   UNL     1       1.994  -6.298  -5.528  0.00  0.00    +0.224 C 
ATOM      3  O   UNL     1       1.818  -5.193  -5.995  0.00  0.00    -0.275 OA
ENDROOT
BRANCH   2   4
ATOM      4  C   UNL     1       2.164  -7.494  -6.449  0.00  0.00    +0.079 C 
ATOM      5  C   UNL     1       3.652  -7.699  -6.713  0.00  0.00    +0.017 C 
ATOM      6  C   UNL     1       3.940  -8.157  -8.142  0.00  0.00    -0.004 C 
ATOM      7  C   UNL     1       3.422  -7.129  -9.172  0.00  0.00    +0.008 C 
ATOM      8  C   UNL     1       2.059  -7.834  -8.957  0.00  0.00    -0.001 C 
ATOM      9  C   UNL     1       1.373  -7.245  -7.726  0.00  0.00    +0.001 C 
ATOM     10  C   UNL     1      -0.055  -7.783  -7.591  0.00  0.00    +0.008 C 
ATOM     11  C   UNL     1       2.880  -9.103  -8.721  0.00  0.00    -0.029 C 
ATOM     12  C   UNL     1       2.308 -10.129  -7.749  0.00  0.00    +0.011 C 
ATOM     13  C   UNL     1       3.332  -9.783 -10.030  0.00  0.00    +0.011 C 
ENDBRANCH   2   4
BRANCH   1  14
ATOM     14  C   UNL     1       2.154  -7.750  -3.650  0.00  0.00    +0.037 A 
ATOM     15  C   UNL     1       1.107  -8.654  -3.778  0.00  0.00    +0.023 A 
ATOM     16  C   UNL     1       1.223  -9.923  -3.244  0.00  0.00    +0.002 A 
ATOM     17  C   UNL     1       2.379 -10.293  -2.581  0.00  0.00    +0.000 A 
ATOM     18  C   UNL     1       3.423  -9.395  -2.452  0.00  0.00    +0.002 A 
ATOM     19  C   UNL     1       3.316  -8.127  -2.989  0.00  0.00    +0.023 A 
ENDBRANCH   1  14
BRANCH   1  20
ATOM     20  C   UNL     1       1.971  -5.301  -3.305  0.00  0.00    +0.197 C 
BRANCH  20  21
ATOM     21  C   UNL     1       2.156  -5.745  -1.877  0.00  0.00    -0.018 A 
ATOM     22  C   UNL     1       1.349  -6.736  -1.352  0.00  0.00    +0.009 A 
ATOM     23  C   UNL     1       1.517  -7.145  -0.043  0.00  0.00    +0.046 A 
ATOM     24  C   UNL     1       2.497  -6.560   0.745  0.00  0.00    +0.117 A 
ATOM     25  C   UNL     1       3.307  -5.565   0.215  0.00  0.00    +0.046 A 
ATOM     26  C   UNL     1       3.138  -5.164  -1.096  0.00  0.00    +0.009 A 
BRANCH  24  27
ATOM     27  O   UNL     1       2.664  -6.959   2.033  0.00  0.00    -0.507 OA
ATOM     28  H   UNL     1       3.291  -7.688   2.140  0.00  0.00    +0.292 HD
ENDBRANCH  24  27
ENDBRANCH  20  21
BRANCH  20  30
ATOM     29  N   UNL     1       0.335  -3.537  -2.730  0.00  0.00    -0.313 N 
ATOM     30  C   UNL     1       0.626  -4.636  -3.453  0.00  0.00    +0.238 C 
ATOM     31  O   UNL     1      -0.193  -5.090  -4.224  0.00  0.00    -0.273 OA
ATOM     32  H   UNL     1       0.990  -3.174  -2.114  0.00  0.00    +0.149 HD
BRANCH  29  33
ATOM     33  C   UNL     1      -0.972  -2.890  -2.874  0.00  0.00    +0.104 C 
BRANCH  33  34
ATOM     34  C   UNL     1      -1.044  -1.674  -1.949  0.00  0.00    +0.018 C 
BRANCH  34  36
ATOM     35  C   UNL     1      -2.482   0.217  -1.174  0.00  0.00    +0.004 C 
ATOM     36  C   UNL     1      -2.409  -0.999  -2.099  0.00  0.00    -0.002 C 
ENDBRANCH  34  36
ENDBRANCH  33  34
ENDBRANCH  29  33
ENDBRANCH  20  30
ENDBRANCH   1  20
TORSDOF 9
