REMARK  Name = ZINC15962396
REMARK  14 active torsions:
REMARK  status: ('A' for Active; 'I' for Inactive)
REMARK    1  A    between atoms: C_1  and  C_2
REMARK    2  A    between atoms: C_2  and  O_3
REMARK    3  A    between atoms: O_3  and  C_4
REMARK    4  A    between atoms: C_4  and  C_6
REMARK    5  A    between atoms: C_10  and  N_11
REMARK    6  A    between atoms: C_12  and  C_14
REMARK    7  A    between atoms: C_14  and  O_15
REMARK    8  A    between atoms: O_15  and  C_16
REMARK    9  A    between atoms: C_21  and  O_22
REMARK   10  A    between atoms: O_22  and  C_23
REMARK   11  A    between atoms: C_24  and  C_29
REMARK   12  A    between atoms: C_24  and  C_30
REMARK   13  A    between atoms: C_25  and  C_27
REMARK   14  A    between atoms: C_25  and  C_28
REMARK                            x       y       z     vdW  Elec       q    Type
REMARK                         _______ _______ _______ _____ _____    ______ ____
ROOT
ATOM      1  C   UNL     1      -4.243  -5.955   0.009  0.00  0.00    +0.091 A 
ATOM      2  C   UNL     1      -5.657  -6.263   0.025  0.00  0.00    -0.024 A 
ATOM      3  C   UNL     1      -6.487  -5.195   0.033  0.00  0.00    -0.016 A 
ATOM      4  S   UNL     1      -5.410  -3.792   0.029  0.00  0.00    -0.079 S 
ATOM      5  C   UNL     1      -3.883  -4.611   0.013  0.00  0.00    +0.086 A 
ATOM      6  C   UNL     1      -7.981  -5.229   0.034  0.00  0.00    -0.041 C 
ATOM      7  C   UNL     1      -7.594  -7.572   0.807  0.00  0.00    -0.069 C 
ATOM      8  C   UNL     1      -6.267  -7.659   0.043  0.00  0.00    +0.024 C 
ATOM      9  C   UNL     1      -7.310  -7.264   2.280  0.00  0.00    -0.010 C 
ATOM     10  C   UNL     1      -8.272  -8.952   0.734  0.00  0.00    -0.010 C 
ATOM     11  C   UNL     1      -8.511  -4.296   1.131  0.00  0.00    -0.005 C 
ATOM     12  C   UNL     1      -8.479  -4.698  -1.324  0.00  0.00    -0.005 C 
ATOM     13  N   UNL     1      -8.546  -6.598   0.213  0.00  0.00    +0.389 N 
ATOM     14  H   UNL     1      -8.837  -6.950  -0.706  0.00  0.00    -0.084 HD
ATOM     15  H   UNL     1      -9.365  -6.530   0.829  0.00  0.00    -0.084 HD
ENDROOT
BRANCH   5  16
ATOM     16  N   UNL     1      -2.610  -4.062   0.004  0.00  0.00    -0.277 N 
ATOM     17  C   UNL     1      -2.453  -2.724   0.010  0.00  0.00    +0.255 C 
ATOM     18  O   UNL     1      -3.426  -2.000   0.023  0.00  0.00    -0.272 OA
ATOM     19  H   UNL     1      -1.832  -4.642  -0.006  0.00  0.00    +0.155 HD
BRANCH  17  20
ATOM     20  C   UNL     1      -1.069  -2.127   0.000  0.00  0.00    +0.325 C 
BRANCH  20  21
ATOM     21  O   UNL     1      -1.165  -0.702   0.009  0.00  0.00    -0.479 OA
BRANCH  21  22
ATOM     22  C   UNL     1       0.002  -0.004   0.002  0.00  0.00    +0.163 A 
ATOM     23  C   UNL     1       1.213  -0.677  -0.013  0.00  0.00    +0.049 A 
ATOM     24  C   UNL     1       2.399   0.033  -0.021  0.00  0.00    +0.004 A 
ATOM     25  C   UNL     1       2.380   1.415  -0.013  0.00  0.00    +0.004 A 
ATOM     26  C   UNL     1       1.175   2.093   0.002  0.00  0.00    +0.049 A 
ATOM     27  C   UNL     1      -0.017   1.387   0.010  0.00  0.00    +0.162 A 
BRANCH  27  28
ATOM     28  O   UNL     1      -1.203   2.053   0.019  0.00  0.00    -0.491 OA
ATOM     29  C   UNL     1      -1.146   3.481   0.026  0.00  0.00    +0.277 C 
ENDBRANCH  27  28
ENDBRANCH  21  22
ENDBRANCH  20  21
ENDBRANCH  17  20
ENDBRANCH   5  16
BRANCH   1  30
ATOM     30  C   UNL     1      -3.223  -7.006  -0.015  0.00  0.00    +0.342 C 
ATOM     31  O   UNL     1      -2.782  -7.450   1.028  0.00  0.00    -0.245 OA
BRANCH  30  32
ATOM     32  O   UNL     1      -2.771  -7.481  -1.194  0.00  0.00    -0.461 OA
BRANCH  32  34
ATOM     33  C   UNL     1      -1.375  -8.930  -2.565  0.00  0.00    +0.048 C 
ATOM     34  C   UNL     1      -1.760  -8.521  -1.142  0.00  0.00    +0.229 C 
ENDBRANCH  32  34
ENDBRANCH  30  32
ENDBRANCH   1  30
TORSDOF 8
