REMARK  Name = ZINC14986777
REMARK  8 active torsions:
REMARK  status: ('A' for Active; 'I' for Inactive)
REMARK    1  A    between atoms: C_1  and  C_2
REMARK    2  A    between atoms: N_4  and  C_5
REMARK    3  A    between atoms: C_8  and  C_10
REMARK    4  A    between atoms: C_10  and  N_68
REMARK    5  A    between atoms: C_17  and  C_19
REMARK    6  A    between atoms: N_21  and  C_22
REMARK    7  A    between atoms: C_22  and  C_23
REMARK    8  A    between atoms: C_23  and  C_28
REMARK                            x       y       z     vdW  Elec       q    Type
REMARK                         _______ _______ _______ _____ _____    ______ ____
ROOT
ATOM      1  C   UNL     1       1.431   1.975  -0.074  0.00  0.00    -0.078 C 
ATOM      2  C   UNL     1      -0.020   1.480  -0.049  0.00  0.00    -0.011 C 
ATOM      3  C   UNL     1      -0.015  -0.052  -0.069  0.00  0.00    -0.021 C 
ATOM      4  C   UNL     1       0.832  -0.676  -1.183  0.00  0.00    -0.011 C 
ATOM      5  C   UNL     1       2.232  -0.054  -1.141  0.00  0.00    -0.078 C 
ATOM      6  C   UNL     1      -0.077  -0.781   1.272  0.00  0.00    +0.020 C 
ATOM      7  C   UNL     1      -1.295  -0.775   0.345  0.00  0.00    +0.082 C 
ATOM      8  N   UNL     1       2.105   1.415  -1.266  0.00  0.00    +0.383 N 
ATOM      9  H   UNL     1       1.542   1.630  -2.098  0.00  0.00    -0.081 HD
ENDROOT
BRANCH   7  10
ATOM     10  C   UNL     1      -2.473   0.073   0.750  0.00  0.00    +0.217 C 
ATOM     11  O   UNL     1      -2.382   1.282   0.739  0.00  0.00    -0.275 OA
ATOM     12  N   UNL     1      -3.628  -0.513   1.124  0.00  0.00    -0.314 N 
ATOM     13  H   UNL     1      -3.701  -1.480   1.133  0.00  0.00    +0.149 HD
BRANCH  12  14
ATOM     14  C   UNL     1      -4.773   0.312   1.518  0.00  0.00    +0.115 C 
BRANCH  14  15
ATOM     15  C   UNL     1      -5.984  -0.588   1.774  0.00  0.00    +0.011 C 
ATOM     16  C   UNL     1      -6.297  -1.422   0.520  0.00  0.00    +0.013 C 
ATOM     17  C   UNL     1      -7.724  -1.037   0.079  0.00  0.00    +0.001 C 
ATOM     18  C   UNL     1      -7.939   0.375   0.678  0.00  0.00    +0.001 C 
ATOM     19  C   UNL     1      -7.233   0.275   2.053  0.00  0.00    +0.013 C 
BRANCH  15  20
ATOM     20  C   UNL     1      -5.713  -1.496   2.946  0.00  0.00    -0.040 A 
ATOM     21  C   UNL     1      -6.629  -2.473   3.289  0.00  0.00    +0.004 A 
ATOM     22  C   UNL     1      -6.378  -3.310   4.360  0.00  0.00    +0.000 A 
ATOM     23  C   UNL     1      -5.216  -3.163   5.095  0.00  0.00    +0.000 A 
ATOM     24  C   UNL     1      -4.303  -2.183   4.754  0.00  0.00    +0.000 A 
ATOM     25  C   UNL     1      -4.551  -1.349   3.680  0.00  0.00    +0.004 A 
ENDBRANCH  15  20
ENDBRANCH  14  15
ENDBRANCH  12  14
ENDBRANCH   7  10
BRANCH   8  26
ATOM     26  C   UNL     1       3.441   2.024  -1.422  0.00  0.00    -0.036 C 
BRANCH  26  30
ATOM     27  C   UNL     1       3.028   6.193  -1.474  0.00  0.00    +0.072 A 
ATOM     28  C   UNL     1       3.289   5.647  -0.254  0.00  0.00    +0.031 A 
ATOM     29  C   UNL     1       3.433   4.275  -0.155  0.00  0.00    +0.011 A 
ATOM     30  C   UNL     1       3.321   3.519  -1.273  0.00  0.00    -0.025 A 
ATOM     31  S   UNL     1       2.989   4.749  -2.523  0.00  0.00    -0.080 S 
BRANCH  27  35
ATOM     32  C   UNL     1       2.384   9.322  -3.465  0.00  0.00    +0.109 C 
ATOM     33  C   UNL     1       2.588   7.875  -3.096  0.00  0.00    +0.214 C 
ATOM     34  O   UNL     1       2.526   7.016  -3.951  0.00  0.00    -0.276 OA
ATOM     35  N   UNL     1       2.839   7.534  -1.816  0.00  0.00    -0.280 N 
ATOM     36  H   UNL     1       2.889   8.221  -1.133  0.00  0.00    +0.155 HD
ENDBRANCH  27  35
ENDBRANCH  26  30
ENDBRANCH   8  26
TORSDOF 7
