REMARK  Name = ZINC20691330
REMARK  10 active torsions:
REMARK  status: ('A' for Active; 'I' for Inactive)
REMARK    1  A    between atoms: C_1  and  C_2
REMARK    2  A    between atoms: C_2  and  O_3
REMARK    3  A    between atoms: O_3  and  C_4
REMARK    4  A    between atoms: C_7  and  N_10
REMARK    5  A    between atoms: N_10  and  S_11
REMARK    6  A    between atoms: S_11  and  C_14
REMARK    7  A    between atoms: C_27  and  C_30
REMARK    8  A    between atoms: C_31  and  C_38
REMARK    9  A    between atoms: C_33  and  C_37
REMARK   10  A    between atoms: C_35  and  C_36
REMARK                            x       y       z     vdW  Elec       q    Type
REMARK                         _______ _______ _______ _____ _____    ______ ____
ROOT
ATOM      1  C   UNL     1      -3.193   5.513  -0.463  0.00  0.00    +0.109 A 
ATOM      2  C   UNL     1      -3.696   5.496  -1.751  0.00  0.00    +0.030 A 
ATOM      3  C   UNL     1      -3.077   4.743  -2.727  0.00  0.00    +0.025 A 
ATOM      4  C   UNL     1      -1.944   3.996  -2.424  0.00  0.00    +0.031 A 
ATOM      5  C   UNL     1      -1.431   4.031  -1.123  0.00  0.00    -0.018 A 
ATOM      6  C   UNL     1      -2.062   4.780  -0.153  0.00  0.00    +0.034 A 
ATOM      7  C   UNL     1      -0.214   3.250  -0.835  0.00  0.00    +0.049 C 
ATOM      8  C   UNL     1       0.112   2.724   0.515  0.00  0.00    -0.023 C 
ATOM      9  C   UNL     1       0.816   1.606   0.376  0.00  0.00    -0.030 C 
ATOM     10  C   UNL     1       0.986   1.277  -1.108  0.00  0.00    +0.033 C 
ATOM     11  C   UNL     1      -0.239   1.969  -1.721  0.00  0.00    +0.029 C 
ATOM     12  C   UNL     1      -0.118   2.441  -3.159  0.00  0.00    +0.105 C 
ATOM     13  N   UNL     1      -1.343   3.226  -3.427  0.00  0.00    -0.336 N 
ATOM     14  H   UNL     1      -1.799   3.211  -4.428  0.00  0.00    +0.147 HD
ENDROOT
BRANCH  12  15
ATOM     15  C   UNL     1      -0.045   1.258  -4.091  0.00  0.00    -0.021 A 
ATOM     16  C   UNL     1       1.166   0.894  -4.650  0.00  0.00    -0.045 A 
ATOM     17  C   UNL     1       1.234  -0.194  -5.500  0.00  0.00    +0.007 A 
ATOM     18  C   UNL     1       0.090  -0.911  -5.800  0.00  0.00    -0.050 A 
ATOM     19  C   UNL     1      -1.121  -0.543  -5.244  0.00  0.00    +0.007 A 
ATOM     20  C   UNL     1      -1.188   0.542  -4.390  0.00  0.00    -0.045 A 
ATOM     21  C   UNL     1      -2.509   0.943  -3.785  0.00  0.00    +0.044 C 
ATOM     22  C   UNL     1       0.164  -2.093  -6.731  0.00  0.00    +0.044 C 
ATOM     23  C   UNL     1       2.411   1.679  -4.329  0.00  0.00    +0.044 C 
ENDBRANCH  12  15
BRANCH   1  24
ATOM     24  S   UNL     1      -3.993   6.468   0.783  0.00  0.00    +0.072 S 
ATOM     25  O   UNL     1      -5.321   6.695   0.331  0.00  0.00    -0.150 OA
ATOM     26  O   UNL     1      -3.709   5.836   2.024  0.00  0.00    -0.150 OA
BRANCH  24  27
ATOM     27  N   UNL     1      -3.247   7.946   0.823  0.00  0.00    -0.216 N 
ATOM     28  H   UNL     1      -3.805   8.851   0.542  0.00  0.00    +0.174 HD
BRANCH  27  32
ATOM     29  C   UNL     1       0.746   8.235   1.984  0.00  0.00    +0.121 A 
ATOM     30  C   UNL     1       0.299   8.917   0.862  0.00  0.00    +0.047 A 
ATOM     31  C   UNL     1      -1.024   8.822   0.477  0.00  0.00    +0.028 A 
ATOM     32  C   UNL     1      -1.907   8.043   1.212  0.00  0.00    +0.048 A 
ATOM     33  C   UNL     1      -1.460   7.364   2.338  0.00  0.00    +0.028 A 
ATOM     34  C   UNL     1      -0.136   7.456   2.719  0.00  0.00    +0.047 A 
BRANCH  29  35
ATOM     35  O   UNL     1       2.048   8.330   2.363  0.00  0.00    -0.492 OA
BRANCH  35  37
ATOM     36  C   UNL     1       3.928   7.828   3.796  0.00  0.00    +0.048 C 
ATOM     37  C   UNL     1       2.439   7.600   3.528  0.00  0.00    +0.225 C 
ENDBRANCH  35  37
ENDBRANCH  29  35
ENDBRANCH  27  32
ENDBRANCH  24  27
ENDBRANCH   1  24
TORSDOF 6
