REMARK  Name = ZINC57495661
REMARK  6 active torsions:
REMARK  status: ('A' for Active; 'I' for Inactive)
REMARK    1  A    between atoms: C_1  and  C_2
REMARK    2  A    between atoms: C_2  and  C_3
REMARK    3  A    between atoms: C_3  and  C_22
REMARK    4  A    between atoms: N_6  and  C_10
REMARK    5  A    between atoms: C_10  and  C_11
REMARK    6  A    between atoms: N_13  and  C_14
REMARK                            x       y       z     vdW  Elec       q    Type
REMARK                         _______ _______ _______ _____ _____    ______ ____
ROOT
ATOM      1  C   UNL     1       2.772  -3.595  -1.237  0.00  0.00    +0.214 C 
ENDROOT
BRANCH   1   5
ATOM      2  C   UNL     1       0.749  -0.480  -1.255  0.00  0.00    +0.110 C 
ATOM      3  C   UNL     1       0.873  -1.991  -1.233  0.00  0.00    +0.247 C 
ATOM      4  O   UNL     1      -0.030  -2.800  -1.207  0.00  0.00    -0.273 OA
ATOM      5  N   UNL     1       2.196  -2.248  -1.250  0.00  0.00    -0.215 N 
ATOM      6  C   UNL     1       2.917  -1.122  -1.279  0.00  0.00    +0.310 C 
ATOM      7  O   UNL     1       4.132  -1.099  -1.299  0.00  0.00    -0.252 OA
ATOM      8  N   UNL     1       2.148  -0.019  -1.284  0.00  0.00    -0.285 N 
ATOM      9  C   UNL     1       0.003  -0.016  -2.508  0.00  0.00    +0.041 C 
ATOM     10  H   UNL     1       2.454   0.901  -1.304  0.00  0.00    +0.151 HD
BRANCH   2  12
ATOM     11  C   UNL     1       0.029   1.550   0.010  0.00  0.00    +0.006 C 
ATOM     12  C   UNL     1       0.043   0.020   0.006  0.00  0.00    +0.031 C 
ENDBRANCH   2  12
ENDBRANCH   1   5
BRANCH   1  13
ATOM     13  C   UNL     1       2.947  -4.080  -2.653  0.00  0.00    +0.235 C 
ATOM     14  O   UNL     1       2.623  -3.371  -3.582  0.00  0.00    -0.274 OA
ATOM     15  N   UNL     1       3.465  -5.303  -2.887  0.00  0.00    -0.282 N 
ATOM     16  H   UNL     1       3.784  -5.844  -2.148  0.00  0.00    +0.155 HD
BRANCH  15  17
ATOM     17  C   UNL     1       3.542  -5.791  -4.198  0.00  0.00    +0.069 A 
ATOM     18  C   UNL     1       3.794  -4.922  -5.250  0.00  0.00    +0.027 A 
ATOM     19  C   UNL     1       3.870  -5.406  -6.542  0.00  0.00    +0.022 A 
ATOM     20  C   UNL     1       3.694  -6.756  -6.788  0.00  0.00    +0.044 A 
ATOM     21  C   UNL     1       3.442  -7.626  -5.742  0.00  0.00    +0.060 A 
ATOM     22  C   UNL     1       3.371  -7.148  -4.447  0.00  0.00    +0.146 A 
ATOM     23  F   UNL     1       3.131  -7.998  -3.424  0.00  0.00    -0.203 F 
ATOM     24 CL   UNL     1       3.789  -7.360  -8.414  0.00  0.00    -0.083 Cl
ENDBRANCH  15  17
ENDBRANCH   1  13
TORSDOF 4
