REMARK  Name = ZINC32118601
REMARK  8 active torsions:
REMARK  status: ('A' for Active; 'I' for Inactive)
REMARK    1  A    between atoms: C_1  and  C_2
REMARK    2  A    between atoms: C_2  and  C_3
REMARK    3  A    between atoms: C_3  and  C_4
REMARK    4  A    between atoms: C_4  and  C_5
REMARK    5  A    between atoms: N_14  and  C_15
REMARK    6  A    between atoms: C_15  and  N_17
REMARK    7  A    between atoms: C_18  and  C_20
REMARK    8  A    between atoms: C_22  and  N_27
REMARK                            x       y       z     vdW  Elec       q    Type
REMARK                         _______ _______ _______ _____ _____    ______ ____
ROOT
ATOM      1  C   UNL     1      -0.320  10.536   1.615  0.00  0.00    +0.163 C 
ATOM      2  S   UNL     1      -1.736  10.008   0.809  0.00  0.00    -0.016 S 
ENDROOT
BRANCH   1  12
ATOM      3  C   UNL     1      -0.755   3.526   1.278  0.00  0.00    -0.046 A 
ATOM      4  C   UNL     1      -1.807   4.216   0.693  0.00  0.00    +0.006 A 
ATOM      5  C   UNL     1      -1.850   5.586   0.686  0.00  0.00    +0.027 A 
ATOM      6  C   UNL     1      -0.815   6.343   1.281  0.00  0.00    +0.055 A 
ATOM      7  C   UNL     1       0.239   5.607   1.868  0.00  0.00    +0.039 A 
ATOM      8  C   UNL     1       0.272   4.235   1.873  0.00  0.00    +0.020 A 
ATOM      9  S   UNL     1       1.301   6.892   2.484  0.00  0.00    -0.052 S 
ATOM     10  C   UNL     1       0.312   8.279   1.943  0.00  0.00    +0.163 A 
ATOM     11  N   UNL     1      -0.705   7.687   1.361  0.00  0.00    -0.335 N 
ATOM     12  N   UNL     1       0.556   9.633   2.098  0.00  0.00    -0.169 NA
ATOM     13  H   UNL     1      -1.486   8.330   0.928  0.00  0.00    +0.168 HD
BRANCH   3  14
ATOM     14  C   UNL     1      -0.735   2.019   1.269  0.00  0.00    +0.035 C 
BRANCH  14  15
ATOM     15  C   UNL     1      -0.019   1.526   0.010  0.00  0.00    +0.004 C 
BRANCH  15  17
ATOM     16  C   UNL     1       0.718  -0.497  -1.257  0.00  0.00    +0.004 C 
ATOM     17  C   UNL     1       0.002  -0.004   0.002  0.00  0.00    -0.003 C 
ENDBRANCH  15  17
ENDBRANCH  14  15
ENDBRANCH   3  14
ENDBRANCH   1  12
BRANCH   1  18
ATOM     18  N   UNL     1      -0.082  11.854   1.766  0.00  0.00    -0.262 N 
ATOM     19  C   UNL     1      -0.958  12.756   1.282  0.00  0.00    +0.251 C 
ATOM     20  O   UNL     1      -1.963  12.382   0.710  0.00  0.00    -0.270 OA
ATOM     21  H   UNL     1       0.827  12.192   2.283  0.00  0.00    +0.157 HD
BRANCH  19  22
ATOM     22  C   UNL     1      -0.697  14.200   1.448  0.00  0.00    +0.057 A 
ATOM     23  C   UNL     1       0.453  14.634   2.109  0.00  0.00    +0.047 A 
ATOM     24  C   UNL     1       0.694  15.984   2.256  0.00  0.00    +0.127 A 
ATOM     25  C   UNL     1      -0.208  16.910   1.758  0.00  0.00    +0.034 A 
ATOM     26  C   UNL     1      -1.353  16.488   1.106  0.00  0.00    +0.023 A 
ATOM     27  C   UNL     1      -1.604  15.139   0.948  0.00  0.00    +0.053 A 
ATOM     28 CL   UNL     1      -3.041  14.612   0.129  0.00  0.00    -0.083 Cl
BRANCH  24  29
ATOM     29  N   UNL     1       1.915  16.445   2.952  0.00  0.00    +0.056 N 
ATOM     30  O   UNL     1       2.127  17.637   3.087  0.00  0.00    -0.126 OA
ATOM     31  O   UNL     1       2.709  15.633   3.391  0.00  0.00    -0.126 OA
ENDBRANCH  24  29
ENDBRANCH  19  22
ENDBRANCH   1  18
TORSDOF 7
