REMARK  Name = ZINC37558629
REMARK  5 active torsions:
REMARK  status: ('A' for Active; 'I' for Inactive)
REMARK    1  A    between atoms: C_3  and  C_19
REMARK    2  A    between atoms: C_4  and  N_8
REMARK    3  A    between atoms: N_8  and  S_9
REMARK    4  A    between atoms: S_9  and  C_12
REMARK    5  A    between atoms: C_17  and  N_18
REMARK                            x       y       z     vdW  Elec       q    Type
REMARK                         _______ _______ _______ _____ _____    ______ ____
ROOT
ATOM      1  S   UNL     1       3.652  -2.300   0.078  0.00  0.00    +0.096 S 
ATOM      2  O   UNL     1       3.066  -2.630   1.330  0.00  0.00    -0.148 OA
ATOM      3  O   UNL     1       3.151  -2.802  -1.153  0.00  0.00    -0.148 OA
ENDROOT
BRANCH   1   4
ATOM      4  C   UNL     1       5.343  -2.785   0.171  0.00  0.00    +0.166 A 
ATOM      5  C   UNL     1       5.965  -3.399   1.261  0.00  0.00    +0.133 A 
ATOM      6  N   UNL     1       7.220  -3.606   0.956  0.00  0.00    -0.304 N 
ATOM      7  H   UNL     1       8.286  -3.157  -0.823  0.00  0.00    +0.188 HD
ATOM      8  N   UNL     1       7.443  -3.131  -0.342  0.00  0.00    -0.286 N 
ATOM      9  C   UNL     1       6.276  -2.634  -0.810  0.00  0.00    +0.137 A 
ATOM     10  H   UNL     1       7.883  -4.019   1.531  0.00  0.00    +0.186 HD
BRANCH   9  11
ATOM     11  N   UNL     1       6.066  -2.069  -2.065  0.00  0.00    -0.342 N 
ATOM     12  H   UNL     1       5.187  -1.738  -2.307  0.00  0.00    +0.144 HD
ATOM     13  H   UNL     1       6.798  -2.007  -2.697  0.00  0.00    +0.144 HD
ENDBRANCH   9  11
ENDBRANCH   1   4
BRANCH   1  14
ATOM     14  N   UNL     1       3.622  -0.648  -0.037  0.00  0.00    -0.096 NA
BRANCH  14  18
ATOM     15  C   UNL     1       0.033   1.411   0.444  0.00  0.00    +0.002 A 
ATOM     16  C   UNL     1       1.066   1.603   1.344  0.00  0.00    +0.014 A 
ATOM     17  C   UNL     1       2.257   0.922   1.187  0.00  0.00    +0.081 A 
ATOM     18  C   UNL     1       2.418   0.042   0.124  0.00  0.00    +0.104 A 
ATOM     19  C   UNL     1       1.378  -0.150  -0.778  0.00  0.00    +0.066 A 
ATOM     20  C   UNL     1       0.189   0.536  -0.615  0.00  0.00    +0.022 A 
ATOM     21 CL   UNL     1       1.573  -1.248  -2.108  0.00  0.00    -0.081 Cl
BRANCH  17  22
ATOM     22  C   UNL     1       3.382   1.134   2.167  0.00  0.00    +0.419 C 
ATOM     23  F   UNL     1       2.985   2.058   3.140  0.00  0.00    -0.166 F 
ATOM     24  F   UNL     1       3.700  -0.082   2.782  0.00  0.00    -0.166 F 
ATOM     25  F   UNL     1       4.505   1.623   1.491  0.00  0.00    -0.166 F 
ENDBRANCH  17  22
ENDBRANCH  14  18
ENDBRANCH   1  14
TORSDOF 5
