REMARK  Name = ZINC17188825
REMARK  11 active torsions:
REMARK  status: ('A' for Active; 'I' for Inactive)
REMARK    1  A    between atoms: C_1  and  C_2
REMARK    2  A    between atoms: C_2  and  C_3
REMARK    3  A    between atoms: C_3  and  C_5
REMARK    4  A    between atoms: C_3  and  C_6
REMARK    5  A    between atoms: C_6  and  C_7
REMARK    6  A    between atoms: C_8  and  C_33
REMARK    7  A    between atoms: C_16  and  S_18
REMARK    8  A    between atoms: S_18  and  C_19
REMARK    9  A    between atoms: C_19  and  C_20
REMARK   10  A    between atoms: N_22  and  N_23
REMARK   11  A    between atoms: C_24  and  C_26
REMARK                            x       y       z     vdW  Elec       q    Type
REMARK                         _______ _______ _______ _____ _____    ______ ____
ROOT
ATOM      1  C   UNL     1       9.458   4.647  -0.064  0.00  0.00    -0.023 A 
ATOM      2  C   UNL     1       9.011   5.912  -0.054  0.00  0.00    -0.007 A 
ATOM      3  S   UNL     1       7.239   5.725  -0.037  0.00  0.00    -0.073 S 
ATOM      4  C   UNL     1       7.148   3.953  -0.045  0.00  0.00    +0.117 A 
ATOM      5  C   UNL     1       8.499   3.556  -0.060  0.00  0.00    +0.075 A 
ATOM      6  C   UNL     1       8.733   2.145  -0.070  0.00  0.00    +0.261 A 
ATOM      7  O   UNL     1       9.871   1.708  -0.083  0.00  0.00    -0.267 OA
ATOM      8  N   UNL     1       7.681   1.306  -0.059  0.00  0.00    -0.301 N 
ATOM      9  H   UNL     1       7.835   0.348  -0.061  0.00  0.00    +0.171 HD
ATOM     10  C   UNL     1       6.400   1.777  -0.050  0.00  0.00    +0.170 A 
ATOM     11  N   UNL     1       6.155   3.072  -0.040  0.00  0.00    -0.216 NA
ATOM     12  C   UNL     1       9.816   7.186  -0.055  0.00  0.00    +0.052 C 
ENDROOT
BRANCH   1  13
ATOM     13  C   UNL     1      10.937   4.362  -0.080  0.00  0.00    +0.040 C 
BRANCH  13  14
ATOM     14  C   UNL     1      11.453   4.258   1.357  0.00  0.00    -0.010 C 
ATOM     15  C   UNL     1      11.310   5.614   2.049  0.00  0.00    +0.008 C 
BRANCH  14  17
ATOM     16  C   UNL     1      13.407   3.620   2.776  0.00  0.00    +0.004 C 
ATOM     17  C   UNL     1      12.926   3.845   1.341  0.00  0.00    +0.000 C 
ENDBRANCH  14  17
ENDBRANCH  13  14
ENDBRANCH   1  13
BRANCH  10  18
ATOM     18  S   UNL     1       5.055   0.639  -0.043  0.00  0.00    -0.078 S 
BRANCH  18  19
ATOM     19  C   UNL     1       3.663   1.796  -0.023  0.00  0.00    +0.174 C 
BRANCH  19  20
ATOM     20  C   UNL     1       2.369   1.025  -0.015  0.00  0.00    +0.239 C 
ATOM     21  O   UNL     1       2.385  -0.188  -0.022  0.00  0.00    -0.273 OA
ATOM     22  N   UNL     1       1.193   1.683  -0.000  0.00  0.00    -0.233 N 
ATOM     23  H   UNL     1       1.179   2.653   0.005  0.00  0.00    +0.173 HD
BRANCH  22  24
ATOM     24  N   UNL     1      -0.011   0.966   0.007  0.00  0.00    -0.230 N 
ATOM     25  C   UNL     1      -1.187   1.624   0.017  0.00  0.00    +0.263 C 
ATOM     26  O   UNL     1      -1.204   2.839   0.023  0.00  0.00    -0.269 OA
ATOM     27  H   UNL     1       0.002  -0.004   0.002  0.00  0.00    +0.173 HD
BRANCH  25  28
ATOM     28  C   UNL     1      -2.456   0.868   0.018  0.00  0.00    +0.073 A 
ATOM     29  C   UNL     1      -2.441  -0.528   0.005  0.00  0.00    +0.016 A 
ATOM     30  C   UNL     1      -3.629  -1.228   0.012  0.00  0.00    +0.001 A 
ATOM     31  C   UNL     1      -4.837  -0.551   0.022  0.00  0.00    +0.003 A 
ATOM     32  C   UNL     1      -4.862   0.831   0.030  0.00  0.00    +0.039 A 
ATOM     33  C   UNL     1      -3.678   1.547   0.028  0.00  0.00    +0.136 A 
ATOM     34  F   UNL     1      -3.703   2.898   0.035  0.00  0.00    -0.205 F 
ENDBRANCH  25  28
ENDBRANCH  22  24
ENDBRANCH  19  20
ENDBRANCH  18  19
ENDBRANCH  10  18
TORSDOF 8
