REMARK  Name = ZINC31046555
REMARK  8 active torsions:
REMARK  status: ('A' for Active; 'I' for Inactive)
REMARK    1  A    between atoms: C_1  and  C_2
REMARK    2  A    between atoms: C_5  and  C_8
REMARK    3  A    between atoms: C_8  and  C_10
REMARK    4  A    between atoms: C_8  and  N_11
REMARK    5  A    between atoms: C_12  and  C_14
REMARK    6  A    between atoms: N_19  and  C_21
REMARK    7  A    between atoms: C_21  and  C_22
REMARK    8  A    between atoms: C_24  and  C_27
REMARK                            x       y       z     vdW  Elec       q    Type
REMARK                         _______ _______ _______ _____ _____    ______ ____
ROOT
ATOM      1  C   UNL     1       7.193   7.034   2.857  0.00  0.00    +0.058 C 
ATOM      2  C   UNL     1       5.898   7.291   3.631  0.00  0.00    +0.009 C 
ATOM      3  C   UNL     1       4.997   6.057   3.529  0.00  0.00    -0.018 C 
ATOM      4  C   UNL     1       4.723   5.752   2.055  0.00  0.00    -0.078 C 
ATOM      5  N   UNL     1       5.993   5.513   1.358  0.00  0.00    +0.386 N 
ATOM      6  C   UNL     1       6.855   6.701   1.402  0.00  0.00    -0.065 C 
ATOM      7  H   UNL     1       6.516   4.700   1.883  0.00  0.00    -0.081 HD
ENDROOT
BRANCH   1   9
ATOM      8  N   UNL     1       8.484   8.748   4.088  0.00  0.00    -0.309 N 
ATOM      9  C   UNL     1       8.060   8.266   2.902  0.00  0.00    +0.215 C 
ATOM     10  O   UNL     1       8.376   8.823   1.873  0.00  0.00    -0.276 OA
ATOM     11  H   UNL     1       8.197   8.243   5.021  0.00  0.00    +0.149 HD
BRANCH   8  12
ATOM     12  C   UNL     1       9.326   9.946   4.132  0.00  0.00    +0.100 C 
ATOM     13  C   UNL     1      10.790   9.547   3.937  0.00  0.00    +0.033 C 
BRANCH  12  18
ATOM     14  C   UNL     1       8.705  12.549   9.254  0.00  0.00    +0.044 C 
ATOM     15  C   UNL     1       8.866  11.870   7.918  0.00  0.00    -0.050 A 
ATOM     16  C   UNL     1       8.955  12.627   6.764  0.00  0.00    +0.004 A 
ATOM     17  C   UNL     1       9.104  12.004   5.539  0.00  0.00    +0.006 A 
ATOM     18  C   UNL     1       9.164  10.625   5.468  0.00  0.00    -0.027 A 
ATOM     19  C   UNL     1       9.070   9.868   6.621  0.00  0.00    +0.006 A 
ATOM     20  C   UNL     1       8.927  10.491   7.846  0.00  0.00    +0.004 A 
ENDBRANCH  12  18
ENDBRANCH   8  12
ENDBRANCH   1   9
BRANCH   5  21
ATOM     21  C   UNL     1       5.761   5.082  -0.027  0.00  0.00    +0.022 C 
BRANCH  21  22
ATOM     22  C   UNL     1       5.086   3.735  -0.027  0.00  0.00    +0.211 A 
ATOM     23  N   UNL     1       3.795   3.511  -0.016  0.00  0.00    -0.193 NA
ATOM     24  C   UNL     1       3.660   2.165  -0.022  0.00  0.00    +0.202 A 
ATOM     25  N   UNL     1       4.864   1.656  -0.031  0.00  0.00    -0.056 NA
ATOM     26  O   UNL     1       5.692   2.543  -0.040  0.00  0.00    -0.340 OA
BRANCH  24  27
ATOM     27  C   UNL     1       2.384   1.408  -0.013  0.00  0.00    +0.023 A 
ATOM     28  C   UNL     1       1.167   2.089   0.002  0.00  0.00    +0.013 A 
ATOM     29  C   UNL     1      -0.017   1.380   0.010  0.00  0.00    +0.021 A 
ATOM     30  C   UNL     1       0.002  -0.004   0.002  0.00  0.00    +0.041 A 
ATOM     31  C   UNL     1       1.208  -0.684  -0.013  0.00  0.00    +0.021 A 
ATOM     32  C   UNL     1       2.397   0.015  -0.021  0.00  0.00    +0.013 A 
ATOM     33 CL   UNL     1      -1.491  -0.890   0.012  0.00  0.00    -0.084 Cl
ENDBRANCH  24  27
ENDBRANCH  21  22
ENDBRANCH   5  21
TORSDOF 6
