REMARK  Name = ZINC08623306
REMARK  6 active torsions:
REMARK  status: ('A' for Active; 'I' for Inactive)
REMARK    1  A    between atoms: C_6  and  S_7
REMARK    2  A    between atoms: S_7  and  N_10
REMARK    3  A    between atoms: N_10  and  C_11
REMARK    4  A    between atoms: C_11  and  C_12
REMARK    5  A    between atoms: C_20  and  C_22
REMARK    6  A    between atoms: C_22  and  N_56
REMARK                            x       y       z     vdW  Elec       q    Type
REMARK                         _______ _______ _______ _____ _____    ______ ____
ROOT
ATOM      1  C   UNL     1       1.781   3.199  -2.147  0.00  0.00    -0.053 C 
ATOM      2  C   UNL     1       1.842   1.669  -2.183  0.00  0.00    -0.011 C 
ATOM      3  C   UNL     1       0.435   1.123  -2.455  0.00  0.00    -0.015 C 
ATOM      4  C   UNL     1      -0.059   1.687  -3.793  0.00  0.00    -0.015 C 
ATOM      5  C   UNL     1      -0.067   3.216  -3.713  0.00  0.00    -0.078 C 
ATOM      6  C   UNL     1      -0.499   3.142  -1.330  0.00  0.00    -0.077 C 
ATOM      7  C   UNL     1      -0.503   1.611  -1.343  0.00  0.00    -0.041 C 
ATOM      8  N   UNL     1       0.398   3.665  -2.383  0.00  0.00    +0.383 N 
ATOM      9  H   UNL     1       0.383   4.692  -2.354  0.00  0.00    -0.081 HD
ENDROOT
BRANCH   1  10
ATOM     10  C   UNL     1       2.248   3.696  -0.778  0.00  0.00    +0.090 C 
BRANCH  10  11
ATOM     11  N   UNL     1       2.076   5.149  -0.702  0.00  0.00    -0.191 NA
ATOM     12  H   UNL     1       1.925   5.663  -1.511  0.00  0.00    +0.148 HD
BRANCH  11  13
ATOM     13  S   UNL     1       2.142   5.916   0.764  0.00  0.00    +0.058 S 
ATOM     14  O   UNL     1       1.970   7.302   0.506  0.00  0.00    -0.153 OA
ATOM     15  O   UNL     1       1.288   5.192   1.639  0.00  0.00    -0.153 OA
BRANCH  13  21
ATOM     16  C   UNL     1       4.093   4.629   2.175  0.00  0.00    +0.030 A 
ATOM     17  C   UNL     1       5.379   4.470   2.655  0.00  0.00    +0.022 A 
ATOM     18  C   UNL     1       6.351   5.407   2.353  0.00  0.00    +0.041 A 
ATOM     19  C   UNL     1       6.036   6.500   1.565  0.00  0.00    +0.022 A 
ATOM     20  C   UNL     1       4.751   6.655   1.080  0.00  0.00    +0.030 A 
ATOM     21  C   UNL     1       3.780   5.718   1.383  0.00  0.00    +0.105 A 
ATOM     22 CL   UNL     1       7.965   5.212   2.961  0.00  0.00    -0.084 Cl
ENDBRANCH  13  21
ENDBRANCH  11  13
ENDBRANCH  10  11
ENDBRANCH   1  10
BRANCH   7  23
ATOM     23  C   UNL     1      -0.013   1.086   0.008  0.00  0.00    -0.077 C 
BRANCH  23  29
ATOM     24  C   UNL     1      -1.478  -0.837   0.045  0.00  0.00    -0.068 C 
ATOM     25  C   UNL     1      -1.554  -2.302  -0.400  0.00  0.00    +0.050 C 
ATOM     26  S   UNL     1      -0.589  -3.307   0.770  0.00  0.00    -0.164 S 
ATOM     27  C   UNL     1       0.998  -2.420   0.846  0.00  0.00    +0.050 C 
ATOM     28  C   UNL     1       0.710  -0.939   1.115  0.00  0.00    -0.068 C 
ATOM     29  N   UNL     1      -0.068  -0.386  -0.017  0.00  0.00    +0.381 N 
ATOM     30  H   UNL     1       0.346  -0.720  -0.895  0.00  0.00    -0.082 HD
ENDBRANCH  23  29
ENDBRANCH   7  23
TORSDOF 6
