REMARK  Name = ZINC01089301
REMARK  6 active torsions:
REMARK  status: ('A' for Active; 'I' for Inactive)
REMARK    1  A    between atoms: C_6  and  C_7
REMARK    2  A    between atoms: C_7  and  N_8
REMARK    3  A    between atoms: C_11  and  C_13
REMARK    4  A    between atoms: N_15  and  N_16
REMARK    5  A    between atoms: C_17  and  C_18
REMARK    6  A    between atoms: C_21  and  O_24
REMARK                            x       y       z     vdW  Elec       q    Type
REMARK                         _______ _______ _______ _____ _____    ______ ____
ROOT
ATOM      1  C   UNL     1       1.147   1.655   0.000  0.00  0.00    +0.283 C 
ATOM      2  O   UNL     1       1.130   2.872   0.007  0.00  0.00    -0.267 OA
ATOM      3  N   UNL     1      -0.011   0.966   0.007  0.00  0.00    -0.202 N 
ATOM      4  H   UNL     1       0.002  -0.004   0.002  0.00  0.00    +0.178 HD
ENDROOT
BRANCH   1   8
ATOM      5  N   UNL     1       3.856  -0.657  -0.039  0.00  0.00    -0.266 N 
ATOM      6  C   UNL     1       4.591   0.476  -0.039  0.00  0.00    +0.109 A 
ATOM      7  C   UNL     1       3.726   1.516  -0.031  0.00  0.00    +0.054 A 
ATOM      8  C   UNL     1       2.436   0.935  -0.016  0.00  0.00    +0.149 A 
ATOM      9  N   UNL     1       2.603  -0.373  -0.025  0.00  0.00    -0.166 NA
BRANCH   5  10
ATOM     10  C   UNL     1       4.407  -2.014  -0.051  0.00  0.00    +0.178 C 
BRANCH  10  16
ATOM     11  C   UNL     1       4.515  -2.790   2.326  0.00  0.00    +0.006 A 
ATOM     12  C   UNL     1       4.003  -3.500   3.395  0.00  0.00    +0.015 A 
ATOM     13  C   UNL     1       2.833  -4.223   3.249  0.00  0.00    +0.018 A 
ATOM     14  C   UNL     1       2.172  -4.230   2.033  0.00  0.00    +0.015 A 
ATOM     15  C   UNL     1       2.682  -3.515   0.966  0.00  0.00    +0.006 A 
ATOM     16  C   UNL     1       3.852  -2.793   1.113  0.00  0.00    -0.026 A 
ATOM     17 BR   UNL     1       2.136  -5.201   4.710  0.00  0.00    -0.050 Br
ENDBRANCH  10  16
ENDBRANCH   5  10
ENDBRANCH   1   8
BRANCH   3  18
ATOM     18  N   UNL     1      -1.234   1.650   0.017  0.00  0.00    -0.187 NA
ATOM     19  C   UNL     1      -2.349   0.986   0.018  0.00  0.00    +0.138 C 
BRANCH  19  20
ATOM     20  C   UNL     1      -3.635   1.705   0.029  0.00  0.00    -0.005 A 
ATOM     21  C   UNL     1      -3.657   3.102   0.042  0.00  0.00    +0.013 A 
ATOM     22  C   UNL     1      -4.862   3.771   0.047  0.00  0.00    +0.046 A 
ATOM     23  C   UNL     1      -6.054   3.058   0.049  0.00  0.00    +0.117 A 
ATOM     24  C   UNL     1      -6.038   1.669   0.040  0.00  0.00    +0.046 A 
ATOM     25  C   UNL     1      -4.837   0.992   0.030  0.00  0.00    +0.013 A 
BRANCH  23  26
ATOM     26  O   UNL     1      -7.240   3.721   0.059  0.00  0.00    -0.507 OA
ATOM     27  H   UNL     1      -7.578   3.908   0.946  0.00  0.00    +0.292 HD
ENDBRANCH  23  26
ENDBRANCH  19  20
ENDBRANCH   3  18
TORSDOF 6
