REMARK  Name = ZINC32704047
REMARK  9 active torsions:
REMARK  status: ('A' for Active; 'I' for Inactive)
REMARK    1  A    between atoms: C_6  and  C_7
REMARK    2  A    between atoms: C_7  and  N_8
REMARK    3  A    between atoms: N_11  and  C_14
REMARK    4  A    between atoms: C_14  and  C_15
REMARK    5  A    between atoms: C_15  and  C_17
REMARK    6  A    between atoms: C_15  and  O_35
REMARK    7  A    between atoms: C_17  and  O_18
REMARK    8  A    between atoms: O_18  and  C_19
REMARK    9  A    between atoms: C_22  and  C_25
REMARK                            x       y       z     vdW  Elec       q    Type
REMARK                         _______ _______ _______ _____ _____    ______ ____
ROOT
ATOM      1  C   UNL     1      -0.532   6.030  -2.062  0.00  0.00    +0.166 C 
ENDROOT
BRANCH   1   2
ATOM      2  O   UNL     1      -0.162   5.566  -3.361  0.00  0.00    -0.387 OA
ATOM      3  H   UNL     1      -0.777   5.828  -4.235  0.00  0.00    +0.210 HD
ENDBRANCH   1   2
BRANCH   1   4
ATOM      4  C   UNL     1       0.483   5.528  -1.033  0.00  0.00    +0.119 C 
BRANCH   4   8
ATOM      5  N   UNL     1      -0.018   1.465   0.010  0.00  0.00    +0.384 N 
ATOM      6  C   UNL     1      -0.799   1.987  -1.120  0.00  0.00    -0.063 C 
ATOM      7  C   UNL     1      -0.862   3.514  -1.031  0.00  0.00    +0.066 C 
ATOM      8  N   UNL     1       0.503   4.059  -1.041  0.00  0.00    -0.303 NA
ATOM      9  C   UNL     1       1.284   3.537   0.089  0.00  0.00    +0.066 C 
ATOM     10  C   UNL     1       1.347   2.010   0.000  0.00  0.00    -0.063 C 
ATOM     11  H   UNL     1      -0.507   1.790   0.940  0.00  0.00    -0.081 HD
BRANCH   5  12
ATOM     12  C   UNL     1       0.002  -0.004   0.002  0.00  0.00    -0.043 C 
BRANCH  12  18
ATOM     13  C   UNL     1      -1.804  -0.775   1.554  0.00  0.00    +0.003 A 
ATOM     14  C   UNL     1      -3.080  -1.249   1.791  0.00  0.00    +0.020 A 
ATOM     15  C   UNL     1      -3.938  -1.486   0.731  0.00  0.00    +0.041 A 
ATOM     16  C   UNL     1      -3.519  -1.242  -0.565  0.00  0.00    +0.020 A 
ATOM     17  C   UNL     1      -2.244  -0.763  -0.800  0.00  0.00    +0.003 A 
ATOM     18  C   UNL     1      -1.388  -0.527   0.259  0.00  0.00    -0.064 A 
ATOM     19 CL   UNL     1      -5.539  -2.087   1.028  0.00  0.00    -0.084 Cl
ENDBRANCH  12  18
ENDBRANCH   5  12
ENDBRANCH   4   8
ENDBRANCH   1   4
BRANCH   1  20
ATOM     20  C   UNL     1      -0.553   7.560  -2.053  0.00  0.00    +0.261 C 
BRANCH  20  21
ATOM     21  O   UNL     1      -1.581   8.027  -2.928  0.00  0.00    -0.489 OA
BRANCH  21  22
ATOM     22  C   UNL     1      -1.735   9.373  -3.037  0.00  0.00    +0.121 A 
ATOM     23  C   UNL     1      -0.916  10.226  -2.312  0.00  0.00    +0.046 A 
ATOM     24  C   UNL     1      -1.070  11.594  -2.428  0.00  0.00    +0.008 A 
ATOM     25  C   UNL     1      -2.047  12.113  -3.258  0.00  0.00    -0.041 A 
ATOM     26  C   UNL     1      -2.868  11.264  -3.978  0.00  0.00    +0.008 A 
ATOM     27  C   UNL     1      -2.714   9.896  -3.869  0.00  0.00    +0.046 A 
BRANCH  25  28
ATOM     28  C   UNL     1      -2.217  13.605  -3.378  0.00  0.00    -0.003 C 
ATOM     29  C   UNL     1      -3.629  13.995  -2.938  0.00  0.00    +0.015 C 
ATOM     30  C   UNL     1      -3.802  15.510  -3.060  0.00  0.00    -0.010 C 
ATOM     31  C   UNL     1      -2.777  16.214  -2.168  0.00  0.00    +0.007 C 
ATOM     32  C   UNL     1      -1.365  15.824  -2.609  0.00  0.00    -0.010 C 
ATOM     33  C   UNL     1      -1.192  14.309  -2.486  0.00  0.00    +0.015 C 
ATOM     34  C   UNL     1      -1.150  16.246  -4.064  0.00  0.00    +0.007 C 
ATOM     35  C   UNL     1      -2.174  15.543  -4.956  0.00  0.00    -0.010 C 
ATOM     36  C   UNL     1      -3.587  15.932  -4.515  0.00  0.00    +0.007 C 
ATOM     37  C   UNL     1      -2.002  14.027  -4.833  0.00  0.00    +0.015 C 
ENDBRANCH  25  28
ENDBRANCH  21  22
ENDBRANCH  20  21
ENDBRANCH   1  20
TORSDOF 9
