REMARK  Name = ZINC19125614
REMARK  7 active torsions:
REMARK  status: ('A' for Active; 'I' for Inactive)
REMARK    1  A    between atoms: C_1  and  C_2
REMARK    2  A    between atoms: C_9  and  O_33
REMARK    3  A    between atoms: C_18  and  C_19
REMARK    4  A    between atoms: C_18  and  N_60
REMARK    5  A    between atoms: C_19  and  C_21
REMARK    6  A    between atoms: C_19  and  O_32
REMARK    7  A    between atoms: C_22  and  C_31
REMARK                            x       y       z     vdW  Elec       q    Type
REMARK                         _______ _______ _______ _____ _____    ______ ____
ROOT
ATOM      1  C   UNL     1      -2.022  -3.817   6.376  0.00  0.00    +0.045 C 
ATOM      2  C   UNL     1      -2.202  -2.327   6.239  0.00  0.00    -0.029 A 
ATOM      3  C   UNL     1      -2.375  -1.764   4.990  0.00  0.00    +0.050 A 
ATOM      4  C   UNL     1      -2.542  -0.389   4.859  0.00  0.00    +0.127 A 
ATOM      5  C   UNL     1      -2.530   0.414   5.986  0.00  0.00    +0.024 A 
ATOM      6  C   UNL     1      -2.359  -0.155   7.236  0.00  0.00    +0.030 A 
ATOM      7  C   UNL     1      -2.195  -1.522   7.364  0.00  0.00    +0.044 A 
ATOM      8 CL   UNL     1      -1.980  -2.228   8.935  0.00  0.00    -0.083 Cl
ATOM      9  C   UNL     1      -2.696   1.909   5.886  0.00  0.00    +0.152 C 
ATOM     10  C   UNL     1      -3.304   2.271   4.529  0.00  0.00    +0.084 C 
ATOM     11  C   UNL     1      -2.526   1.529   3.437  0.00  0.00    +0.110 C 
ATOM     12  O   UNL     1      -2.714   0.126   3.613  0.00  0.00    -0.485 OA
ATOM     13  C   UNL     1      -1.040   1.871   3.545  0.00  0.00    +0.029 C 
ATOM     14  C   UNL     1      -0.277   1.178   2.413  0.00  0.00    -0.075 C 
ATOM     15  C   UNL     1      -2.226   1.257   0.974  0.00  0.00    -0.075 C 
ATOM     16  C   UNL     1      -3.047   1.952   2.062  0.00  0.00    +0.029 C 
ATOM     17  N   UNL     1      -0.809   1.652   1.117  0.00  0.00    +0.382 N 
ATOM     18  H   UNL     1      -0.744   2.676   1.084  0.00  0.00    -0.082 HD
ENDROOT
BRANCH   9  19
ATOM     19  O   UNL     1      -3.559   2.363   6.930  0.00  0.00    -0.387 OA
ATOM     20  H   UNL     1      -3.234   2.170   7.821  0.00  0.00    +0.210 HD
ENDBRANCH   9  19
BRANCH  17  21
ATOM     21  C   UNL     1      -0.013   1.086   0.008  0.00  0.00    -0.042 C 
BRANCH  21  22
ATOM     22  C   UNL     1       1.391   1.694   0.049  0.00  0.00    +0.130 C 
BRANCH  22  23
ATOM     23  C   UNL     1       2.206   1.153  -1.097  0.00  0.00    +0.007 A 
ATOM     24  C   UNL     1       2.092   1.496  -2.390  0.00  0.00    +0.019 A 
ATOM     25  N   UNL     1       3.001   0.800  -3.140  0.00  0.00    -0.358 N 
ATOM     26  H   UNL     1       3.110   0.881  -4.100  0.00  0.00    +0.166 HD
ATOM     27  C   UNL     1       3.734  -0.036  -2.328  0.00  0.00    +0.047 A 
ATOM     28  C   UNL     1       3.269   0.148  -1.013  0.00  0.00    +0.005 A 
ATOM     29  C   UNL     1       3.836  -0.579   0.035  0.00  0.00    +0.010 A 
ATOM     30  C   UNL     1       4.842  -1.467  -0.222  0.00  0.00    +0.001 A 
ATOM     31  C   UNL     1       5.305  -1.653  -1.518  0.00  0.00    +0.002 A 
ATOM     32  C   UNL     1       4.759  -0.946  -2.567  0.00  0.00    +0.026 A 
ATOM     33  C   UNL     1       1.111   2.503  -2.935  0.00  0.00    +0.063 C 
ENDBRANCH  22  23
BRANCH  22  34
ATOM     34  O   UNL     1       1.298   3.115  -0.062  0.00  0.00    -0.389 OA
ATOM     35  H   UNL     1       0.879   3.420  -0.878  0.00  0.00    +0.210 HD
ENDBRANCH  22  34
ENDBRANCH  21  22
ENDBRANCH  17  21
TORSDOF 5
