REMARK  Name = ZINC03995744
REMARK  6 active torsions:
REMARK  status: ('A' for Active; 'I' for Inactive)
REMARK    1  A    between atoms: C_6  and  C_7
REMARK    2  A    between atoms: C_8  and  C_9
REMARK    3  A    between atoms: N_11  and  C_12
REMARK    4  A    between atoms: N_22  and  C_34
REMARK    5  A    between atoms: C_29  and  O_32
REMARK    6  A    between atoms: C_34  and  C_35
REMARK                            x       y       z     vdW  Elec       q    Type
REMARK                         _______ _______ _______ _____ _____    ______ ____
ROOT
ATOM      1  C   UNL     1      -3.649  -4.823   0.018  0.00  0.00    +0.037 C 
ATOM      2  C   UNL     1      -4.404  -4.297  -1.202  0.00  0.00    +0.033 C 
ATOM      3  C   UNL     1      -3.577  -4.593  -2.454  0.00  0.00    +0.080 C 
ATOM      4  C   UNL     1      -3.306  -6.064  -2.553  0.00  0.00    +0.174 C 
ATOM      5  O   UNL     1      -3.368  -6.589  -3.639  0.00  0.00    -0.293 OA
ATOM      6  C   UNL     1      -2.961  -6.915  -1.366  0.00  0.00    +0.252 C 
ATOM      7  C   UNL     1      -3.493  -6.333  -0.071  0.00  0.00    +0.061 C 
ATOM      8  C   UNL     1      -2.726  -6.849   1.145  0.00  0.00    -0.001 C 
ATOM      9  C   UNL     1      -3.504  -6.453   2.406  0.00  0.00    -0.077 C 
ATOM     10  N   UNL     1      -3.670  -4.998   2.458  0.00  0.00    +0.383 N 
ATOM     11  C   UNL     1      -4.428  -4.515   1.299  0.00  0.00    -0.039 C 
ATOM     12  C   UNL     1      -5.843  -5.067   1.318  0.00  0.00    +0.022 C 
ATOM     13  C   UNL     1      -5.989  -6.355   0.575  0.00  0.00    -0.041 A 
ATOM     14  C   UNL     1      -4.894  -6.893  -0.061  0.00  0.00    +0.013 A 
ATOM     15  C   UNL     1      -4.912  -7.995  -0.903  0.00  0.00    +0.167 A 
ATOM     16  C   UNL     1      -6.112  -8.705  -1.026  0.00  0.00    +0.159 A 
ATOM     17  C   UNL     1      -7.209  -8.221  -0.317  0.00  0.00    +0.049 A 
ATOM     18  C   UNL     1      -7.166  -7.073   0.458  0.00  0.00    +0.007 A 
ATOM     19  O   UNL     1      -3.720  -8.156  -1.488  0.00  0.00    -0.476 OA
ATOM     20  H   UNL     1      -2.760  -4.560   2.465  0.00  0.00    -0.081 HD
ENDROOT
BRANCH   1  23
ATOM     21  C   UNL     1      -2.220  -2.855   0.169  0.00  0.00    +0.237 C 
ATOM     22  O   UNL     1      -3.223  -2.165   0.189  0.00  0.00    -0.271 OA
ATOM     23  N   UNL     1      -2.327  -4.196   0.085  0.00  0.00    -0.307 N 
ATOM     24  H   UNL     1      -1.528  -4.746   0.068  0.00  0.00    +0.150 HD
BRANCH  21  26
ATOM     25  C   UNL     1      -0.793  -0.887   0.320  0.00  0.00    +0.013 C 
ATOM     26  C   UNL     1      -0.899  -2.228   0.235  0.00  0.00    +0.068 C 
BRANCH  25  32
ATOM     27  C   UNL     1       0.650   1.135   0.474  0.00  0.00    +0.009 A 
ATOM     28  C   UNL     1       1.897   1.718   0.537  0.00  0.00    +0.020 A 
ATOM     29  C   UNL     1       3.036   0.929   0.514  0.00  0.00    +0.041 A 
ATOM     30  C   UNL     1       2.930  -0.450   0.428  0.00  0.00    +0.020 A 
ATOM     31  C   UNL     1       1.690  -1.046   0.363  0.00  0.00    +0.009 A 
ATOM     32  C   UNL     1       0.535  -0.257   0.387  0.00  0.00    -0.025 A 
ATOM     33 CL   UNL     1       4.603   1.672   0.593  0.00  0.00    -0.084 Cl
ENDBRANCH  25  32
ENDBRANCH  21  26
ENDBRANCH   1  23
BRANCH  16  34
ATOM     34  O   UNL     1      -6.204  -9.818  -1.803  0.00  0.00    -0.503 OA
ATOM     35  H   UNL     1      -6.004 -10.641  -1.336  0.00  0.00    +0.292 HD
ENDBRANCH  16  34
BRANCH  10  36
ATOM     36  C   UNL     1      -4.386  -4.637   3.688  0.00  0.00    -0.075 C 
BRANCH  36  37
ATOM     37  C   UNL     1      -3.510  -4.956   4.902  0.00  0.00    -0.028 C 
ATOM     38  C   UNL     1      -4.017  -6.019   5.878  0.00  0.00    +0.002 C 
ATOM     39  C   UNL     1      -4.033  -4.543   6.279  0.00  0.00    +0.002 C 
ENDBRANCH  36  37
ENDBRANCH  10  36
TORSDOF 6
