REMARK  Name = ZINC20426734
REMARK  12 active torsions:
REMARK  status: ('A' for Active; 'I' for Inactive)
REMARK    1  A    between atoms: C_1  and  C_2
REMARK    2  A    between atoms: C_5  and  N_8
REMARK    3  A    between atoms: N_8  and  S_9
REMARK    4  A    between atoms: S_9  and  C_12
REMARK    5  A    between atoms: C_15  and  N_18
REMARK    6  A    between atoms: C_19  and  C_21
REMARK    7  A    between atoms: C_21  and  S_22
REMARK    8  A    between atoms: S_22  and  C_23
REMARK    9  A    between atoms: C_26  and  C_34
REMARK   10  A    between atoms: N_27  and  C_28
REMARK   11  A    between atoms: C_34  and  O_35
REMARK   12  A    between atoms: O_35  and  C_36
REMARK                            x       y       z     vdW  Elec       q    Type
REMARK                         _______ _______ _______ _____ _____    ______ ____
ROOT
ATOM      1  N   UNL     1       1.662  -2.038   5.560  0.00  0.00    -0.285 N 
ATOM      2  C   UNL     1       2.969  -2.244   5.813  0.00  0.00    +0.227 C 
ATOM      3  O   UNL     1       3.803  -1.936   4.987  0.00  0.00    -0.275 OA
ATOM      4  H   UNL     1       0.912  -2.237   6.340  0.00  0.00    +0.155 HD
ENDROOT
BRANCH   1   8
ATOM      5  C   UNL     1       0.456  -0.653   1.820  0.00  0.00    +0.109 A 
ATOM      6  C   UNL     1      -0.241  -0.276   2.953  0.00  0.00    +0.030 A 
ATOM      7  C   UNL     1       0.153  -0.737   4.194  0.00  0.00    +0.025 A 
ATOM      8  C   UNL     1       1.257  -1.573   4.304  0.00  0.00    +0.034 A 
ATOM      9  C   UNL     1       1.958  -1.946   3.164  0.00  0.00    +0.025 A 
ATOM     10  C   UNL     1       1.555  -1.485   1.926  0.00  0.00    +0.030 A 
BRANCH   5  11
ATOM     11  S   UNL     1      -0.054  -0.068   0.238  0.00  0.00    +0.072 S 
ATOM     12  O   UNL     1       1.054  -0.237  -0.634  0.00  0.00    -0.150 OA
ATOM     13  O   UNL     1      -0.669   1.195   0.452  0.00  0.00    -0.150 OA
BRANCH  11  14
ATOM     14  N   UNL     1      -1.242  -1.087  -0.301  0.00  0.00    -0.216 N 
ATOM     15  H   UNL     1      -2.258  -0.704  -0.476  0.00  0.00    +0.174 HD
BRANCH  14  20
ATOM     16  C   UNL     1      -0.071  -6.554  -1.253  0.00  0.00    +0.044 C 
ATOM     17  C   UNL     1      -0.383  -5.101  -1.000  0.00  0.00    -0.050 A 
ATOM     18  C   UNL     1      -1.532  -4.751  -0.316  0.00  0.00    +0.005 A 
ATOM     19  C   UNL     1      -1.820  -3.420  -0.083  0.00  0.00    +0.025 A 
ATOM     20  C   UNL     1      -0.954  -2.434  -0.536  0.00  0.00    +0.048 A 
ATOM     21  C   UNL     1       0.198  -2.789  -1.227  0.00  0.00    +0.025 A 
ATOM     22  C   UNL     1       0.482  -4.121  -1.453  0.00  0.00    +0.005 A 
ENDBRANCH  14  20
ENDBRANCH  11  14
ENDBRANCH   5  11
ENDBRANCH   1   8
BRANCH   2  23
ATOM     23  C   UNL     1       3.396  -2.855   7.123  0.00  0.00    +0.173 C 
BRANCH  23  24
ATOM     24  S   UNL     1       5.200  -2.999   7.161  0.00  0.00    -0.076 S 
BRANCH  24  25
ATOM     25  C   UNL     1       5.415  -3.721   8.754  0.00  0.00    +0.197 A 
ATOM     26  N   UNL     1       4.465  -4.027   9.608  0.00  0.00    -0.122 NA
ATOM     27  N   UNL     1       4.979  -4.540  10.668  0.00  0.00    -0.131 NA
ATOM     28  C   UNL     1       6.277  -4.585  10.563  0.00  0.00    +0.164 A 
ATOM     29  N   UNL     1       6.604  -4.065   9.338  0.00  0.00    -0.272 N 
BRANCH  29  30
ATOM     30  C   UNL     1       7.889  -3.915   8.797  0.00  0.00    +0.050 A 
ATOM     31  C   UNL     1       8.659  -5.034   8.514  0.00  0.00    +0.026 A 
ATOM     32  C   UNL     1       9.922  -4.883   7.976  0.00  0.00    +0.002 A 
ATOM     33  C   UNL     1      10.424  -3.619   7.730  0.00  0.00    +0.000 A 
ATOM     34  C   UNL     1       9.661  -2.501   8.016  0.00  0.00    +0.002 A 
ATOM     35  C   UNL     1       8.395  -2.646   8.548  0.00  0.00    +0.026 A 
ENDBRANCH  29  30
BRANCH  28  36
ATOM     36  C   UNL     1       7.240  -5.111  11.596  0.00  0.00    +0.236 C 
BRANCH  36  37
ATOM     37  O   UNL     1       7.630  -4.048  12.467  0.00  0.00    -0.375 OA
ATOM     38  C   UNL     1       8.548  -4.442  13.490  0.00  0.00    +0.194 C 
ENDBRANCH  36  37
ENDBRANCH  28  36
ENDBRANCH  24  25
ENDBRANCH  23  24
ENDBRANCH   2  23
TORSDOF 10
