REMARK  Name = ZINC35640708
REMARK  13 active torsions:
REMARK  status: ('A' for Active; 'I' for Inactive)
REMARK    1  A    between atoms: C_1  and  C_2
REMARK    2  A    between atoms: C_2  and  N_3
REMARK    3  A    between atoms: C_4  and  C_26
REMARK    4  A    between atoms: C_5  and  C_21
REMARK    5  A    between atoms: C_6  and  C_11
REMARK    6  A    between atoms: C_14  and  C_17
REMARK    7  A    between atoms: C_17  and  C_18
REMARK    8  A    between atoms: C_17  and  C_19
REMARK    9  A    between atoms: C_17  and  C_20
REMARK   10  A    between atoms: C_21  and  O_23
REMARK   11  A    between atoms: O_23  and  C_24
REMARK   12  A    between atoms: C_24  and  C_25
REMARK   13  A    between atoms: C_26  and  N_27
REMARK                            x       y       z     vdW  Elec       q    Type
REMARK                         _______ _______ _______ _____ _____    ______ ____
ROOT
ATOM      1  N   UNL     1       0.801  -0.911  -1.554  0.00  0.00    -0.258 N 
ATOM      2  C   UNL     1      -0.048  -0.596  -2.576  0.00  0.00    +0.041 C 
ATOM      3  C   UNL     1       0.351  -0.675  -3.864  0.00  0.00    +0.080 C 
ATOM      4  C   UNL     1       1.773  -1.124  -4.135  0.00  0.00    +0.144 C 
ATOM      5  N   UNL     1       2.608  -1.440  -2.964  0.00  0.00    -0.288 N 
ATOM      6  C   UNL     1       2.067  -1.308  -1.736  0.00  0.00    +0.307 C 
ATOM      7  O   UNL     1       2.749  -1.563  -0.763  0.00  0.00    -0.252 OA
ATOM      8  H   UNL     1       3.526  -1.732  -3.073  0.00  0.00    +0.151 HD
ENDROOT
BRANCH   4   9
ATOM      9  C   UNL     1       1.714  -2.351  -5.007  0.00  0.00    -0.022 A 
ATOM     10  C   UNL     1       1.442  -3.585  -4.447  0.00  0.00    +0.006 A 
ATOM     11  C   UNL     1       1.387  -4.711  -5.247  0.00  0.00    +0.004 A 
ATOM     12  C   UNL     1       1.605  -4.603  -6.608  0.00  0.00    -0.042 A 
ATOM     13  C   UNL     1       1.876  -3.369  -7.168  0.00  0.00    +0.004 A 
ATOM     14  C   UNL     1       1.926  -2.243  -6.369  0.00  0.00    +0.006 A 
BRANCH  12  15
ATOM     15  C   UNL     1       1.547  -5.831  -7.480  0.00  0.00    -0.013 C 
ATOM     16  C   UNL     1       0.158  -6.465  -7.376  0.00  0.00    +0.015 C 
ATOM     17  C   UNL     1       1.821  -5.438  -8.933  0.00  0.00    +0.015 C 
ATOM     18  C   UNL     1       2.602  -6.837  -7.015  0.00  0.00    +0.015 C 
ENDBRANCH  12  15
ENDBRANCH   4   9
BRANCH   1  20
ATOM     19  C   UNL     1       0.493   0.629   0.320  0.00  0.00    +0.025 C 
ATOM     20  C   UNL     1       0.301  -0.803  -0.181  0.00  0.00    +0.111 C 
ENDBRANCH   1  20
BRANCH   3  21
ATOM     21  C   UNL     1      -0.528  -0.350  -4.923  0.00  0.00    +0.339 C 
ATOM     22  O   UNL     1      -1.697  -0.106  -4.691  0.00  0.00    -0.245 OA
BRANCH  21  23
ATOM     23  O   UNL     1      -0.070  -0.309  -6.192  0.00  0.00    -0.462 OA
BRANCH  23  24
ATOM     24  C   UNL     1      -1.013   0.026  -7.212  0.00  0.00    +0.229 C 
ATOM     25  C   UNL     1      -0.315   0.022  -8.573  0.00  0.00    +0.048 C 
ENDBRANCH  23  24
ENDBRANCH  21  23
ENDBRANCH   3  21
BRANCH   2  26
ATOM     26  C   UNL     1      -1.454  -0.154  -2.262  0.00  0.00    +0.136 C 
BRANCH  26  27
ATOM     27  N   UNL     1      -2.361  -1.306  -2.350  0.00  0.00    -0.300 NA
ATOM     28  C   UNL     1      -2.155  -2.227  -1.223  0.00  0.00    +0.066 C 
ATOM     29  C   UNL     1      -3.075  -3.439  -1.384  0.00  0.00    -0.067 C 
ATOM     30  N   UNL     1      -4.473  -2.992  -1.424  0.00  0.00    +0.381 N 
ATOM     31  C   UNL     1      -4.669  -2.093  -2.569  0.00  0.00    -0.067 C 
ATOM     32  C   UNL     1      -3.763  -0.869  -2.418  0.00  0.00    +0.066 C 
ATOM     33  H   UNL     1      -5.080  -3.792  -1.518  0.00  0.00    -0.086 HD
ATOM     34  H   UNL     1      -4.694  -2.501  -0.571  0.00  0.00    -0.086 HD
ENDBRANCH  26  27
ENDBRANCH   2  26
TORSDOF 8
