REMARK  Name = ZINC20715184
REMARK  4 active torsions:
REMARK  status: ('A' for Active; 'I' for Inactive)
REMARK    1  A    between atoms: C_11  and  C_12
REMARK    2  A    between atoms: C_12  and  C_14
REMARK    3  A    between atoms: C_12  and  N_17
REMARK    4  A    between atoms: C_20  and  C_23
REMARK                            x       y       z     vdW  Elec       q    Type
REMARK                         _______ _______ _______ _____ _____    ______ ____
ROOT
ATOM      1  N   UNL     1       5.669   3.299   0.441  0.00  0.00    +0.392 N 
ATOM      2  C   UNL     1       5.800   2.665   1.759  0.00  0.00    -0.077 C 
ATOM      3  C   UNL     1       7.279   2.580   2.141  0.00  0.00    -0.009 C 
ATOM      4  C   UNL     1       7.875   3.990   2.170  0.00  0.00    +0.038 C 
ATOM      5  C   UNL     1       7.683   4.646   0.800  0.00  0.00    -0.009 C 
ATOM      6  C   UNL     1       6.191   4.671   0.457  0.00  0.00    -0.077 C 
ATOM      7  H   UNL     1       6.273   2.719  -0.272  0.00  0.00    -0.080 HD
ENDROOT
BRANCH   4   8
ATOM      8  C   UNL     1       9.346   3.910   2.488  0.00  0.00    +0.094 A 
ATOM      9  C   UNL     1      10.020   4.526   3.634  0.00  0.00    +0.045 A 
ATOM     10  C   UNL     1       9.583   5.310   4.705  0.00  0.00    +0.016 A 
ATOM     11  C   UNL     1      10.479   5.746   5.638  0.00  0.00    +0.039 A 
ATOM     12  C   UNL     1      11.825   5.414   5.533  0.00  0.00    +0.127 A 
ATOM     13  C   UNL     1      12.277   4.640   4.483  0.00  0.00    +0.088 A 
ATOM     14  C   UNL     1      11.380   4.188   3.523  0.00  0.00    +0.170 A 
ATOM     15  O   UNL     1      11.512   3.437   2.411  0.00  0.00    -0.354 OA
ATOM     16  N   UNL     1      10.247   3.279   1.800  0.00  0.00    -0.082 NA
ATOM     17  F   UNL     1      12.698   5.852   6.466  0.00  0.00    -0.205 F 
ENDBRANCH   4   8
BRANCH   1  18
ATOM     18  C   UNL     1       4.274   3.272  -0.020  0.00  0.00    +0.080 C 
BRANCH  18  29
ATOM     19  C   UNL     1      -0.017   1.386   0.010  0.00  0.00    +0.039 A 
ATOM     20  C   UNL     1       1.151   2.095   0.002  0.00  0.00    +0.013 A 
ATOM     21  C   UNL     1       2.373   1.420  -0.013  0.00  0.00    +0.002 A 
ATOM     22  C   UNL     1       2.398   0.013  -0.021  0.00  0.00    +0.049 A 
ATOM     23  C   UNL     1       1.199  -0.691  -0.013  0.00  0.00    +0.064 A 
ATOM     24  C   UNL     1       0.002  -0.004   0.002  0.00  0.00    +0.125 A 
ATOM     25  F   UNL     1      -1.162  -0.689   0.009  0.00  0.00    -0.205 F 
ATOM     26  N   UNL     1       3.721  -0.368  -0.035  0.00  0.00    -0.360 N 
ATOM     27  H   UNL     1       3.985  -1.436  -0.043  0.00  0.00    +0.165 HD
ATOM     28  C   UNL     1       4.526   0.740  -0.037  0.00  0.00    +0.086 A 
ATOM     29  C   UNL     1       3.773   1.851  -0.024  0.00  0.00    -0.025 A 
ENDBRANCH  18  29
BRANCH  18  30
ATOM     30  C   UNL     1       4.195   3.836  -1.416  0.00  0.00    +0.347 C 
ATOM     31  O   UNL     1       5.198   4.221  -1.969  0.00  0.00    -0.248 OA
ATOM     32  O   UNL     1       3.011   3.911  -2.043  0.00  0.00    -0.248 OA
ENDBRANCH  18  30
ENDBRANCH   1  18
TORSDOF 4
