REMARK  Name = ZINC51748105
REMARK  6 active torsions:
REMARK  status: ('A' for Active; 'I' for Inactive)
REMARK    1  A    between atoms: C_1  and  C_2
REMARK    2  A    between atoms: N_6  and  S_11
REMARK    3  A    between atoms: C_7  and  C_10
REMARK    4  A    between atoms: S_11  and  C_14
REMARK    5  A    between atoms: C_15  and  N_22
REMARK    6  A    between atoms: N_22  and  N_23
REMARK                            x       y       z     vdW  Elec       q    Type
REMARK                         _______ _______ _______ _____ _____    ______ ____
ROOT
ATOM      1  C   UNL     1      -0.305  -5.608   0.831  0.00  0.00    +0.222 A 
ATOM      2  C   UNL     1      -0.852  -6.244  -0.226  0.00  0.00    +0.179 A 
ATOM      3  N   UNL     1      -0.044  -7.261  -0.570  0.00  0.00    -0.203 NA
ATOM      4  C   UNL     1       0.982  -7.279   0.233  0.00  0.00    +0.181 A 
ATOM      5  N   UNL     1       0.891  -6.260   1.143  0.00  0.00    -0.276 N 
ATOM      6  C   UNL     1       1.914  -6.148   2.060  0.00  0.00    +0.102 A 
ATOM      7  C   UNL     1       2.939  -6.999   2.045  0.00  0.00    +0.067 A 
ATOM      8  S   UNL     1       2.509  -8.071   0.684  0.00  0.00    -0.058 S 
ENDROOT
BRANCH   1   9
ATOM      9  S   UNL     1      -0.973  -4.205   1.662  0.00  0.00    +0.080 S 
ATOM     10  O   UNL     1      -0.223  -4.045   2.858  0.00  0.00    -0.151 OA
ATOM     11  O   UNL     1      -2.385  -4.369   1.665  0.00  0.00    -0.151 OA
BRANCH   9  16
ATOM     12  C   UNL     1      -0.650   1.353   0.290  0.00  0.00    +0.007 C 
ATOM     13  C   UNL     1      -0.484  -0.144   0.024  0.00  0.00    -0.011 C 
ATOM     14  C   UNL     1      -1.846  -0.835   0.132  0.00  0.00    +0.020 C 
ATOM     15  C   UNL     1      -1.682  -2.328  -0.170  0.00  0.00    +0.110 C 
ATOM     16  N   UNL     1      -0.652  -2.880   0.721  0.00  0.00    -0.172 NA
ATOM     17  C   UNL     1       0.667  -2.235   0.763  0.00  0.00    +0.077 C 
ATOM     18  C   UNL     1       0.476  -0.743   1.054  0.00  0.00    +0.023 C 
ATOM     19  C   UNL     1       1.515  -2.871   1.865  0.00  0.00    +0.026 C 
ENDBRANCH   9  16
ENDBRANCH   1   9
BRANCH   2  20
ATOM     20  N   UNL     1      -2.057  -5.902  -0.857  0.00  0.00    -0.265 N 
ATOM     21  H   UNL     1      -2.575  -5.147  -0.536  0.00  0.00    +0.168 HD
BRANCH  20  22
ATOM     22  N   UNL     1      -2.501  -6.631  -1.923  0.00  0.00    -0.255 NA
ATOM     23  H   UNL     1      -3.377  -6.269  -2.270  0.00  0.00    +0.140 HD
ATOM     24  H   UNL     1      -1.807  -6.662  -2.654  0.00  0.00    +0.140 HD
ENDBRANCH  20  22
ENDBRANCH   2  20
TORSDOF 4
