REMARK  Name = ZINC47614261
REMARK  10 active torsions:
REMARK  status: ('A' for Active; 'I' for Inactive)
REMARK    1  A    between atoms: C_1  and  N_2
REMARK    2  A    between atoms: N_2  and  C_3
REMARK    3  A    between atoms: C_6  and  C_11
REMARK    4  A    between atoms: C_11  and  N_12
REMARK    5  A    between atoms: N_12  and  C_13
REMARK    6  A    between atoms: N_12  and  C_24
REMARK    7  A    between atoms: C_13  and  C_14
REMARK    8  A    between atoms: N_20  and  C_21
REMARK    9  A    between atoms: N_20  and  C_22
REMARK   10  A    between atoms: C_24  and  C_25
REMARK                            x       y       z     vdW  Elec       q    Type
REMARK                         _______ _______ _______ _____ _____    ______ ____
ROOT
ATOM      1  N   UNL     1      -1.590  -4.820  -2.746  0.00  0.00    +0.389 N 
ATOM      2  H   UNL     1      -2.237  -4.573  -3.481  0.00  0.00    -0.081 HD
ENDROOT
BRANCH   1   3
ATOM      3  C   UNL     1      -0.362  -4.025  -2.888  0.00  0.00    -0.001 C 
BRANCH   3   9
ATOM      4  C   UNL     1       0.403  -2.911  -8.853  0.00  0.00    +0.132 C 
ATOM      5  N   UNL     1      -0.053  -2.675  -7.481  0.00  0.00    -0.306 N 
ATOM      6  C   UNL     1      -0.909  -1.525  -7.180  0.00  0.00    +0.132 C 
ATOM      7  C   UNL     1       0.325  -3.537  -6.471  0.00  0.00    +0.222 A 
ATOM      8  N   UNL     1      -0.166  -3.381  -5.244  0.00  0.00    -0.201 NA
ATOM      9  C   UNL     1       0.195  -4.205  -4.276  0.00  0.00    +0.120 A 
ATOM     10  N   UNL     1       1.045  -5.188  -4.523  0.00  0.00    -0.202 NA
ATOM     11  C   UNL     1       1.540  -5.350  -5.748  0.00  0.00    +0.217 A 
ATOM     12  N   UNL     1       1.174  -4.526  -6.724  0.00  0.00    -0.181 NA
ATOM     13  N   UNL     1       2.426  -6.376  -6.004  0.00  0.00    -0.327 N 
ATOM     14  H   UNL     1       2.690  -6.979  -5.292  0.00  0.00    +0.145 HD
ATOM     15  H   UNL     1       2.787  -6.493  -6.897  0.00  0.00    +0.145 HD
ENDBRANCH   3   9
ENDBRANCH   1   3
BRANCH   1  16
ATOM     16  C   UNL     1      -1.262  -6.248  -2.842  0.00  0.00    -0.001 C 
BRANCH  16  17
ATOM     17  C   UNL     1      -2.533  -7.058  -2.820  0.00  0.00    +0.120 A 
ATOM     18  N   UNL     1      -3.032  -7.470  -1.668  0.00  0.00    -0.202 NA
ATOM     19  C   UNL     1      -4.155  -8.185  -1.645  0.00  0.00    +0.217 A 
ATOM     20  N   UNL     1      -4.774  -8.484  -2.782  0.00  0.00    -0.181 NA
ATOM     21  C   UNL     1      -4.269  -8.068  -3.938  0.00  0.00    +0.222 A 
ATOM     22  N   UNL     1      -3.149  -7.349  -3.953  0.00  0.00    -0.201 NA
ATOM     23  N   UNL     1      -4.908  -8.376  -5.122  0.00  0.00    -0.306 N 
ATOM     24  C   UNL     1      -6.144  -9.162  -5.104  0.00  0.00    +0.132 C 
ATOM     25  C   UNL     1      -4.351  -7.917  -6.396  0.00  0.00    +0.132 C 
ATOM     26  N   UNL     1      -4.675  -8.615  -0.441  0.00  0.00    -0.327 N 
ATOM     27  H   UNL     1      -4.223  -8.397   0.389  0.00  0.00    +0.145 HD
ATOM     28  H   UNL     1      -5.493  -9.136  -0.425  0.00  0.00    +0.145 HD
ENDBRANCH  16  17
ENDBRANCH   1  16
BRANCH   1  29
ATOM     29  C   UNL     1      -2.204  -4.545  -1.440  0.00  0.00    -0.074 C 
BRANCH  29  30
ATOM     30  C   UNL     1      -2.651  -3.082  -1.385  0.00  0.00    -0.028 C 
ATOM     31  C   UNL     1      -1.982  -2.178  -0.347  0.00  0.00    +0.002 C 
ATOM     32  C   UNL     1      -3.431  -2.629  -0.150  0.00  0.00    +0.002 C 
ENDBRANCH  29  30
ENDBRANCH   1  29
TORSDOF 6
