REMARK  Name = ZINC16564245
REMARK  17 active torsions:
REMARK  status: ('A' for Active; 'I' for Inactive)
REMARK    1  A    between atoms: C_1  and  C_2
REMARK    2  A    between atoms: C_2  and  C_3
REMARK    3  A    between atoms: C_6  and  C_9
REMARK    4  A    between atoms: C_9  and  N_69
REMARK    5  A    between atoms: C_10  and  N_69
REMARK    6  A    between atoms: C_11  and  C_12
REMARK    7  A    between atoms: C_11  and  N_69
REMARK    8  A    between atoms: N_14  and  C_15
REMARK    9  A    between atoms: N_14  and  C_19
REMARK   10  A    between atoms: C_15  and  C_16
REMARK   11  A    between atoms: C_16  and  C_17
REMARK   12  A    between atoms: C_16  and  C_18
REMARK   13  A    between atoms: C_20  and  N_32
REMARK   14  A    between atoms: N_21  and  C_28
REMARK   15  A    between atoms: C_28  and  C_29
REMARK   16  A    between atoms: C_29  and  C_30
REMARK   17  A    between atoms: C_29  and  C_31
REMARK                            x       y       z     vdW  Elec       q    Type
REMARK                         _______ _______ _______ _____ _____    ______ ____
ROOT
ATOM      1  C   UNL     1      -1.008   1.196  -3.478  0.00  0.00    +0.203 C 
ATOM      2  O   UNL     1      -1.933   1.952  -3.269  0.00  0.00    -0.277 OA
ATOM      3  N   UNL     1      -0.748   0.777  -4.734  0.00  0.00    -0.266 N 
ENDROOT
BRANCH   3   4
ATOM      4  C   UNL     1      -1.488   1.295  -5.817  0.00  0.00    +0.140 A 
ATOM      5  C   UNL     1      -2.252   0.461  -6.608  0.00  0.00    +0.127 A 
ATOM      6  N   UNL     1      -2.962   0.995  -7.658  0.00  0.00    -0.280 N 
ATOM      7  C   UNL     1      -2.915   2.316  -7.910  0.00  0.00    +0.331 A 
ATOM      8  O   UNL     1      -3.550   2.769  -8.842  0.00  0.00    -0.246 OA
ATOM      9  N   UNL     1      -2.177   3.144  -7.149  0.00  0.00    -0.273 N 
ATOM     10  H   UNL     1      -2.155   4.121  -7.361  0.00  0.00    +0.173 HD
ATOM     11  C   UNL     1      -1.466   2.672  -6.106  0.00  0.00    +0.277 A 
ATOM     12  O   UNL     1      -0.804   3.433  -5.420  0.00  0.00    -0.266 OA
BRANCH   5  13
ATOM     13  N   UNL     1      -2.300  -0.888  -6.351  0.00  0.00    -0.343 N 
ATOM     14  H   UNL     1      -1.859  -1.249  -5.566  0.00  0.00    +0.144 HD
ATOM     15  H   UNL     1      -2.775  -1.480  -6.955  0.00  0.00    +0.144 HD
ENDBRANCH   5  13
BRANCH   6  16
ATOM     16  C   UNL     1      -3.777   0.121  -8.505  0.00  0.00    +0.131 C 
BRANCH  16  17
ATOM     17  C   UNL     1      -5.191   0.025  -7.929  0.00  0.00    +0.003 C 
ATOM     18  C   UNL     1      -5.864   1.397  -7.997  0.00  0.00    +0.009 C 
ATOM     19  C   UNL     1      -6.005  -0.984  -8.741  0.00  0.00    +0.009 C 
ENDBRANCH  16  17
ENDBRANCH   6  16
ENDBRANCH   3   4
BRANCH   1  20
ATOM     20  C   UNL     1      -0.149   0.724  -2.333  0.00  0.00    +0.019 C 
BRANCH  20  22
ATOM     21  C   UNL     1      -0.237   2.862  -1.200  0.00  0.00    -0.095 C 
ATOM     22  N   UNL     1      -0.568   1.425  -1.101  0.00  0.00    +0.386 N 
ATOM     23  H   UNL     1      -1.584   1.323  -0.989  0.00  0.00    -0.081 HD
BRANCH  22  24
ATOM     24  C   UNL     1       0.106   0.831   0.072  0.00  0.00    -0.043 C 
BRANCH  24  28
ATOM     25  C   UNL     1      -1.610   2.471   3.624  0.00  0.00    -0.048 A 
ATOM     26  C   UNL     1      -2.152   1.333   3.056  0.00  0.00    +0.004 A 
ATOM     27  C   UNL     1      -1.597   0.802   1.907  0.00  0.00    +0.002 A 
ATOM     28  C   UNL     1      -0.500   1.409   1.325  0.00  0.00    -0.064 A 
ATOM     29  C   UNL     1       0.046   2.544   1.896  0.00  0.00    +0.002 A 
ATOM     30  C   UNL     1      -0.512   3.078   3.043  0.00  0.00    +0.004 A 
BRANCH  25  32
ATOM     31  C   UNL     1      -1.546   2.428   6.102  0.00  0.00    +0.009 C 
ATOM     32  C   UNL     1      -2.216   3.050   4.876  0.00  0.00    +0.032 C 
ENDBRANCH  25  32
ENDBRANCH  24  28
ENDBRANCH  22  24
ENDBRANCH  20  22
ENDBRANCH   1  20
BRANCH   3  33
ATOM     33  C   UNL     1       0.303  -0.215  -4.972  0.00  0.00    +0.117 C 
BRANCH  33  34
ATOM     34  C   UNL     1       1.624   0.501  -5.263  0.00  0.00    +0.001 C 
ATOM     35  C   UNL     1       2.752  -0.528  -5.354  0.00  0.00    +0.009 C 
ATOM     36  C   UNL     1       1.514   1.256  -6.589  0.00  0.00    +0.009 C 
ENDBRANCH  33  34
ENDBRANCH   3  33
TORSDOF 11
