REMARK  Name = ZINC22419197
REMARK  11 active torsions:
REMARK  status: ('A' for Active; 'I' for Inactive)
REMARK    1  A    between atoms: C_1  and  C_2
REMARK    2  A    between atoms: C_2  and  O_3
REMARK    3  A    between atoms: O_3  and  C_4
REMARK    4  A    between atoms: C_9  and  N_10
REMARK    5  A    between atoms: N_13  and  C_14
REMARK    6  A    between atoms: C_14  and  C_15
REMARK    7  A    between atoms: C_15  and  C_17
REMARK    8  A    between atoms: C_15  and  N_26
REMARK    9  A    between atoms: C_20  and  N_23
REMARK   10  A    between atoms: N_23  and  C_24
REMARK   11  A    between atoms: N_23  and  C_25
REMARK                            x       y       z     vdW  Elec       q    Type
REMARK                         _______ _______ _______ _____ _____    ______ ____
ROOT
ATOM      1  C   UNL     1      -7.309   0.133  -0.422  0.00  0.00    -0.020 C 
ENDROOT
BRANCH   1   2
ATOM      2  N   UNL     1      -7.159   1.074   0.696  0.00  0.00    +0.388 N 
ATOM      3  C   UNL     1      -6.433   2.282   0.275  0.00  0.00    -0.073 C 
ATOM      4  C   UNL     1      -6.624   3.360   1.342  0.00  0.00    +0.017 C 
ATOM      5  C   UNL     1      -6.302   2.799   2.703  0.00  0.00    -0.048 A 
ATOM      6  C   UNL     1      -6.071   3.684   3.745  0.00  0.00    +0.004 A 
ATOM      7  C   UNL     1      -5.781   3.212   5.010  0.00  0.00    +0.000 A 
ATOM      8  C   UNL     1      -5.721   1.849   5.238  0.00  0.00    +0.000 A 
ATOM      9  C   UNL     1      -5.949   0.968   4.201  0.00  0.00    +0.002 A 
ATOM     10  C   UNL     1      -6.239   1.441   2.929  0.00  0.00    -0.061 A 
ATOM     11  C   UNL     1      -6.476   0.440   1.829  0.00  0.00    -0.042 C 
ATOM     12  H   UNL     1      -8.167   1.367   1.023  0.00  0.00    -0.080 HD
ENDBRANCH   1   2
BRANCH   1  13
ATOM     13  C   UNL     1      -8.620  -0.598  -0.291  0.00  0.00    -0.059 A 
ATOM     14  C   UNL     1      -9.109  -0.918   0.962  0.00  0.00    +0.004 A 
ATOM     15  C   UNL     1     -10.313  -1.583   1.086  0.00  0.00    +0.023 A 
ATOM     16  C   UNL     1     -11.028  -1.940  -0.050  0.00  0.00    +0.029 A 
ATOM     17  C   UNL     1     -10.531  -1.622  -1.308  0.00  0.00    +0.023 A 
ATOM     18  C   UNL     1      -9.329  -0.952  -1.424  0.00  0.00    +0.004 A 
BRANCH  16  19
ATOM     19  N   UNL     1     -12.243  -2.618   0.071  0.00  0.00    -0.336 N 
ATOM     20  C   UNL     1     -12.935  -3.101  -1.126  0.00  0.00    +0.129 C 
ATOM     21  C   UNL     1     -12.826  -2.846   1.396  0.00  0.00    +0.129 C 
ENDBRANCH  16  19
ENDBRANCH   1  13
BRANCH   1  22
ATOM     22  C   UNL     1      -6.158  -0.876  -0.398  0.00  0.00    +0.095 C 
BRANCH  22  26
ATOM     23  N   UNL     1      -2.566  -0.216  -0.821  0.00  0.00    -0.266 N 
ATOM     24  C   UNL     1      -3.736  -0.866  -0.663  0.00  0.00    +0.304 C 
ATOM     25  O   UNL     1      -3.754  -2.080  -0.604  0.00  0.00    -0.253 OA
ATOM     26  N   UNL     1      -4.886  -0.169  -0.570  0.00  0.00    -0.300 N 
ATOM     27  H   UNL     1      -2.538   0.883  -0.787  0.00  0.00    +0.156 HD
ATOM     28  H   UNL     1      -4.870   0.929  -0.622  0.00  0.00    +0.150 HD
BRANCH  23  34
ATOM     29  C   UNL     1      -0.153  -0.379  -0.700  0.00  0.00    +0.142 A 
ATOM     30  C   UNL     1       1.012  -1.098  -0.912  0.00  0.00    +0.047 A 
ATOM     31  C   UNL     1       0.950  -2.374  -1.439  0.00  0.00    +0.004 A 
ATOM     32  C   UNL     1      -0.272  -2.933  -1.766  0.00  0.00    +0.002 A 
ATOM     33  C   UNL     1      -1.438  -2.220  -1.562  0.00  0.00    +0.027 A 
ATOM     34  C   UNL     1      -1.384  -0.941  -1.029  0.00  0.00    +0.077 A 
BRANCH  29  35
ATOM     35  O   UNL     1      -0.095   0.875  -0.177  0.00  0.00    -0.490 OA
BRANCH  35  37
ATOM     36  C   UNL     1       1.068   2.799   0.710  0.00  0.00    +0.048 C 
ATOM     37  C   UNL     1       1.202   1.387   0.137  0.00  0.00    +0.226 C 
ENDBRANCH  35  37
ENDBRANCH  29  35
ENDBRANCH  23  34
ENDBRANCH  22  26
ENDBRANCH   1  22
TORSDOF 8
