REMARK  Name = ZINC40016711
REMARK  9 active torsions:
REMARK  status: ('A' for Active; 'I' for Inactive)
REMARK    1  A    between atoms: C_1  and  C_2
REMARK    2  A    between atoms: C_7  and  C_12
REMARK    3  A    between atoms: C_19  and  C_36
REMARK    4  A    between atoms: C_20  and  C_30
REMARK    5  A    between atoms: C_21  and  C_23
REMARK    6  A    between atoms: C_30  and  O_32
REMARK    7  A    between atoms: O_32  and  C_33
REMARK    8  A    between atoms: C_33  and  C_34
REMARK    9  A    between atoms: C_33  and  C_35
REMARK                            x       y       z     vdW  Elec       q    Type
REMARK                         _______ _______ _______ _____ _____    ______ ____
ROOT
ATOM      1  C   UNL     1       5.860  -1.175  -1.142  0.00  0.00    +0.028 C 
ATOM      2  C   UNL     1       6.990  -1.192  -0.388  0.00  0.00    +0.081 A 
ATOM      3  C   UNL     1       8.395  -1.252  -0.812  0.00  0.00    +0.268 A 
ATOM      4  O   UNL     1       8.693  -1.296  -1.991  0.00  0.00    -0.266 OA
ATOM      5  N   UNL     1       9.339  -1.258   0.138  0.00  0.00    -0.275 N 
ATOM      6  C   UNL     1       8.949  -1.206   1.457  0.00  0.00    +0.178 A 
ATOM      7  N   UNL     1       9.780  -1.207   2.468  0.00  0.00    -0.228 NA
ATOM      8  C   UNL     1      11.102  -1.256   2.361  0.00  0.00    +0.053 C 
ATOM      9  C   UNL     1      11.699  -1.311   1.133  0.00  0.00    +0.085 C 
ATOM     10  C   UNL     1      10.810  -1.315  -0.090  0.00  0.00    +0.162 C 
ATOM     11  C   UNL     1      11.953  -1.250   3.605  0.00  0.00    +0.066 C 
ATOM     12  S   UNL     1       7.169  -1.139   1.388  0.00  0.00    -0.046 S 
ENDROOT
BRANCH   1  18
ATOM     13  C   UNL     1       1.097  -3.876   2.490  0.00  0.00    +0.052 C 
ATOM     14  C   UNL     1       1.298  -2.373   2.697  0.00  0.00    +0.175 C 
ATOM     15  C   UNL     1       2.798  -2.041   2.876  0.00  0.00    +0.083 C 
ATOM     16  C   UNL     1       3.218  -1.715   1.456  0.00  0.00    -0.002 A 
ATOM     17  C   UNL     1       4.452  -1.606   0.864  0.00  0.00    +0.015 A 
ATOM     18  C   UNL     1       4.546  -1.293  -0.499  0.00  0.00    -0.023 A 
ATOM     19  C   UNL     1       3.375  -1.095  -1.241  0.00  0.00    +0.011 A 
ATOM     20  C   UNL     1       2.146  -1.203  -0.635  0.00  0.00    +0.046 A 
ATOM     21  C   UNL     1       2.051  -1.511   0.723  0.00  0.00    +0.124 A 
ATOM     22  O   UNL     1       0.944  -1.644   1.510  0.00  0.00    -0.488 OA
ENDBRANCH   1  18
BRANCH  10  23
ATOM     23  C   UNL     1      11.109  -2.566  -0.876  0.00  0.00    -0.018 A 
ATOM     24  C   UNL     1      10.435  -3.739  -0.590  0.00  0.00    +0.006 A 
ATOM     25  C   UNL     1      10.708  -4.887  -1.310  0.00  0.00    +0.002 A 
ATOM     26  C   UNL     1      11.655  -4.862  -2.317  0.00  0.00    +0.020 A 
ATOM     27  C   UNL     1      12.330  -3.689  -2.603  0.00  0.00    +0.041 A 
ATOM     28  C   UNL     1      12.052  -2.539  -1.886  0.00  0.00    +0.026 A 
ATOM     29 CL   UNL     1      13.520  -3.658  -3.867  0.00  0.00    -0.084 Cl
ENDBRANCH  10  23
BRANCH   9  30
ATOM     30  C   UNL     1      13.097  -1.362   1.010  0.00  0.00    +0.339 C 
ATOM     31  O   UNL     1      13.796  -1.358   2.007  0.00  0.00    -0.245 OA
BRANCH  30  32
ATOM     32  O   UNL     1      13.666  -1.416  -0.214  0.00  0.00    -0.459 OA
BRANCH  32  33
ATOM     33  C   UNL     1      15.093  -1.466  -0.264  0.00  0.00    +0.171 C 
ATOM     34  C   UNL     1      15.553  -2.925  -0.241  0.00  0.00    +0.052 C 
ATOM     35  C   UNL     1      15.582  -0.797  -1.551  0.00  0.00    +0.052 C 
ENDBRANCH  32  33
ENDBRANCH  30  32
ENDBRANCH   9  30
TORSDOF 5
