REMARK  Name = ZINC09190012
REMARK  3 active torsions:
REMARK  status: ('A' for Active; 'I' for Inactive)
REMARK    1  A    between atoms: C_8  and  C_13
REMARK    2  A    between atoms: C_13  and  C_14
REMARK    3  A    between atoms: C_13  and  C_21
REMARK                            x       y       z     vdW  Elec       q    Type
REMARK                         _______ _______ _______ _____ _____    ______ ____
ROOT
ATOM      1  C   UNL     1       2.677  -4.256  -0.046  0.00  0.00    +0.097 C 
ENDROOT
BRANCH   1   9
ATOM      2  C   UNL     1       4.357   0.929   2.994  0.00  0.00    +0.001 A 
ATOM      3  C   UNL     1       5.613   1.026   2.412  0.00  0.00    +0.002 A 
ATOM      4  C   UNL     1       6.033   0.094   1.488  0.00  0.00    +0.026 A 
ATOM      5  C   UNL     1       5.193  -0.957   1.133  0.00  0.00    +0.053 A 
ATOM      6  C   UNL     1       3.922  -1.054   1.722  0.00  0.00    +0.045 A 
ATOM      7  C   UNL     1       3.510  -0.104   2.656  0.00  0.00    +0.014 A 
ATOM      8  C   UNL     1       3.047  -2.176   1.332  0.00  0.00    +0.197 A 
ATOM      9  C   UNL     1       3.534  -3.093   0.384  0.00  0.00    +0.076 A 
ATOM     10  C   UNL     1       4.778  -2.933  -0.144  0.00  0.00    +0.257 A 
ATOM     11  O   UNL     1       5.220  -3.829  -1.053  0.00  0.00    -0.267 OA
ATOM     12  N   UNL     1       5.590  -1.903   0.210  0.00  0.00    -0.322 N 
ATOM     13  H   UNL     1       6.468  -1.831  -0.195  0.00  0.00    +0.169 HD
ATOM     14  O   UNL     1       1.934  -2.303   1.818  0.00  0.00    -0.287 OA
ENDBRANCH   1   9
BRANCH   1  15
ATOM     15  C   UNL     1       1.770  -3.823  -1.169  0.00  0.00    +0.076 A 
ATOM     16  C   UNL     1       0.980  -4.774  -1.840  0.00  0.00    +0.197 A 
ATOM     17  C   UNL     1       0.108  -4.301  -2.932  0.00  0.00    +0.045 A 
ATOM     18  C   UNL     1      -0.706  -5.183  -3.643  0.00  0.00    +0.014 A 
ATOM     19  C   UNL     1      -1.506  -4.703  -4.656  0.00  0.00    +0.001 A 
ATOM     20  C   UNL     1      -1.506  -3.351  -4.970  0.00  0.00    +0.002 A 
ATOM     21  C   UNL     1      -0.708  -2.469  -4.275  0.00  0.00    +0.026 A 
ATOM     22  C   UNL     1       0.108  -2.933  -3.248  0.00  0.00    +0.053 A 
ATOM     23  N   UNL     1       0.916  -2.070  -2.538  0.00  0.00    -0.322 N 
ATOM     24  H   UNL     1       0.912  -1.126  -2.760  0.00  0.00    +0.169 HD
ATOM     25  C   UNL     1       1.713  -2.511  -1.530  0.00  0.00    +0.257 A 
ATOM     26  O   UNL     1       2.479  -1.619  -0.865  0.00  0.00    -0.267 OA
ATOM     27  O   UNL     1       1.014  -5.954  -1.528  0.00  0.00    -0.287 OA
ENDBRANCH   1  15
BRANCH   1  28
ATOM     28  C   UNL     1       1.845  -4.726   1.119  0.00  0.00    -0.035 A 
ATOM     29  C   UNL     1       0.486  -4.470   1.145  0.00  0.00    +0.007 A 
ATOM     30  C   UNL     1      -0.278  -4.901   2.213  0.00  0.00    +0.038 A 
ATOM     31  C   UNL     1       0.317  -5.588   3.257  0.00  0.00    +0.123 A 
ATOM     32  C   UNL     1       1.678  -5.844   3.230  0.00  0.00    +0.038 A 
ATOM     33  C   UNL     1       2.439  -5.417   2.158  0.00  0.00    +0.007 A 
ATOM     34  F   UNL     1      -0.429  -6.009   4.301  0.00  0.00    -0.205 F 
ENDBRANCH   1  28
TORSDOF 3
