REMARK  Name = ZINC04005968
REMARK  14 active torsions:
REMARK  status: ('A' for Active; 'I' for Inactive)
REMARK    1  A    between atoms: C_4  and  N_24
REMARK    2  A    between atoms: C_5  and  N_7
REMARK    3  A    between atoms: N_7  and  C_8
REMARK    4  A    between atoms: C_10  and  O_23
REMARK    5  A    between atoms: C_12  and  O_22
REMARK    6  A    between atoms: C_14  and  O_21
REMARK    7  A    between atoms: C_16  and  C_19
REMARK    8  A    between atoms: C_19  and  O_20
REMARK    9  A    between atoms: N_24  and  C_25
REMARK   10  A    between atoms: C_27  and  O_40
REMARK   11  A    between atoms: C_29  and  O_39
REMARK   12  A    between atoms: C_31  and  O_38
REMARK   13  A    between atoms: C_33  and  C_36
REMARK   14  A    between atoms: C_36  and  O_37
REMARK                            x       y       z     vdW  Elec       q    Type
REMARK                         _______ _______ _______ _____ _____    ______ ____
ROOT
ATOM      1  C   UNL     1       5.235  -0.655  -3.455  0.00  0.00    +0.002 A 
ATOM      2  C   UNL     1       6.499  -0.095  -3.439  0.00  0.00    +0.002 A 
ATOM      3  C   UNL     1       6.745   1.045  -2.697  0.00  0.00    +0.025 A 
ATOM      4  C   UNL     1       5.721   1.634  -1.970  0.00  0.00    +0.050 A 
ATOM      5  C   UNL     1       4.448   1.065  -1.981  0.00  0.00    +0.050 A 
ATOM      6  C   UNL     1       4.210  -0.078  -2.728  0.00  0.00    +0.025 A 
ENDROOT
BRANCH   5   7
ATOM      7  N   UNL     1       3.411   1.651  -1.245  0.00  0.00    -0.316 N 
ATOM      8  H   UNL     1       3.579   2.451  -0.723  0.00  0.00    +0.149 HD
BRANCH   7   9
ATOM      9  C   UNL     1       2.072   1.056  -1.263  0.00  0.00    +0.235 C 
ATOM     10  C   UNL     1       1.418   1.229   0.110  0.00  0.00    +0.192 C 
ATOM     11  C   UNL     1       1.258   2.723   0.407  0.00  0.00    +0.178 C 
ATOM     12  C   UNL     1       0.438   3.370  -0.715  0.00  0.00    +0.177 C 
ATOM     13  C   UNL     1       1.130   3.114  -2.056  0.00  0.00    +0.177 C 
ATOM     14  O   UNL     1       1.275   1.706  -2.255  0.00  0.00    -0.348 OA
BRANCH  12  15
ATOM     15  O   UNL     1      -0.872   2.800  -0.738  0.00  0.00    -0.386 OA
ATOM     16  H   UNL     1      -1.370   2.925   0.082  0.00  0.00    +0.210 HD
ENDBRANCH  12  15
BRANCH  11  17
ATOM     17  O   UNL     1       0.582   2.893   1.655  0.00  0.00    -0.386 OA
ATOM     18  H   UNL     1       1.043   2.500   2.409  0.00  0.00    +0.210 HD
ENDBRANCH  11  17
BRANCH  10  19
ATOM     19  O   UNL     1       0.134   0.603   0.109  0.00  0.00    -0.385 OA
ATOM     20  H   UNL     1       0.159  -0.346  -0.075  0.00  0.00    +0.210 HD
ENDBRANCH  10  19
BRANCH  13  21
ATOM     21  C   UNL     1       0.286   3.705  -3.187  0.00  0.00    +0.190 C 
BRANCH  21  22
ATOM     22  O   UNL     1       0.986   3.568  -4.426  0.00  0.00    -0.392 OA
ATOM     23  H   UNL     1       0.509   3.922  -5.188  0.00  0.00    +0.210 HD
ENDBRANCH  21  22
ENDBRANCH  13  21
ENDBRANCH   7   9
ENDBRANCH   5   7
BRANCH   4  24
ATOM     24  N   UNL     1       5.967   2.792  -1.222  0.00  0.00    -0.316 N 
ATOM     25  H   UNL     1       5.234   3.249  -0.781  0.00  0.00    +0.149 HD
BRANCH  24  26
ATOM     26  C   UNL     1       7.331   3.314  -1.106  0.00  0.00    +0.235 C 
ATOM     27  C   UNL     1       7.520   3.947   0.275  0.00  0.00    +0.192 C 
ATOM     28  C   UNL     1       8.928   4.543   0.366  0.00  0.00    +0.178 C 
ATOM     29  C   UNL     1       9.117   5.555  -0.768  0.00  0.00    +0.177 C 
ATOM     30  C   UNL     1       8.866   4.860  -2.109  0.00  0.00    +0.177 C 
ATOM     31  O   UNL     1       7.551   4.301  -2.116  0.00  0.00    -0.348 OA
BRANCH  29  32
ATOM     32  O   UNL     1       8.190   6.631  -0.608  0.00  0.00    -0.386 OA
ATOM     33  H   UNL     1       8.288   7.114   0.225  0.00  0.00    +0.210 HD
ENDBRANCH  29  32
BRANCH  28  34
ATOM     34  O   UNL     1       9.088   5.198   1.626  0.00  0.00    -0.386 OA
ATOM     35  H   UNL     1       8.976   4.616   2.389  0.00  0.00    +0.210 HD
ENDBRANCH  28  34
BRANCH  27  36
ATOM     36  O   UNL     1       6.551   4.980   0.463  0.00  0.00    -0.385 OA
ATOM     37  H   UNL     1       5.635   4.674   0.413  0.00  0.00    +0.210 HD
ENDBRANCH  27  36
BRANCH  30  38
ATOM     38  C   UNL     1       8.994   5.878  -3.244  0.00  0.00    +0.190 C 
BRANCH  38  39
ATOM     39  O   UNL     1       8.876   5.208  -4.500  0.00  0.00    -0.392 OA
ATOM     40  H   UNL     1       8.947   5.794  -5.266  0.00  0.00    +0.210 HD
ENDBRANCH  38  39
ENDBRANCH  30  38
ENDBRANCH  24  26
ENDBRANCH   4  24
TORSDOF 14
