REMARK  Name = ZINC36270778
REMARK  6 active torsions:
REMARK  status: ('A' for Active; 'I' for Inactive)
REMARK    1  A    between atoms: C_1  and  C_2
REMARK    2  A    between atoms: C_5  and  C_30
REMARK    3  A    between atoms: N_8  and  C_10
REMARK    4  A    between atoms: C_10  and  C_11
REMARK    5  A    between atoms: C_12  and  C_21
REMARK    6  A    between atoms: C_17  and  N_20
REMARK                            x       y       z     vdW  Elec       q    Type
REMARK                         _______ _______ _______ _____ _____    ______ ____
ROOT
ATOM      1  C   UNL     1       2.948  -1.937   2.002  0.00  0.00    +0.035 A 
ATOM      2  C   UNL     1       3.983  -2.772   1.704  0.00  0.00    +0.091 A 
ATOM      3  N   UNL     1       5.131  -2.138   1.989  0.00  0.00    -0.228 NA
ATOM      4  C   UNL     1       4.853  -0.928   2.458  0.00  0.00    +0.138 A 
ATOM      5  N   UNL     1       3.492  -0.774   2.471  0.00  0.00    -0.303 N 
ATOM      6  C   UNL     1       2.930   0.394   2.907  0.00  0.00    +0.115 A 
ATOM      7  C   UNL     1       3.712   1.417   3.330  0.00  0.00    +0.041 A 
ATOM      8  C   UNL     1       5.115   1.286   3.323  0.00  0.00    +0.028 A 
ATOM      9  C   UNL     1       5.680   0.125   2.899  0.00  0.00    +0.048 A 
ENDROOT
BRANCH   2  10
ATOM     10  C   UNL     1       3.862  -4.147   1.158  0.00  0.00    +0.006 A 
ATOM     11  C   UNL     1       4.704  -4.566   0.130  0.00  0.00    +0.014 A 
ATOM     12  C   UNL     1       4.591  -5.844  -0.377  0.00  0.00    +0.050 A 
ATOM     13  C   UNL     1       3.640  -6.715   0.134  0.00  0.00    +0.166 A 
ATOM     14  C   UNL     1       2.796  -6.301   1.162  0.00  0.00    +0.167 A 
ATOM     15  C   UNL     1       2.911  -5.022   1.677  0.00  0.00    +0.059 A 
ATOM     16  O   UNL     1       1.961  -7.332   1.483  0.00  0.00    -0.453 OA
ATOM     17  C   UNL     1       2.026  -8.241   0.367  0.00  0.00    +0.466 C 
ATOM     18  O   UNL     1       3.333  -8.006  -0.189  0.00  0.00    -0.453 OA
ENDBRANCH   2  10
BRANCH   7  19
ATOM     19  N   UNL     1       3.123   2.609   3.774  0.00  0.00    -0.357 N 
ATOM     20  H   UNL     1       2.157   2.700   3.779  0.00  0.00    +0.142 HD
ATOM     21  H   UNL     1       3.681   3.342   4.077  0.00  0.00    +0.142 HD
ENDBRANCH   7  19
BRANCH   1  22
ATOM     22  C   UNL     1       1.480  -2.237   1.838  0.00  0.00    -0.022 C 
BRANCH  22  28
ATOM     23  C   UNL     1       1.040   1.206  -1.614  0.00  0.00    +0.005 C 
ATOM     24  C   UNL     1       0.888  -0.286  -1.312  0.00  0.00    -0.031 C 
ATOM     25  C   UNL     1      -0.556  -0.718  -1.583  0.00  0.00    +0.003 C 
ATOM     26  C   UNL     1      -0.717  -2.193  -1.204  0.00  0.00    -0.031 C 
ATOM     27  C   UNL     1      -0.319  -2.385   0.261  0.00  0.00    -0.075 C 
ATOM     28  N   UNL     1       1.079  -1.979   0.449  0.00  0.00    +0.384 N 
ATOM     29  C   UNL     1       1.228  -0.548   0.156  0.00  0.00    -0.075 C 
ATOM     30  C   UNL     1       0.184  -3.050  -2.095  0.00  0.00    +0.005 C 
ATOM     31  H   UNL     1       1.669  -2.511  -0.174  0.00  0.00    -0.081 HD
ENDBRANCH  22  28
ENDBRANCH   1  22
TORSDOF 4
