REMARK  Name = ZINC03276204
REMARK  4 active torsions:
REMARK  status: ('A' for Active; 'I' for Inactive)
REMARK    1  A    between atoms: C_3  and  C_20
REMARK    2  A    between atoms: C_5  and  C_11
REMARK    3  A    between atoms: C_15  and  N_17
REMARK    4  A    between atoms: N_22  and  C_23
REMARK                            x       y       z     vdW  Elec       q    Type
REMARK                         _______ _______ _______ _____ _____    ______ ____
ROOT
ATOM      1  C   UNL     1      -0.010   1.099   0.002  0.00  0.00    +0.029 C 
ATOM      2  C   UNL     1      -1.166   1.735   0.012  0.00  0.00    +0.019 C 
ATOM      3  C   UNL     1      -2.482   0.983   0.018  0.00  0.00    +0.143 C 
ATOM      4  C   UNL     1      -3.358   1.594   1.120  0.00  0.00    +0.122 C 
ATOM      5  N   UNL     1      -3.377   3.049   0.977  0.00  0.00    -0.291 N 
ATOM      6  C   UNL     1      -2.337   3.736   0.486  0.00  0.00    +0.304 C 
ATOM      7  O   UNL     1      -2.397   4.951   0.462  0.00  0.00    -0.253 OA
ATOM      8  N   UNL     1      -1.229   3.133   0.022  0.00  0.00    -0.273 N 
ATOM      9  H   UNL     1      -4.171   3.534   1.249  0.00  0.00    +0.151 HD
ATOM     10  H   UNL     1      -0.484   3.661  -0.304  0.00  0.00    +0.156 HD
ENDROOT
BRANCH   4  11
ATOM     11  C   UNL     1      -2.796   1.228   2.469  0.00  0.00    -0.024 A 
ATOM     12  C   UNL     1      -1.717   1.926   2.981  0.00  0.00    +0.005 A 
ATOM     13  C   UNL     1      -1.204   1.594   4.220  0.00  0.00    +0.003 A 
ATOM     14  C   UNL     1      -1.763   0.558   4.945  0.00  0.00    +0.033 A 
ATOM     15  C   UNL     1      -2.838  -0.143   4.431  0.00  0.00    +0.127 A 
ATOM     16  C   UNL     1      -3.354   0.192   3.193  0.00  0.00    +0.038 A 
BRANCH  15  17
ATOM     17  N   UNL     1      -3.437  -1.253   5.207  0.00  0.00    +0.056 N 
ATOM     18  O   UNL     1      -4.384  -1.870   4.755  0.00  0.00    -0.126 OA
ATOM     19  O   UNL     1      -2.982  -1.548   6.298  0.00  0.00    -0.126 OA
ENDBRANCH  15  17
ENDBRANCH   4  11
BRANCH   3  20
ATOM     20  C   UNL     1      -3.163   1.132  -1.318  0.00  0.00    +0.228 C 
ATOM     21  O   UNL     1      -4.261   1.643  -1.386  0.00  0.00    -0.275 OA
ATOM     22  N   UNL     1      -2.551   0.697  -2.438  0.00  0.00    -0.285 N 
ATOM     23  H   UNL     1      -1.647   0.350  -2.393  0.00  0.00    +0.155 HD
BRANCH  22  24
ATOM     24  C   UNL     1      -3.222   0.747  -3.665  0.00  0.00    +0.035 A 
ATOM     25  C   UNL     1      -4.093   1.792  -3.940  0.00  0.00    +0.023 A 
ATOM     26  C   UNL     1      -4.754   1.839  -5.152  0.00  0.00    +0.003 A 
ATOM     27  C   UNL     1      -4.548   0.846  -6.092  0.00  0.00    +0.020 A 
ATOM     28  C   UNL     1      -3.680  -0.198  -5.822  0.00  0.00    +0.043 A 
ATOM     29  C   UNL     1      -3.013  -0.247  -4.612  0.00  0.00    +0.043 A 
ATOM     30 CL   UNL     1      -3.424  -1.442  -7.005  0.00  0.00    -0.083 Cl
ENDBRANCH  22  24
ENDBRANCH   3  20
TORSDOF 4
