REMARK  Name = ZINC18019304
REMARK  7 active torsions:
REMARK  status: ('A' for Active; 'I' for Inactive)
REMARK    1  A    between atoms: C_4  and  C_7
REMARK    2  A    between atoms: C_7  and  C_9
REMARK    3  A    between atoms: C_7  and  N_63
REMARK    4  A    between atoms: C_9  and  N_10
REMARK    5  A    between atoms: C_11  and  C_13
REMARK    6  A    between atoms: C_17  and  S_19
REMARK    7  A    between atoms: S_19  and  N_22
REMARK                            x       y       z     vdW  Elec       q    Type
REMARK                         _______ _______ _______ _____ _____    ______ ____
ROOT
ATOM      1  N   UNL     1      -2.220  -0.474  -0.109  0.00  0.00    -0.313 N 
ATOM      2  C   UNL     1      -2.010   0.826   0.178  0.00  0.00    +0.244 C 
ATOM      3  O   UNL     1      -2.912   1.500   0.636  0.00  0.00    -0.270 OA
ATOM      4  H   UNL     1      -1.500  -1.012  -0.474  0.00  0.00    +0.149 HD
ENDROOT
BRANCH   2   5
ATOM      5  C   UNL     1      -0.683   1.432  -0.063  0.00  0.00    +0.039 A 
ATOM      6  C   UNL     1       0.355   0.660  -0.588  0.00  0.00    +0.013 A 
ATOM      7  C   UNL     1       1.589   1.233  -0.816  0.00  0.00    +0.003 A 
ATOM      8  C   UNL     1       1.800   2.568  -0.519  0.00  0.00    +0.029 A 
ATOM      9  C   UNL     1       0.778   3.337   0.007  0.00  0.00    +0.109 A 
ATOM     10  C   UNL     1      -0.461   2.776   0.239  0.00  0.00    +0.041 A 
BRANCH   9  11
ATOM     11  S   UNL     1       1.058   5.035   0.381  0.00  0.00    +0.075 S 
ATOM     12  O   UNL     1       0.105   5.396   1.371  0.00  0.00    -0.150 OA
ATOM     13  O   UNL     1       2.458   5.181   0.582  0.00  0.00    -0.150 OA
BRANCH  11  14
ATOM     14  N   UNL     1       0.682   5.905  -0.978  0.00  0.00    -0.202 N 
ATOM     15  C   UNL     1      -0.643   6.449  -1.286  0.00  0.00    +0.136 C 
ATOM     16  C   UNL     1      -0.481   7.164  -2.637  0.00  0.00    +0.058 C 
ATOM     17  C   UNL     1       0.973   6.962  -3.001  0.00  0.00    -0.023 A 
ATOM     18  C   UNL     1       1.582   6.231  -1.993  0.00  0.00    +0.054 A 
ATOM     19  C   UNL     1       2.940   5.922  -2.105  0.00  0.00    +0.025 A 
ATOM     20  C   UNL     1       3.660   6.344  -3.203  0.00  0.00    +0.002 A 
ATOM     21  C   UNL     1       3.043   7.075  -4.201  0.00  0.00    +0.000 A 
ATOM     22  C   UNL     1       1.698   7.377  -4.101  0.00  0.00    +0.005 A 
ENDBRANCH  11  14
ENDBRANCH   9  11
ENDBRANCH   2   5
BRANCH   1  23
ATOM     23  C   UNL     1      -3.535  -1.074   0.130  0.00  0.00    +0.094 C 
BRANCH  23  24
ATOM     24  C   UNL     1      -3.461  -2.581  -0.121  0.00  0.00    -0.020 C 
BRANCH  24  28
ATOM     25  C   UNL     1      -7.344  -4.297   0.349  0.00  0.00    +0.000 A 
ATOM     26  C   UNL     1      -6.804  -4.145  -0.914  0.00  0.00    +0.000 A 
ATOM     27  C   UNL     1      -5.547  -3.590  -1.067  0.00  0.00    +0.002 A 
ATOM     28  C   UNL     1      -4.831  -3.186   0.044  0.00  0.00    -0.059 A 
ATOM     29  C   UNL     1      -5.369  -3.343   1.308  0.00  0.00    +0.002 A 
ATOM     30  C   UNL     1      -6.627  -3.894   1.460  0.00  0.00    +0.000 A 
ENDBRANCH  24  28
BRANCH  24  35
ATOM     31  C   UNL     1      -2.651  -4.674   0.824  0.00  0.00    -0.078 C 
ATOM     32  C   UNL     1      -1.313  -5.142   1.449  0.00  0.00    -0.020 C 
ATOM     33  C   UNL     1      -0.293  -4.125   0.886  0.00  0.00    -0.020 C 
ATOM     34  C   UNL     1      -1.130  -2.894   0.490  0.00  0.00    -0.078 C 
ATOM     35  N   UNL     1      -2.514  -3.209   0.848  0.00  0.00    +0.385 N 
ATOM     36  H   UNL     1      -2.716  -2.858   1.792  0.00  0.00    -0.081 HD
ENDBRANCH  24  35
ENDBRANCH  23  24
ENDBRANCH   1  23
TORSDOF 7
