REMARK  Name = ZINC28939097
REMARK  8 active torsions:
REMARK  status: ('A' for Active; 'I' for Inactive)
REMARK    1  A    between atoms: C_1  and  C_2
REMARK    2  A    between atoms: C_6  and  C_9
REMARK    3  A    between atoms: C_7  and  O_8
REMARK    4  A    between atoms: C_9  and  O_11
REMARK    5  A    between atoms: O_11  and  C_12
REMARK    6  A    between atoms: C_12  and  C_13
REMARK    7  A    between atoms: C_15  and  O_16
REMARK    8  A    between atoms: C_25  and  C_27
REMARK                            x       y       z     vdW  Elec       q    Type
REMARK                         _______ _______ _______ _____ _____    ______ ____
ROOT
ATOM      1  C   UNL     1      -0.286  -6.287  -0.968  0.00  0.00    +0.007 A 
ATOM      2  C   UNL     1      -0.279  -6.960  -2.147  0.00  0.00    +0.095 A 
ATOM      3  C   UNL     1      -0.200  -6.248  -3.361  0.00  0.00    +0.285 A 
ATOM      4  O   UNL     1      -0.132  -4.908  -3.389  0.00  0.00    -0.425 OA
ATOM      5  C   UNL     1      -0.136  -4.178  -2.253  0.00  0.00    +0.141 A 
ATOM      6  C   UNL     1      -0.211  -4.825  -1.005  0.00  0.00    +0.024 A 
ATOM      7  C   UNL     1      -0.215  -4.073   0.175  0.00  0.00    +0.014 A 
ATOM      8  C   UNL     1      -0.140  -2.712   0.112  0.00  0.00    +0.024 A 
ATOM      9  C   UNL     1      -0.071  -2.064  -1.121  0.00  0.00    +0.037 A 
ATOM     10  C   UNL     1      -0.065  -2.794  -2.300  0.00  0.00    +0.070 A 
ATOM     11  N   UNL     1       0.000  -0.672  -1.169  0.00  0.00    -0.286 N 
ATOM     12  C   UNL     1      -0.605  -0.000  -2.168  0.00  0.00    +0.214 C 
ATOM     13  O   UNL     1      -1.141  -0.609  -3.070  0.00  0.00    -0.276 OA
ATOM     14  C   UNL     1      -0.617   1.507  -2.165  0.00  0.00    +0.109 C 
ATOM     15  H   UNL     1       0.550  -0.122  -0.391  0.00  0.00    +0.155 HD
ENDROOT
BRANCH   3  16
ATOM     16  O   UNL     1      -0.194  -6.865  -4.412  0.00  0.00    -0.480 OA
ATOM     17  H   UNL     1      -0.133  -6.323  -5.367  0.00  0.00    +0.295 HD
ENDBRANCH   3  16
BRANCH   1  18
ATOM     18  C   UNL     1      -0.370  -7.024   0.344  0.00  0.00    +0.269 C 
BRANCH  18  19
ATOM     19  O   UNL     1      -0.433  -8.452   0.094  0.00  0.00    -0.456 OA
BRANCH  19  20
ATOM     20  C   UNL     1      -0.512  -9.259   1.170  0.00  0.00    +0.343 C 
ATOM     21  O   UNL     1      -0.527  -8.782   2.287  0.00  0.00    -0.245 OA
BRANCH  20  27
ATOM     22  C   UNL     1      -0.811 -13.851   3.125  0.00  0.00    +0.047 C 
ATOM     23  C   UNL     1      -0.724 -12.938   1.929  0.00  0.00    -0.008 A 
ATOM     24  C   UNL     1      -0.706 -13.471   0.655  0.00  0.00    +0.007 A 
ATOM     25  C   UNL     1      -0.625 -12.642  -0.451  0.00  0.00    +0.001 A 
ATOM     26  C   UNL     1      -0.562 -11.274  -0.291  0.00  0.00    +0.018 A 
ATOM     27  C   UNL     1      -0.579 -10.721   0.992  0.00  0.00    +0.101 A 
ATOM     28  C   UNL     1      -0.656 -11.565   2.109  0.00  0.00    +0.134 A 
BRANCH  28  29
ATOM     29  O   UNL     1      -0.668 -11.040   3.360  0.00  0.00    -0.506 OA
ATOM     30  H   UNL     1      -0.614  -9.950   3.499  0.00  0.00    +0.292 HD
ENDBRANCH  28  29
ENDBRANCH  20  27
ENDBRANCH  19  20
ENDBRANCH  18  19
ENDBRANCH   1  18
TORSDOF 6
