REMARK  Name = ZINC10212641
REMARK  9 active torsions:
REMARK  status: ('A' for Active; 'I' for Inactive)
REMARK    1  A    between atoms: C_1  and  C_2
REMARK    2  A    between atoms: C_2  and  C_4
REMARK    3  A    between atoms: C_2  and  S_17
REMARK    4  A    between atoms: N_6  and  C_7
REMARK    5  A    between atoms: C_10  and  S_13
REMARK    6  A    between atoms: S_13  and  N_16
REMARK    7  A    between atoms: S_17  and  C_18
REMARK    8  A    between atoms: C_21  and  C_30
REMARK    9  A    between atoms: N_22  and  C_23
REMARK                            x       y       z     vdW  Elec       q    Type
REMARK                         _______ _______ _______ _____ _____    ______ ____
ROOT
ATOM      1  S   UNL     1       4.006  -4.866   0.211  0.00  0.00    -0.073 S 
ENDROOT
BRANCH   1   2
ATOM      2  C   UNL     1       3.706  -6.602   0.176  0.00  0.00    +0.197 A 
ATOM      3  N   UNL     1       2.557  -7.190  -0.075  0.00  0.00    -0.122 NA
ATOM      4  N   UNL     1       2.693  -8.467  -0.023  0.00  0.00    -0.128 NA
ATOM      5  C   UNL     1       3.935  -8.774   0.272  0.00  0.00    +0.169 A 
ATOM      6  N   UNL     1       4.624  -7.589   0.409  0.00  0.00    -0.270 N 
BRANCH   6   7
ATOM      7  C   UNL     1       5.981  -7.428   0.722  0.00  0.00    +0.051 A 
ATOM      8  C   UNL     1       6.955  -7.820  -0.186  0.00  0.00    +0.029 A 
ATOM      9  C   UNL     1       8.291  -7.656   0.121  0.00  0.00    +0.040 A 
ATOM     10  C   UNL     1       8.660  -7.110   1.339  0.00  0.00    +0.124 A 
ATOM     11  C   UNL     1       7.691  -6.723   2.249  0.00  0.00    +0.040 A 
ATOM     12  C   UNL     1       6.353  -6.881   1.942  0.00  0.00    +0.029 A 
ATOM     13  F   UNL     1       9.968  -6.954   1.640  0.00  0.00    -0.205 F 
ENDBRANCH   6   7
BRANCH   5  14
ATOM     14  C   UNL     1       4.490 -10.136   0.429  0.00  0.00    +0.020 A 
ATOM     15  C   UNL     1       3.797 -11.237  -0.075  0.00  0.00    +0.011 A 
ATOM     16  C   UNL     1       4.322 -12.504   0.070  0.00  0.00    +0.001 A 
ATOM     17  C   UNL     1       5.528 -12.686   0.724  0.00  0.00    +0.000 A 
ATOM     18  C   UNL     1       6.218 -11.599   1.231  0.00  0.00    +0.001 A 
ATOM     19  C   UNL     1       5.706 -10.326   1.088  0.00  0.00    +0.011 A 
ENDBRANCH   5  14
ENDBRANCH   1   2
BRANCH   1  21
ATOM     20  C   UNL     1       1.976  -4.678  -1.608  0.00  0.00    +0.029 C 
ATOM     21  C   UNL     1       2.350  -4.253  -0.187  0.00  0.00    +0.137 C 
BRANCH  21  22
ATOM     22  C   UNL     1       2.335  -2.749  -0.092  0.00  0.00    +0.230 C 
ATOM     23  O   UNL     1       3.363  -2.122  -0.240  0.00  0.00    -0.274 OA
ATOM     24  N   UNL     1       1.180  -2.100   0.156  0.00  0.00    -0.285 N 
ATOM     25  H   UNL     1       0.373  -2.603   0.348  0.00  0.00    +0.155 HD
BRANCH  24  26
ATOM     26  C   UNL     1       1.144  -0.702   0.136  0.00  0.00    +0.034 A 
ATOM     27  C   UNL     1       1.962   0.003  -0.738  0.00  0.00    +0.025 A 
ATOM     28  C   UNL     1       1.925   1.383  -0.755  0.00  0.00    +0.030 A 
ATOM     29  C   UNL     1       1.073   2.064   0.096  0.00  0.00    +0.105 A 
ATOM     30  C   UNL     1       0.257   1.365   0.967  0.00  0.00    +0.030 A 
ATOM     31  C   UNL     1       0.290  -0.015   0.989  0.00  0.00    +0.025 A 
BRANCH  29  32
ATOM     32  S   UNL     1       1.028   3.825   0.071  0.00  0.00    +0.056 S 
ATOM     33  O   UNL     1       0.547   4.237   1.343  0.00  0.00    -0.153 OA
ATOM     34  O   UNL     1       2.280   4.256  -0.446  0.00  0.00    -0.153 OA
BRANCH  32  35
ATOM     35  N   UNL     1      -0.120   4.270  -1.036  0.00  0.00    -0.204 NA
ATOM     36  H   UNL     1      -0.614   3.591  -1.522  0.00  0.00    +0.144 HD
ATOM     37  H   UNL     1      -0.299   5.209  -1.199  0.00  0.00    +0.144 HD
ENDBRANCH  32  35
ENDBRANCH  29  32
ENDBRANCH  24  26
ENDBRANCH  21  22
ENDBRANCH   1  21
TORSDOF 8
