REMARK  Name = ZINC39606432
REMARK  9 active torsions:
REMARK  status: ('A' for Active; 'I' for Inactive)
REMARK    1  A    between atoms: C_1  and  C_2
REMARK    2  A    between atoms: C_2  and  C_3
REMARK    3  A    between atoms: C_3  and  C_5
REMARK    4  A    between atoms: C_3  and  C_6
REMARK    5  A    between atoms: C_6  and  N_7
REMARK    6  A    between atoms: C_8  and  C_10
REMARK    7  A    between atoms: C_21  and  C_23
REMARK    8  A    between atoms: C_28  and  O_29
REMARK    9  A    between atoms: O_29  and  C_30
REMARK                            x       y       z     vdW  Elec       q    Type
REMARK                         _______ _______ _______ _____ _____    ______ ____
ROOT
ATOM      1  C   UNL     1      -4.827  -4.396   0.122  0.00  0.00    +0.100 C 
ATOM      2  C   UNL     1      -5.227  -3.955   1.548  0.00  0.00    +0.121 C 
ATOM      3  N   UNL     1      -5.951  -5.119   2.111  0.00  0.00    -0.296 N 
ATOM      4  C   UNL     1      -5.191  -6.296   1.623  0.00  0.00    +0.115 C 
ATOM      5  C   UNL     1      -4.804  -5.933   0.176  0.00  0.00    -0.004 C 
ATOM      6  C   UNL     1      -5.821  -6.511  -0.803  0.00  0.00    -0.010 C 
ATOM      7  C   UNL     1      -5.740  -8.039  -0.773  0.00  0.00    -0.082 C 
ATOM      8  N   UNL     1      -4.383  -8.466  -1.136  0.00  0.00    +0.379 N 
ATOM      9  C   UNL     1      -3.422  -7.984  -0.138  0.00  0.00    -0.082 C 
ATOM     10  C   UNL     1      -3.405  -6.452  -0.141  0.00  0.00    -0.010 C 
ATOM     11  C   UNL     1      -7.050  -5.111   2.890  0.00  0.00    +0.252 C 
ATOM     12  O   UNL     1      -7.476  -6.151   3.353  0.00  0.00    -0.270 OA
ATOM     13  H   UNL     1      -4.348  -9.474  -1.175  0.00  0.00    -0.086 HD
ATOM     14  H   UNL     1      -4.144  -8.089  -2.041  0.00  0.00    -0.086 HD
ENDROOT
BRANCH  11  15
ATOM     15  C   UNL     1      -7.738  -3.838   3.181  0.00  0.00    +0.099 A 
ATOM     16  C   UNL     1      -7.010  -2.652   3.330  0.00  0.00    +0.020 A 
ATOM     17  C   UNL     1      -7.702  -1.486   3.602  0.00  0.00    +0.021 A 
ATOM     18  C   UNL     1      -9.080  -1.524   3.718  0.00  0.00    +0.114 A 
ATOM     19  N   UNL     1      -9.747  -2.652   3.574  0.00  0.00    -0.220 NA
ATOM     20  C   UNL     1      -9.135  -3.794   3.307  0.00  0.00    +0.233 A 
BRANCH  20  21
ATOM     21  O   UNL     1      -9.860  -4.929   3.162  0.00  0.00    -0.437 OA
BRANCH  21  22
ATOM     22  C   UNL     1     -11.199  -4.863   3.387  0.00  0.00    +0.130 A 
ATOM     23  C   UNL     1     -12.042  -4.344   2.415  0.00  0.00    +0.048 A 
ATOM     24  C   UNL     1     -13.402  -4.279   2.646  0.00  0.00    +0.023 A 
ATOM     25  C   UNL     1     -13.924  -4.731   3.845  0.00  0.00    +0.041 A 
ATOM     26  C   UNL     1     -13.085  -5.250   4.815  0.00  0.00    +0.023 A 
ATOM     27  C   UNL     1     -11.725  -5.322   4.586  0.00  0.00    +0.048 A 
ATOM     28 CL   UNL     1     -15.634  -4.648   4.132  0.00  0.00    -0.084 Cl
ENDBRANCH  21  22
ENDBRANCH  20  21
ENDBRANCH  11  15
BRANCH   1  30
ATOM     29  N   UNL     1      -3.132  -3.646  -1.517  0.00  0.00    -0.315 N 
ATOM     30  C   UNL     1      -3.461  -3.863  -0.228  0.00  0.00    +0.218 C 
ATOM     31  O   UNL     1      -2.658  -3.628   0.651  0.00  0.00    -0.275 OA
ATOM     32  H   UNL     1      -3.775  -3.834  -2.219  0.00  0.00    +0.149 HD
BRANCH  29  33
ATOM     33  C   UNL     1      -1.805  -3.128  -1.857  0.00  0.00    +0.107 C 
BRANCH  33  34
ATOM     34  C   UNL     1      -1.691  -2.975  -3.375  0.00  0.00    +0.003 C 
ATOM     35  C   UNL     1      -1.768  -4.354  -4.034  0.00  0.00    +0.009 C 
BRANCH  34  37
ATOM     36  C   UNL     1      -0.292  -2.052  -5.228  0.00  0.00    +0.004 C 
ATOM     37  C   UNL     1      -0.353  -2.318  -3.722  0.00  0.00    +0.001 C 
ENDBRANCH  34  37
ENDBRANCH  33  34
ENDBRANCH  29  33
ENDBRANCH   1  30
TORSDOF 7
