REMARK  Name = ZINC38980033
REMARK  3 active torsions:
REMARK  status: ('A' for Active; 'I' for Inactive)
REMARK    1  A    between atoms: C_4  and  C_7
REMARK    2  A    between atoms: C_9  and  C_13
REMARK    3  A    between atoms: C_21  and  C_24
REMARK                            x       y       z     vdW  Elec       q    Type
REMARK                         _______ _______ _______ _____ _____    ______ ____
ROOT
ATOM      1  C   UNL     1       5.763  -2.987  -1.332  0.00  0.00    +0.206 C 
ATOM      2  N   UNL     1       5.054  -4.291  -1.429  0.00  0.00    -0.231 NA
ATOM      3  N   UNL     1       5.999  -5.135  -2.185  0.00  0.00    -0.225 NA
ATOM      4  C   UNL     1       7.308  -4.761  -1.615  0.00  0.00    +0.234 C 
ATOM      5  N   UNL     1       7.190  -3.323  -1.268  0.00  0.00    -0.207 N 
ATOM      6  N   UNL     1       8.272  -2.485  -1.021  0.00  0.00    -0.184 NA
ATOM      7  C   UNL     1       9.476  -2.735  -1.376  0.00  0.00    +0.076 C 
ATOM      8  C   UNL     1       9.981  -3.962  -2.073  0.00  0.00    +0.129 C 
ATOM      9  S   UNL     1       8.614  -4.870  -2.880  0.00  0.00    -0.114 S 
ATOM     10  H   UNL     1       4.878  -4.676  -0.514  0.00  0.00    +0.143 HD
ATOM     11  H   UNL     1       5.807  -6.115  -2.037  0.00  0.00    +0.143 HD
ENDROOT
BRANCH   7  12
ATOM     12  C   UNL     1      10.479  -1.700  -1.063  0.00  0.00    -0.001 A 
ATOM     13  C   UNL     1      11.816  -1.889  -1.420  0.00  0.00    +0.011 A 
ATOM     14  C   UNL     1      12.749  -0.917  -1.125  0.00  0.00    +0.020 A 
ATOM     15  C   UNL     1      12.363   0.244  -0.476  0.00  0.00    +0.041 A 
ATOM     16  C   UNL     1      11.039   0.437  -0.119  0.00  0.00    +0.020 A 
ATOM     17  C   UNL     1      10.095  -0.524  -0.414  0.00  0.00    +0.011 A 
ATOM     18 CL   UNL     1      13.544   1.462  -0.108  0.00  0.00    -0.084 Cl
ENDBRANCH   7  12
BRANCH   1  21
ATOM     19  C   UNL     1       3.699  -0.689  -0.037  0.00  0.00    +0.091 C 
ATOM     20  C   UNL     1       3.832  -2.029  -0.051  0.00  0.00    +0.034 C 
ATOM     21  C   UNL     1       5.335  -2.245  -0.065  0.00  0.00    +0.190 C 
ATOM     22  N   UNL     1       5.871  -0.874  -0.056  0.00  0.00    -0.176 NA
ATOM     23  N   UNL     1       4.919  -0.090  -0.047  0.00  0.00    -0.154 NA
BRANCH  19  27
ATOM     24  C   UNL     1      -0.017   1.379   0.010  0.00  0.00    +0.000 A 
ATOM     25  C   UNL     1       1.169   2.092   0.002  0.00  0.00    +0.001 A 
ATOM     26  C   UNL     1       2.377   1.426  -0.013  0.00  0.00    +0.010 A 
ATOM     27  C   UNL     1       2.402   0.033  -0.021  0.00  0.00    +0.002 A 
ATOM     28  C   UNL     1       1.205  -0.680  -0.013  0.00  0.00    +0.010 A 
ATOM     29  C   UNL     1       0.002  -0.004   0.002  0.00  0.00    +0.001 A 
ENDBRANCH  19  27
ENDBRANCH   1  21
TORSDOF 3
