REMARK  Name = ZINC38733067
REMARK  8 active torsions:
REMARK  status: ('A' for Active; 'I' for Inactive)
REMARK    1  A    between atoms: C_1  and  O_2
REMARK    2  A    between atoms: O_2  and  C_3
REMARK    3  A    between atoms: C_3  and  C_5
REMARK    4  A    between atoms: C_5  and  C_7
REMARK    5  A    between atoms: C_5  and  N_17
REMARK    6  A    between atoms: C_7  and  C_8
REMARK    7  A    between atoms: C_18  and  C_20
REMARK    8  A    between atoms: C_26  and  C_28
REMARK                            x       y       z     vdW  Elec       q    Type
REMARK                         _______ _______ _______ _____ _____    ______ ____
ROOT
ATOM      1  C   UNL     1      -4.763  -3.170   1.141  0.00  0.00    +0.091 C 
ATOM      2  C   UNL     1      -5.619  -2.123   0.424  0.00  0.00    +0.040 C 
ATOM      3  C   UNL     1      -5.673  -0.859   1.231  0.00  0.00    -0.030 C 
ATOM      4  C   UNL     1      -5.360  -0.785   2.485  0.00  0.00    -0.030 C 
ATOM      5  C   UNL     1      -4.889  -1.951   3.304  0.00  0.00    +0.040 C 
ATOM      6  C   UNL     1      -5.231  -3.270   2.598  0.00  0.00    +0.091 C 
ENDROOT
BRANCH   6   7
ATOM      7  C   UNL     1      -4.527  -4.415   3.279  0.00  0.00    +0.220 C 
ATOM      8  O   UNL     1      -3.544  -4.206   3.958  0.00  0.00    -0.275 OA
ATOM      9  N   UNL     1      -4.989  -5.673   3.132  0.00  0.00    -0.298 N 
ATOM     10  C   UNL     1      -6.105  -5.958   2.219  0.00  0.00    +0.126 C 
ATOM     11  C   UNL     1      -5.660  -7.038   1.225  0.00  0.00    +0.125 C 
ATOM     12  N   UNL     1      -5.058  -8.148   1.976  0.00  0.00    -0.314 N 
ATOM     13  C   UNL     1      -3.942  -7.863   2.889  0.00  0.00    +0.125 C 
ATOM     14  C   UNL     1      -4.384  -6.784   3.879  0.00  0.00    +0.126 C 
ATOM     15  C   UNL     1      -5.535  -9.445   1.825  0.00  0.00    +0.099 A 
ATOM     16  C   UNL     1      -6.672  -9.677   1.058  0.00  0.00    +0.042 A 
ATOM     17  C   UNL     1      -7.135 -10.972   0.916  0.00  0.00    +0.005 A 
ATOM     18  C   UNL     1      -6.444 -11.996   1.549  0.00  0.00    +0.018 A 
ATOM     19  C   UNL     1      -5.322 -11.695   2.296  0.00  0.00    +0.084 A 
ATOM     20  N   UNL     1      -4.900 -10.450   2.409  0.00  0.00    -0.350 N 
ATOM     21  H   UNL     1      -4.106 -10.265   2.936  0.00  0.00    +0.166 HD
ENDBRANCH   6   7
BRANCH   1  23
ATOM     22  N   UNL     1      -2.770  -2.321  -0.053  0.00  0.00    -0.302 N 
ATOM     23  C   UNL     1      -3.315  -2.754   1.101  0.00  0.00    +0.218 C 
ATOM     24  O   UNL     1      -2.641  -2.809   2.107  0.00  0.00    -0.275 OA
ATOM     25  H   UNL     1      -3.309  -2.278  -0.858  0.00  0.00    +0.150 HD
BRANCH  22  26
ATOM     26  C   UNL     1      -1.362  -1.918  -0.092  0.00  0.00    +0.186 C 
BRANCH  26  27
ATOM     27  C   UNL     1      -1.240  -0.478   0.337  0.00  0.00    +0.328 C 
ATOM     28  O   UNL     1      -2.228   0.146   0.644  0.00  0.00    -0.249 OA
BRANCH  27  30
ATOM     29  C   UNL     1       0.006   1.477   0.794  0.00  0.00    +0.280 C 
ATOM     30  O   UNL     1      -0.035   0.110   0.379  0.00  0.00    -0.467 OA
ENDBRANCH  27  30
ENDBRANCH  26  27
BRANCH  26  31
ATOM     31  C   UNL     1      -0.826  -2.072  -1.516  0.00  0.00    +0.071 C 
BRANCH  31  32
ATOM     32  C   UNL     1      -0.833  -3.530  -1.901  0.00  0.00    -0.020 A 
ATOM     33  C   UNL     1      -1.964  -4.279  -2.453  0.00  0.00    +0.003 A 
ATOM     34  C   UNL     1      -3.280  -3.949  -2.780  0.00  0.00    +0.010 A 
ATOM     35  C   UNL     1      -4.112  -4.905  -3.293  0.00  0.00    +0.001 A 
ATOM     36  C   UNL     1      -3.659  -6.202  -3.490  0.00  0.00    +0.002 A 
ATOM     37  C   UNL     1      -2.364  -6.550  -3.173  0.00  0.00    +0.026 A 
ATOM     38  C   UNL     1      -1.500  -5.593  -2.651  0.00  0.00    +0.047 A 
ATOM     39  N   UNL     1      -0.184  -5.624  -2.245  0.00  0.00    -0.360 N 
ATOM     40  C   UNL     1       0.197  -4.385  -1.807  0.00  0.00    +0.087 A 
ATOM     41  H   UNL     1       0.388  -6.407  -2.270  0.00  0.00    +0.165 HD
ENDBRANCH  31  32
ENDBRANCH  26  31
ENDBRANCH  22  26
ENDBRANCH   1  23
TORSDOF 7
