REMARK  Name = ZINC03446688
REMARK  8 active torsions:
REMARK  status: ('A' for Active; 'I' for Inactive)
REMARK    1  A    between atoms: C_4  and  C_7
REMARK    2  A    between atoms: C_7  and  C_8
REMARK    3  A    between atoms: C_13  and  N_14
REMARK    4  A    between atoms: C_15  and  C_17
REMARK    5  A    between atoms: C_17  and  S_18
REMARK    6  A    between atoms: S_18  and  C_19
REMARK    7  A    between atoms: C_22  and  C_25
REMARK    8  A    between atoms: N_23  and  N_24
REMARK                            x       y       z     vdW  Elec       q    Type
REMARK                         _______ _______ _______ _____ _____    ______ ____
ROOT
ATOM      1  S   UNL     1      -6.219  -0.741   2.585  0.00  0.00    -0.075 S 
ENDROOT
BRANCH   1   2
ATOM      2  C   UNL     1      -7.592  -0.373   1.544  0.00  0.00    +0.209 A 
ATOM      3  N   UNL     1      -7.540   0.076   0.312  0.00  0.00    -0.121 NA
ATOM      4  N   UNL     1      -8.730   0.231  -0.147  0.00  0.00    -0.128 NA
ATOM      5  C   UNL     1      -9.606  -0.100   0.759  0.00  0.00    +0.195 A 
ATOM      6  N   UNL     1      -8.913  -0.497   1.869  0.00  0.00    -0.225 N 
BRANCH   5   7
ATOM      7  C   UNL     1     -11.105  -0.054   0.611  0.00  0.00    +0.280 C 
ATOM      8  C   UNL     1     -11.586   1.402   0.669  0.00  0.00    +0.281 C 
ATOM      9  O   UNL     1     -13.009   1.411   0.512  0.00  0.00    -0.484 OA
ATOM     10  C   UNL     1     -13.519   0.641  -0.488  0.00  0.00    +0.162 A 
ATOM     11  C   UNL     1     -14.815   0.868  -0.928  0.00  0.00    +0.049 A 
ATOM     12  C   UNL     1     -15.347   0.093  -1.941  0.00  0.00    +0.004 A 
ATOM     13  C   UNL     1     -14.591  -0.911  -2.517  0.00  0.00    +0.004 A 
ATOM     14  C   UNL     1     -13.299  -1.141  -2.084  0.00  0.00    +0.049 A 
ATOM     15  C   UNL     1     -12.758  -0.366  -1.069  0.00  0.00    +0.163 A 
ATOM     16  O   UNL     1     -11.482  -0.601  -0.657  0.00  0.00    -0.474 OA
ENDBRANCH   5   7
BRANCH   6  17
ATOM     17  N   UNL     1      -9.434  -0.927   3.056  0.00  0.00    -0.295 N 
ATOM     18  H   UNL     1      -9.575  -0.155   3.690  0.00  0.00    +0.163 HD
ATOM     19  H   UNL     1     -10.291  -1.438   2.911  0.00  0.00    +0.163 HD
ENDBRANCH   6  17
ENDBRANCH   1   2
BRANCH   1  20
ATOM     20  C   UNL     1      -4.857  -0.331   1.465  0.00  0.00    +0.173 C 
BRANCH  20  22
ATOM     21  N   UNL     1      -2.384  -0.337   1.516  0.00  0.00    -0.285 N 
ATOM     22  C   UNL     1      -3.543  -0.575   2.161  0.00  0.00    +0.227 C 
ATOM     23  O   UNL     1      -3.529  -0.985   3.302  0.00  0.00    -0.275 OA
ATOM     24  H   UNL     1      -2.394   0.066   0.633  0.00  0.00    +0.155 HD
BRANCH  21  30
ATOM     25  C   UNL     1      -0.003  -0.009   1.750  0.00  0.00    -0.022 A 
ATOM     26  C   UNL     1       1.197  -0.338   2.350  0.00  0.00    +0.006 A 
ATOM     27  C   UNL     1       1.240  -1.328   3.314  0.00  0.00    +0.000 A 
ATOM     28  C   UNL     1       0.084  -1.994   3.679  0.00  0.00    +0.002 A 
ATOM     29  C   UNL     1      -1.118  -1.670   3.083  0.00  0.00    +0.023 A 
ATOM     30  C   UNL     1      -1.167  -0.671   2.118  0.00  0.00    +0.037 A 
BRANCH  25  31
ATOM     31  C   UNL     1      -0.050   1.071   0.700  0.00  0.00    +0.072 C 
BRANCH  31  35
ATOM     32  C   UNL     1      -1.117   4.784   2.524  0.00  0.00    +0.000 A 
ATOM     33  C   UNL     1       0.213   4.421   2.422  0.00  0.00    +0.000 A 
ATOM     34  C   UNL     1       0.558   3.219   1.832  0.00  0.00    +0.004 A 
ATOM     35  C   UNL     1      -0.426   2.381   1.344  0.00  0.00    -0.043 A 
ATOM     36  C   UNL     1      -1.756   2.746   1.441  0.00  0.00    +0.004 A 
ATOM     37  C   UNL     1      -2.102   3.945   2.035  0.00  0.00    +0.000 A 
ENDBRANCH  31  35
ENDBRANCH  25  31
ENDBRANCH  21  30
ENDBRANCH  20  22
ENDBRANCH   1  20
TORSDOF 8
