REMARK  Name = ZINC39687111
REMARK  6 active torsions:
REMARK  status: ('A' for Active; 'I' for Inactive)
REMARK    1  A    between atoms: C_1  and  C_2
REMARK    2  A    between atoms: C_2  and  C_4
REMARK    3  A    between atoms: C_2  and  N_12
REMARK    4  A    between atoms: C_4  and  C_5
REMARK    5  A    between atoms: C_13  and  C_15
REMARK    6  A    between atoms: C_26  and  C_28
REMARK                            x       y       z     vdW  Elec       q    Type
REMARK                         _______ _______ _______ _____ _____    ______ ____
ROOT
ATOM      1  C   UNL     1       2.783  -1.099   2.395  0.00  0.00    +0.100 C 
ATOM      2  C   UNL     1       2.678  -0.070   3.542  0.00  0.00    +0.121 C 
ATOM      3  N   UNL     1       3.999  -0.120   4.212  0.00  0.00    -0.297 N 
ATOM      4  C   UNL     1       4.971  -0.257   3.101  0.00  0.00    +0.115 C 
ATOM      5  C   UNL     1       4.289  -1.218   2.107  0.00  0.00    -0.004 C 
ATOM      6  C   UNL     1       4.761  -2.649   2.350  0.00  0.00    -0.010 C 
ATOM      7  C   UNL     1       6.249  -2.756   2.003  0.00  0.00    -0.082 C 
ATOM      8  N   UNL     1       6.454  -2.382   0.598  0.00  0.00    +0.379 N 
ATOM      9  C   UNL     1       6.084  -0.977   0.394  0.00  0.00    -0.082 C 
ATOM     10  C   UNL     1       4.589  -0.795   0.673  0.00  0.00    -0.010 C 
ATOM     11  C   UNL     1       4.258  -0.056   5.533  0.00  0.00    +0.260 C 
ATOM     12  O   UNL     1       5.403  -0.110   5.929  0.00  0.00    -0.271 OA
ATOM     13  H   UNL     1       7.425  -2.512   0.356  0.00  0.00    -0.086 HD
ATOM     14  H   UNL     1       5.881  -2.968   0.009  0.00  0.00    -0.086 HD
ENDROOT
BRANCH  11  15
ATOM     15  C   UNL     1       3.126   0.084   6.517  0.00  0.00    +0.296 C 
ATOM     16  C   UNL     1       2.435   1.441   6.323  0.00  0.00    +0.283 C 
ATOM     17  O   UNL     1       1.376   1.546   7.281  0.00  0.00    -0.484 OA
ATOM     18  C   UNL     1       1.673   1.194   8.561  0.00  0.00    +0.162 A 
ATOM     19  C   UNL     1       0.837   1.602   9.591  0.00  0.00    +0.049 A 
ATOM     20  C   UNL     1       1.123   1.250  10.896  0.00  0.00    +0.004 A 
ATOM     21  C   UNL     1       2.243   0.489  11.179  0.00  0.00    +0.004 A 
ATOM     22  C   UNL     1       3.080   0.080  10.159  0.00  0.00    +0.049 A 
ATOM     23  C   UNL     1       2.799   0.431   8.847  0.00  0.00    +0.163 A 
ATOM     24  O   UNL     1       3.637   0.027   7.853  0.00  0.00    -0.473 OA
ENDBRANCH  11  15
BRANCH   1  26
ATOM     25  N   UNL     1       1.441  -1.474   0.350  0.00  0.00    -0.312 N 
ATOM     26  C   UNL     1       2.054  -0.600   1.174  0.00  0.00    +0.218 C 
ATOM     27  O   UNL     1       2.019   0.588   0.932  0.00  0.00    -0.275 OA
ATOM     28  H   UNL     1       1.469  -2.424   0.544  0.00  0.00    +0.149 HD
BRANCH  25  30
ATOM     29  C   UNL     1      -0.691  -0.580  -0.449  0.00  0.00    +0.028 C 
ATOM     30  C   UNL     1       0.732  -0.988  -0.836  0.00  0.00    +0.074 C 
BRANCH  30  31
ATOM     31  C   UNL     1       0.676  -2.099  -1.887  0.00  0.00    +0.060 C 
BRANCH  31  32
ATOM     32  C   UNL     1       2.072  -2.416  -2.358  0.00  0.00    -0.010 A 
ATOM     33  C   UNL     1       2.572  -1.811  -3.495  0.00  0.00    +0.006 A 
ATOM     34  C   UNL     1       3.853  -2.102  -3.928  0.00  0.00    +0.000 A 
ATOM     35  C   UNL     1       4.635  -2.998  -3.222  0.00  0.00    +0.003 A 
ATOM     36  C   UNL     1       4.137  -3.603  -2.084  0.00  0.00    +0.038 A 
ATOM     37  C   UNL     1       2.857  -3.309  -1.648  0.00  0.00    +0.127 A 
ATOM     38  F   UNL     1       2.371  -3.897  -0.533  0.00  0.00    -0.205 F 
ENDBRANCH  31  32
ENDBRANCH  30  31
ENDBRANCH  25  30
ENDBRANCH   1  26
TORSDOF 5
