REMARK  Name = ZINC15946939
REMARK  12 active torsions:
REMARK  status: ('A' for Active; 'I' for Inactive)
REMARK    1  A    between atoms: C_1  and  C_2
REMARK    2  A    between atoms: C_7  and  C_8
REMARK    3  A    between atoms: C_7  and  N_75
REMARK    4  A    between atoms: C_8  and  C_9
REMARK    5  A    between atoms: N_11  and  C_12
REMARK    6  A    between atoms: C_13  and  C_26
REMARK    7  A    between atoms: C_18  and  C_22
REMARK    8  A    between atoms: C_22  and  C_23
REMARK    9  A    between atoms: C_22  and  C_24
REMARK   10  A    between atoms: C_22  and  C_25
REMARK   11  A    between atoms: N_28  and  C_29
REMARK   12  A    between atoms: C_33  and  N_35
REMARK                            x       y       z     vdW  Elec       q    Type
REMARK                         _______ _______ _______ _____ _____    ______ ____
ROOT
ATOM      1  C   UNL     1       0.150   1.694   0.202  0.00  0.00    +0.084 A 
ATOM      2  C   UNL     1       1.484   2.027   0.011  0.00  0.00    +0.069 A 
ATOM      3  C   UNL     1       2.427   0.938  -0.175  0.00  0.00    -0.023 A 
ATOM      4  C   UNL     1       1.890  -0.301  -0.141  0.00  0.00    -0.004 A 
ATOM      5  S   UNL     1       0.161  -0.037   0.133  0.00  0.00    -0.077 S 
ATOM      6  C   UNL     1       2.612  -1.603  -0.302  0.00  0.00    +0.046 C 
ATOM      7  C   UNL     1       4.003  -1.316  -0.886  0.00  0.00    -0.000 C 
ATOM      8  C   UNL     1       4.645  -0.174  -0.093  0.00  0.00    +0.009 C 
ATOM      9  C   UNL     1       3.921   1.139  -0.395  0.00  0.00    +0.037 C 
ENDROOT
BRANCH   1  12
ATOM     10  C   UNL     1      -2.167   2.031   0.558  0.00  0.00    +0.216 C 
ATOM     11  O   UNL     1      -2.335   0.830   0.537  0.00  0.00    -0.276 OA
ATOM     12  N   UNL     1      -0.931   2.542   0.394  0.00  0.00    -0.279 N 
ATOM     13  H   UNL     1      -0.796   3.503   0.411  0.00  0.00    +0.155 HD
BRANCH  10  14
ATOM     14  C   UNL     1      -3.341   2.953   0.767  0.00  0.00    +0.077 C 
BRANCH  14  15
ATOM     15  C   UNL     1      -4.618   2.124   0.925  0.00  0.00    -0.070 C 
BRANCH  15  22
ATOM     16  C   UNL     1      -9.320   5.373   0.831  0.00  0.00    +0.007 C 
ATOM     17  C   UNL     1      -8.202   4.404   0.439  0.00  0.00    -0.018 C 
ATOM     18  C   UNL     1      -8.188   3.219   1.408  0.00  0.00    -0.016 C 
ATOM     19  C   UNL     1      -7.030   2.285   1.048  0.00  0.00    -0.079 C 
ATOM     20  C   UNL     1      -5.734   4.136   0.173  0.00  0.00    -0.079 C 
ATOM     21  C   UNL     1      -6.853   5.125   0.507  0.00  0.00    -0.016 C 
ATOM     22  N   UNL     1      -5.759   3.033   1.157  0.00  0.00    +0.380 N 
ATOM     23  H   UNL     1      -5.685   3.428   2.102  0.00  0.00    -0.082 HD
ENDBRANCH  15  22
ENDBRANCH  14  15
ENDBRANCH  10  14
ENDBRANCH   1  12
BRANCH   7  24
ATOM     24  C   UNL     1       4.873  -2.570  -0.777  0.00  0.00    -0.035 C 
ATOM     25  C   UNL     1       4.220  -3.713  -1.556  0.00  0.00    +0.011 C 
ATOM     26  C   UNL     1       6.258  -2.281  -1.360  0.00  0.00    +0.011 C 
ATOM     27  C   UNL     1       5.011  -2.968   0.694  0.00  0.00    +0.011 C 
ENDBRANCH   7  24
BRANCH   2  28
ATOM     28  C   UNL     1       1.924   3.425  -0.002  0.00  0.00    +0.251 C 
ATOM     29  O   UNL     1       2.266   3.965   1.033  0.00  0.00    -0.270 OA
ATOM     30  N   UNL     1       1.950   4.113  -1.161  0.00  0.00    -0.281 N 
ATOM     31  H   UNL     1       1.751   3.662  -1.997  0.00  0.00    +0.155 HD
BRANCH  30  32
ATOM     32  C   UNL     1       2.264   5.476  -1.159  0.00  0.00    +0.036 A 
ATOM     33  C   UNL     1       2.950   6.034  -2.230  0.00  0.00    +0.023 A 
ATOM     34  C   UNL     1       3.258   7.380  -2.224  0.00  0.00    +0.004 A 
ATOM     35  C   UNL     1       2.884   8.172  -1.154  0.00  0.00    +0.033 A 
ATOM     36  C   UNL     1       2.201   7.620  -0.086  0.00  0.00    +0.128 A 
ATOM     37  C   UNL     1       1.885   6.275  -0.088  0.00  0.00    +0.056 A 
BRANCH  36  38
ATOM     38  N   UNL     1       1.804   8.471   1.057  0.00  0.00    +0.056 N 
ATOM     39  O   UNL     1       2.078   9.658   1.057  0.00  0.00    -0.126 OA
ATOM     40  O   UNL     1       1.202   7.985   1.998  0.00  0.00    -0.126 OA
ENDBRANCH  36  38
ENDBRANCH  30  32
ENDBRANCH   2  28
TORSDOF 8
