REMARK  Name = ZINC36027398
REMARK  9 active torsions:
REMARK  status: ('A' for Active; 'I' for Inactive)
REMARK    1  A    between atoms: C_1  and  C_2
REMARK    2  A    between atoms: C_2  and  C_3
REMARK    3  A    between atoms: C_3  and  C_5
REMARK    4  A    between atoms: C_3  and  C_6
REMARK    5  A    between atoms: C_6  and  N_7
REMARK    6  A    between atoms: C_10  and  C_29
REMARK    7  A    between atoms: N_16  and  S_19
REMARK    8  A    between atoms: S_19  and  C_22
REMARK    9  A    between atoms: C_29  and  C_30
REMARK                            x       y       z     vdW  Elec       q    Type
REMARK                         _______ _______ _______ _____ _____    ______ ____
ROOT
ATOM      1  N   UNL     1       1.465  -2.663  -2.258  0.00  0.00    -0.313 N 
ATOM      2  C   UNL     1       0.887  -2.808  -3.469  0.00  0.00    +0.201 C 
ATOM      3  O   UNL     1      -0.250  -2.498  -3.752  0.00  0.00    -0.277 OA
ATOM      4  C   UNL     1       1.898  -3.422  -4.413  0.00  0.00    +0.023 C 
ATOM      5  N   UNL     1       3.207  -3.230  -3.743  0.00  0.00    +0.401 N 
ATOM      6  C   UNL     1       2.846  -3.152  -2.313  0.00  0.00    +0.006 C 
ATOM      7  C   UNL     1       2.940  -4.541  -1.685  0.00  0.00    +0.023 C 
ATOM      8  C   UNL     1       2.528  -4.461  -0.211  0.00  0.00    +0.109 C 
ATOM      9  N   UNL     1       3.342  -3.433   0.452  0.00  0.00    -0.177 NA
ATOM     10  C   UNL     1       3.376  -2.080  -0.121  0.00  0.00    +0.109 C 
ATOM     11  C   UNL     1       3.780  -2.180  -1.596  0.00  0.00    +0.023 C 
ATOM     12  H   UNL     1       3.815  -4.016  -3.917  0.00  0.00    -0.082 HD
ATOM     13  H   UNL     1       3.639  -2.369  -4.045  0.00  0.00    -0.082 HD
ENDROOT
BRANCH   9  14
ATOM     14  S   UNL     1       4.204  -3.792   1.819  0.00  0.00    +0.061 S 
ATOM     15  O   UNL     1       4.401  -2.565   2.509  0.00  0.00    -0.153 OA
ATOM     16  O   UNL     1       3.566  -4.910   2.420  0.00  0.00    -0.153 OA
BRANCH  14  17
ATOM     17  C   UNL     1       5.797  -4.340   1.302  0.00  0.00    +0.107 A 
ATOM     18  C   UNL     1       6.019  -5.681   1.051  0.00  0.00    +0.028 A 
ATOM     19  C   UNL     1       7.268  -6.111   0.645  0.00  0.00    +0.003 A 
ATOM     20  C   UNL     1       8.297  -5.201   0.490  0.00  0.00    +0.020 A 
ATOM     21  C   UNL     1       8.075  -3.859   0.741  0.00  0.00    +0.043 A 
ATOM     22  C   UNL     1       6.823  -3.428   1.142  0.00  0.00    +0.048 A 
ATOM     23 CL   UNL     1       9.366  -2.715   0.547  0.00  0.00    -0.083 Cl
ENDBRANCH  14  17
ENDBRANCH   9  14
BRANCH   1  24
ATOM     24  C   UNL     1       0.816  -2.097  -1.073  0.00  0.00    +0.109 C 
BRANCH  24  25
ATOM     25  C   UNL     1       0.712  -0.578  -1.224  0.00  0.00    +0.003 C 
ATOM     26  C   UNL     1       2.088  -0.005  -1.569  0.00  0.00    +0.009 C 
BRANCH  25  28
ATOM     27  C   UNL     1      -0.003   1.534  -0.098  0.00  0.00    +0.004 C 
ATOM     28  C   UNL     1       0.220   0.032   0.090  0.00  0.00    +0.001 C 
ENDBRANCH  25  28
ENDBRANCH  24  25
ENDBRANCH   1  24
BRANCH   4  29
ATOM     29  C   UNL     1       1.610  -4.913  -4.606  0.00  0.00    +0.028 C 
BRANCH  29  30
ATOM     30  C   UNL     1       2.543  -5.474  -5.647  0.00  0.00    -0.048 A 
ATOM     31  C   UNL     1       2.178  -5.462  -6.981  0.00  0.00    +0.003 A 
ATOM     32  C   UNL     1       3.034  -5.977  -7.936  0.00  0.00    +0.000 A 
ATOM     33  C   UNL     1       4.255  -6.503  -7.559  0.00  0.00    +0.000 A 
ATOM     34  C   UNL     1       4.620  -6.515  -6.225  0.00  0.00    +0.000 A 
ATOM     35  C   UNL     1       3.766  -5.996  -5.270  0.00  0.00    +0.003 A 
ENDBRANCH  29  30
ENDBRANCH   4  29
TORSDOF 7
