REMARK  Name = ZINC01075358
REMARK  8 active torsions:
REMARK  status: ('A' for Active; 'I' for Inactive)
REMARK    1  A    between atoms: C_1  and  C_2
REMARK    2  A    between atoms: C_2  and  C_22
REMARK    3  A    between atoms: C_6  and  N_9
REMARK    4  A    between atoms: C_10  and  C_20
REMARK    5  A    between atoms: C_10  and  C_21
REMARK    6  A    between atoms: N_11  and  O_12
REMARK    7  A    between atoms: O_12  and  C_13
REMARK    8  A    between atoms: C_13  and  C_15
REMARK                            x       y       z     vdW  Elec       q    Type
REMARK                         _______ _______ _______ _____ _____    ______ ____
ROOT
ATOM      1  C   UNL     1      -0.019   1.536   0.011  0.00  0.00    +0.031 C 
ATOM      2  C   UNL     1       0.002  -0.004   0.002  0.00  0.00    +0.059 C 
ATOM      3  C   UNL     1      -1.453  -0.497  -0.013  0.00  0.00    +0.084 C 
ATOM      4  C   UNL     1      -1.406  -2.001   0.113  0.00  0.00    +0.092 A 
ATOM      5  C   UNL     1      -0.362  -2.648   0.810  0.00  0.00    +0.059 A 
ATOM      6  C   UNL     1      -0.597  -3.976   0.751  0.00  0.00    +0.221 A 
ATOM      7  O   UNL     1      -1.729  -4.166   0.041  0.00  0.00    -0.339 OA
ATOM      8  N   UNL     1      -2.221  -2.893  -0.344  0.00  0.00    -0.081 NA
ATOM      9  C   UNL     1       0.760  -1.895   1.475  0.00  0.00    +0.084 C 
ATOM     10  N   UNL     1       0.707  -0.468   1.183  0.00  0.00    -0.123 NA
ATOM     11  C   UNL     1       0.643  -2.090   2.999  0.00  0.00    +0.036 C 
ATOM     12  C   UNL     1       2.113  -2.468   1.027  0.00  0.00    +0.036 C 
ATOM     13  C   UNL     1       0.703  -0.460  -1.280  0.00  0.00    +0.031 C 
ENDROOT
BRANCH   6  14
ATOM     14  N   UNL     1       0.160  -4.989   1.313  0.00  0.00    -0.327 N 
ATOM     15  H   UNL     1       0.960  -4.774   1.817  0.00  0.00    +0.145 HD
ATOM     16  H   UNL     1      -0.110  -5.914   1.203  0.00  0.00    +0.145 HD
ENDBRANCH   6  14
BRANCH  10  17
ATOM     17  O   UNL     1       0.373   0.321   2.368  0.00  0.00    -0.361 OA
BRANCH  17  18
ATOM     18  C   UNL     1       1.433   0.936   2.933  0.00  0.00    +0.365 C 
ATOM     19  O   UNL     1       2.541   0.805   2.450  0.00  0.00    -0.243 OA
BRANCH  18  20
ATOM     20  C   UNL     1       1.248   1.760   4.129  0.00  0.00    +0.098 A 
ATOM     21  C   UNL     1       2.192   2.474   4.853  0.00  0.00    +0.023 A 
ATOM     22  C   UNL     1       1.713   3.163   5.941  0.00  0.00    +0.008 A 
ATOM     23  C   UNL     1       0.389   3.102   6.230  0.00  0.00    +0.046 A 
ATOM     24  S   UNL     1      -0.249   2.116   5.029  0.00  0.00    -0.090 S 
ENDBRANCH  18  20
ENDBRANCH  17  18
ENDBRANCH  10  17
TORSDOF 4
