REMARK  Name = ZINC02647882
REMARK  3 active torsions:
REMARK  status: ('A' for Active; 'I' for Inactive)
REMARK    1  A    between atoms: C_11  and  C_23
REMARK    2  A    between atoms: C_14  and  C_16
REMARK    3  A    between atoms: C_27  and  N_29
REMARK                            x       y       z     vdW  Elec       q    Type
REMARK                         _______ _______ _______ _____ _____    ______ ____
ROOT
ATOM      1  C   UNL     1      -1.975   7.719   5.202  0.00  0.00    +0.001 A 
ATOM      2  C   UNL     1      -1.119   6.778   5.750  0.00  0.00    +0.002 A 
ATOM      3  C   UNL     1      -0.378   5.910   4.967  0.00  0.00    +0.026 A 
ATOM      4  C   UNL     1      -0.526   6.021   3.586  0.00  0.00    +0.047 A 
ATOM      5  C   UNL     1      -1.404   6.988   3.030  0.00  0.00    +0.004 A 
ATOM      6  C   UNL     1      -2.141   7.852   3.845  0.00  0.00    +0.010 A 
ATOM      7  C   UNL     1      -1.312   6.829   1.596  0.00  0.00    -0.015 A 
ATOM      8  C   UNL     1      -0.433   5.827   1.360  0.00  0.00    +0.011 A 
ATOM      9  N   UNL     1       0.041   5.339   2.547  0.00  0.00    -0.359 N 
ATOM     10  H   UNL     1       0.683   4.618   2.638  0.00  0.00    +0.166 HD
ATOM     11  C   UNL     1      -0.071   5.360  -0.030  0.00  0.00    +0.007 C 
ATOM     12  C   UNL     1      -1.285   7.312  -0.818  0.00  0.00    -0.068 C 
ATOM     13  C   UNL     1      -2.018   7.589   0.502  0.00  0.00    +0.036 C 
ATOM     14  N   UNL     1      -1.087   5.857  -0.983  0.00  0.00    +0.388 N 
ATOM     15  H   UNL     1      -1.976   5.373  -0.811  0.00  0.00    -0.084 HD
ATOM     16  H   UNL     1      -0.773   5.665  -1.942  0.00  0.00    -0.084 HD
ENDROOT
BRANCH  13  17
ATOM     17  C   UNL     1      -3.448   7.125   0.400  0.00  0.00    -0.023 A 
ATOM     18  C   UNL     1      -3.728   5.780   0.242  0.00  0.00    +0.005 A 
ATOM     19  C   UNL     1      -5.040   5.353   0.152  0.00  0.00    +0.000 A 
ATOM     20  C   UNL     1      -6.072   6.271   0.211  0.00  0.00    +0.001 A 
ATOM     21  C   UNL     1      -5.792   7.616   0.363  0.00  0.00    +0.020 A 
ATOM     22  C   UNL     1      -4.480   8.044   0.458  0.00  0.00    +0.045 A 
ATOM     23 CL   UNL     1      -4.128   9.733   0.649  0.00  0.00    -0.083 Cl
ENDBRANCH  13  17
BRANCH  11  24
ATOM     24  C   UNL     1      -0.048   3.854  -0.068  0.00  0.00    -0.054 A 
ATOM     25  C   UNL     1      -1.216   3.151  -0.298  0.00  0.00    +0.002 A 
ATOM     26  C   UNL     1      -1.194   1.770  -0.340  0.00  0.00    +0.002 A 
ATOM     27  C   UNL     1      -0.007   1.091  -0.140  0.00  0.00    +0.033 A 
ATOM     28  C   UNL     1       1.161   1.794   0.090  0.00  0.00    +0.126 A 
ATOM     29  C   UNL     1       1.140   3.175   0.126  0.00  0.00    +0.035 A 
BRANCH  28  30
ATOM     30  N   UNL     1       2.434   1.067   0.298  0.00  0.00    +0.056 N 
ATOM     31  O   UNL     1       2.452  -0.151   0.266  0.00  0.00    -0.126 OA
ATOM     32  O   UNL     1       3.463   1.686   0.500  0.00  0.00    -0.126 OA
ENDBRANCH  28  30
ENDBRANCH  11  24
TORSDOF 3
