REMARK  Name = ZINC11996550
REMARK  11 active torsions:
REMARK  status: ('A' for Active; 'I' for Inactive)
REMARK    1  A    between atoms: C_1  and  C_2
REMARK    2  A    between atoms: C_2  and  O_3
REMARK    3  A    between atoms: O_3  and  C_4
REMARK    4  A    between atoms: C_4  and  C_6
REMARK    5  A    between atoms: C_7  and  C_25
REMARK    6  A    between atoms: C_10  and  N_11
REMARK    7  A    between atoms: C_12  and  C_14
REMARK    8  A    between atoms: C_14  and  N_57
REMARK    9  A    between atoms: C_16  and  C_23
REMARK   10  A    between atoms: C_19  and  C_22
REMARK   11  A    between atoms: C_28  and  C_31
REMARK                            x       y       z     vdW  Elec       q    Type
REMARK                         _______ _______ _______ _____ _____    ______ ____
ROOT
ATOM      1  C   UNL     1      -2.192   0.998   7.347  0.00  0.00    +0.096 A 
ATOM      2  C   UNL     1      -1.236   0.496   8.316  0.00  0.00    +0.019 A 
ATOM      3  C   UNL     1      -0.080  -0.019   7.822  0.00  0.00    +0.065 A 
ATOM      4  S   UNL     1      -0.272   0.158   6.061  0.00  0.00    -0.065 S 
ATOM      5  C   UNL     1      -1.839   0.892   6.008  0.00  0.00    +0.087 A 
ATOM      6 BR   UNL     1       1.382  -0.748   8.776  0.00  0.00    -0.042 Br
ENDROOT
BRANCH   2   7
ATOM      7  C   UNL     1      -1.504   0.549   9.773  0.00  0.00    -0.015 A 
ATOM      8  C   UNL     1      -2.549  -0.195  10.319  0.00  0.00    +0.009 A 
ATOM      9  C   UNL     1      -2.791  -0.145  11.677  0.00  0.00    +0.004 A 
ATOM     10  C   UNL     1      -2.005   0.648  12.494  0.00  0.00    -0.050 A 
ATOM     11  C   UNL     1      -0.970   1.393  11.956  0.00  0.00    +0.004 A 
ATOM     12  C   UNL     1      -0.716   1.347  10.601  0.00  0.00    +0.009 A 
ATOM     13  C   UNL     1      -2.278   0.702  13.975  0.00  0.00    +0.044 C 
ENDBRANCH   2   7
BRANCH   5  14
ATOM     14  N   UNL     1      -2.565   1.286   4.896  0.00  0.00    -0.281 N 
ATOM     15  C   UNL     1      -2.055   1.109   3.661  0.00  0.00    +0.201 C 
ATOM     16  O   UNL     1      -0.960   0.604   3.523  0.00  0.00    -0.278 OA
ATOM     17  H   UNL     1      -3.440   1.690   5.006  0.00  0.00    +0.155 HD
BRANCH  15  18
ATOM     18  C   UNL     1      -2.844   1.538   2.451  0.00  0.00    +0.019 C 
BRANCH  18  26
ATOM     19  C   UNL     1      -2.755   1.705   0.035  0.00  0.00    -0.046 C 
ATOM     20  C   UNL     1      -1.963   1.275  -1.202  0.00  0.00    +0.099 C 
ATOM     21  O   UNL     1      -1.930  -0.153  -1.269  0.00  0.00    -0.378 OA
ATOM     22  C   UNL     1      -1.343  -0.770  -0.120  0.00  0.00    +0.099 C 
ATOM     23  C   UNL     1      -2.129  -0.362   1.129  0.00  0.00    -0.046 C 
ATOM     24  C   UNL     1      -1.389  -2.291  -0.278  0.00  0.00    +0.036 C 
ATOM     25  C   UNL     1      -2.637   1.830  -2.458  0.00  0.00    +0.036 C 
ATOM     26  N   UNL     1      -2.121   1.112   1.233  0.00  0.00    +0.389 N 
ATOM     27  H   UNL     1      -1.149   1.438   1.292  0.00  0.00    -0.081 HD
ENDBRANCH  18  26
ENDBRANCH  15  18
ENDBRANCH   5  14
BRANCH   1  28
ATOM     28  C   UNL     1      -3.468   1.581   7.760  0.00  0.00    +0.342 C 
ATOM     29  O   UNL     1      -4.448   0.872   7.888  0.00  0.00    -0.245 OA
BRANCH  28  30
ATOM     30  O   UNL     1      -3.558   2.906   7.998  0.00  0.00    -0.461 OA
BRANCH  30  32
ATOM     31  C   UNL     1      -4.762   4.927   8.627  0.00  0.00    +0.048 C 
ATOM     32  C   UNL     1      -4.856   3.416   8.404  0.00  0.00    +0.229 C 
ENDBRANCH  30  32
ENDBRANCH  28  30
ENDBRANCH   1  28
TORSDOF 7
