REMARK  Name = ZINC40050507
REMARK  3 active torsions:
REMARK  status: ('A' for Active; 'I' for Inactive)
REMARK    1  A    between atoms: C_1  and  C_2
REMARK    2  A    between atoms: N_7  and  C_8
REMARK    3  A    between atoms: C_15  and  C_17
REMARK                            x       y       z     vdW  Elec       q    Type
REMARK                         _______ _______ _______ _____ _____    ______ ____
ROOT
ATOM      1  C   UNL     1       1.034   1.368  -0.083  0.00  0.00    +0.044 C 
ATOM      2  C   UNL     1       0.749  -0.112  -0.069  0.00  0.00    -0.046 A 
ATOM      3  C   UNL     1       0.674  -0.827  -1.279  0.00  0.00    +0.021 A 
ATOM      4  C   UNL     1       0.420  -2.150  -1.277  0.00  0.00    +0.096 A 
ATOM      5  N   UNL     1       0.230  -2.824  -0.099  0.00  0.00    -0.273 N 
ATOM      6  C   UNL     1       0.298  -2.149   1.104  0.00  0.00    +0.114 A 
ATOM      7  N   UNL     1       0.117  -2.793   2.235  0.00  0.00    -0.368 N 
ATOM      8  C   UNL     1       0.570  -0.759   1.110  0.00  0.00    +0.048 A 
ATOM      9  C   UNL     1      -0.023  -4.147  -0.115  0.00  0.00    +0.241 C 
ATOM     10  O   UNL     1      -0.127  -4.757   0.928  0.00  0.00    -0.272 OA
ATOM     11  H   UNL     1       0.033  -3.759   2.235  0.00  0.00    +0.161 HD
ENDROOT
BRANCH   9  12
ATOM     12  C   UNL     1      -0.178  -4.869  -1.429  0.00  0.00    +0.119 C 
ATOM     13  C   UNL     1      -1.439  -4.373  -2.137  0.00  0.00    +0.113 C 
ATOM     14  C   UNL     1      -2.662  -4.882  -1.421  0.00  0.00    +0.218 C 
ATOM     15  O   UNL     1      -3.653  -4.185  -1.359  0.00  0.00    -0.275 OA
ATOM     16  N   UNL     1      -2.669  -6.100  -0.850  0.00  0.00    -0.285 N 
ATOM     17  C   UNL     1      -1.531  -6.911  -0.897  0.00  0.00    +0.040 A 
ATOM     18  C   UNL     1      -0.291  -6.350  -1.177  0.00  0.00    -0.013 A 
ATOM     19  C   UNL     1       0.833  -7.150  -1.224  0.00  0.00    +0.009 A 
ATOM     20  C   UNL     1       0.727  -8.509  -0.992  0.00  0.00    +0.039 A 
ATOM     21  C   UNL     1      -0.507  -9.072  -0.713  0.00  0.00    +0.125 A 
ATOM     22  C   UNL     1      -1.636  -8.275  -0.665  0.00  0.00    +0.062 A 
ATOM     23  F   UNL     1      -0.608 -10.400  -0.488  0.00  0.00    -0.205 F 
ATOM     24  H   UNL     1      -3.469  -6.418  -0.403  0.00  0.00    +0.155 HD
ENDBRANCH   9  12
BRANCH   7  25
ATOM     25  C   UNL     1       0.041  -2.051   3.496  0.00  0.00    +0.081 C 
ATOM     26  C   UNL     1       1.453  -1.808   4.031  0.00  0.00    +0.024 C 
ATOM     27  C   UNL     1       1.374  -1.033   5.348  0.00  0.00    +0.002 C 
ATOM     28  C   UNL     1       0.574  -1.845   6.370  0.00  0.00    +0.000 C 
ATOM     29  C   UNL     1      -0.838  -2.088   5.835  0.00  0.00    +0.002 C 
ATOM     30  C   UNL     1      -0.759  -2.862   4.518  0.00  0.00    +0.024 C 
ENDBRANCH   7  25
TORSDOF 2
