REMARK  Name = ZINC07242342
REMARK  5 active torsions:
REMARK  status: ('A' for Active; 'I' for Inactive)
REMARK    1  A    between atoms: C_1  and  C_2
REMARK    2  A    between atoms: C_2  and  C_4
REMARK    3  A    between atoms: C_2  and  N_17
REMARK    4  A    between atoms: N_6  and  C_7
REMARK    5  A    between atoms: N_17  and  C_18
REMARK                            x       y       z     vdW  Elec       q    Type
REMARK                         _______ _______ _______ _____ _____    ______ ____
ROOT
ATOM      1  C   UNL     1       3.639  -2.007   0.050  0.00  0.00    +0.237 C 
ATOM      2  O   UNL     1       2.597  -2.628   0.058  0.00  0.00    -0.273 OA
ATOM      3  N   UNL     1       3.621  -0.663  -0.044  0.00  0.00    -0.284 N 
ATOM      4  H   UNL     1       4.454  -0.171  -0.119  0.00  0.00    +0.155 HD
ENDROOT
BRANCH   3   5
ATOM      5  C   UNL     1       2.401   0.024  -0.034  0.00  0.00    +0.037 A 
ATOM      6  C   UNL     1       2.309   1.268   0.577  0.00  0.00    +0.027 A 
ATOM      7  C   UNL     1       1.105   1.945   0.588  0.00  0.00    +0.051 A 
ATOM      8  C   UNL     1      -0.015   1.387  -0.010  0.00  0.00    +0.162 A 
ATOM      9  C   UNL     1       0.074   0.143  -0.624  0.00  0.00    +0.164 A 
ATOM     10  C   UNL     1       1.282  -0.537  -0.634  0.00  0.00    +0.072 A 
ATOM     11  O   UNL     1      -1.012  -0.418  -1.223  0.00  0.00    -0.485 OA
ATOM     12  C   UNL     1      -2.291   0.120  -0.870  0.00  0.00    +0.270 C 
ATOM     13  C   UNL     1      -2.198   1.651  -0.916  0.00  0.00    +0.270 C 
ATOM     14  O   UNL     1      -1.195   2.066   0.018  0.00  0.00    -0.485 OA
ENDBRANCH   3   5
BRANCH   1  16
ATOM     15  C   UNL     1       5.709  -2.272   1.389  0.00  0.00    +0.038 C 
ATOM     16  C   UNL     1       4.953  -2.739   0.143  0.00  0.00    +0.154 C 
BRANCH  16  17
ATOM     17  N   UNL     1       4.704  -4.180   0.235  0.00  0.00    -0.333 N 
ATOM     18  H   UNL     1       3.860  -4.505   0.586  0.00  0.00    +0.147 HD
BRANCH  17  19
ATOM     19  C   UNL     1       5.682  -5.086  -0.183  0.00  0.00    +0.028 A 
ATOM     20  C   UNL     1       6.889  -4.623  -0.691  0.00  0.00    +0.023 A 
ATOM     21  C   UNL     1       7.853  -5.522  -1.097  0.00  0.00    +0.006 A 
ATOM     22  C   UNL     1       7.619  -6.885  -1.012  0.00  0.00    -0.044 A 
ATOM     23  C   UNL     1       6.416  -7.349  -0.511  0.00  0.00    -0.042 A 
ATOM     24  C   UNL     1       5.448  -6.451  -0.097  0.00  0.00    +0.026 A 
ATOM     25  C   UNL     1       6.408  -8.863  -0.521  0.00  0.00    +0.036 C 
ATOM     26  C   UNL     1       7.548  -9.267  -1.481  0.00  0.00    +0.009 C 
ATOM     27  C   UNL     1       8.500  -8.056  -1.392  0.00  0.00    +0.036 C 
ENDBRANCH  17  19
ENDBRANCH  16  17
ENDBRANCH   1  16
TORSDOF 4
