REMARK  Name = ZINC22644752
REMARK  8 active torsions:
REMARK  status: ('A' for Active; 'I' for Inactive)
REMARK    1  A    between atoms: C_1  and  C_2
REMARK    2  A    between atoms: C_11  and  N_30
REMARK    3  A    between atoms: C_13  and  S_15
REMARK    4  A    between atoms: S_15  and  C_16
REMARK    5  A    between atoms: C_16  and  C_17
REMARK    6  A    between atoms: N_19  and  C_20
REMARK    7  A    between atoms: C_24  and  S_26
REMARK    8  A    between atoms: S_26  and  C_29
REMARK                            x       y       z     vdW  Elec       q    Type
REMARK                         _______ _______ _______ _____ _____    ______ ____
ROOT
ATOM      1  C   UNL     1     -12.410  -7.207  -2.139  0.00  0.00    +0.008 C 
ATOM      2  C   UNL     1     -11.136  -6.360  -2.091  0.00  0.00    -0.009 C 
ATOM      3  C   UNL     1     -11.287  -5.263  -1.033  0.00  0.00    +0.008 C 
ATOM      4  C   UNL     1     -10.131  -4.269  -1.148  0.00  0.00    +0.037 C 
ATOM      5  C   UNL     1      -8.814  -5.040  -1.115  0.00  0.00    -0.025 A 
ATOM      6  C   UNL     1      -8.782  -6.362  -1.373  0.00  0.00    -0.004 A 
ATOM      7  S   UNL     1      -7.077  -6.822  -1.222  0.00  0.00    -0.073 S 
ATOM      8  C   UNL     1      -6.406  -5.232  -0.813  0.00  0.00    +0.115 A 
ATOM      9  C   UNL     1      -7.537  -4.392  -0.805  0.00  0.00    +0.051 A 
ATOM     10  C   UNL     1      -7.284  -3.026  -0.499  0.00  0.00    +0.129 A 
ATOM     11  N   UNL     1      -6.046  -2.639  -0.241  0.00  0.00    -0.207 NA
ATOM     12  C   UNL     1      -5.022  -3.485  -0.270  0.00  0.00    +0.191 A 
ATOM     13  N   UNL     1      -5.199  -4.769  -0.550  0.00  0.00    -0.214 NA
ATOM     14  C   UNL     1      -9.942  -7.248  -1.713  0.00  0.00    +0.046 C 
ENDROOT
BRANCH  10  15
ATOM     15  N   UNL     1      -8.323  -2.113  -0.464  0.00  0.00    -0.343 N 
ATOM     16  H   UNL     1      -8.121  -1.058  -0.226  0.00  0.00    +0.144 HD
ATOM     17  H   UNL     1      -9.351  -2.442  -0.674  0.00  0.00    +0.144 HD
ENDBRANCH  10  15
BRANCH  12  18
ATOM     18  S   UNL     1      -3.400  -2.890   0.076  0.00  0.00    -0.077 S 
BRANCH  18  19
ATOM     19  C   UNL     1      -3.763  -1.142   0.373  0.00  0.00    +0.173 C 
BRANCH  19  20
ATOM     20  C   UNL     1      -2.485  -0.412   0.698  0.00  0.00    +0.227 C 
ATOM     21  O   UNL     1      -1.433  -1.015   0.727  0.00  0.00    -0.275 OA
ATOM     22  N   UNL     1      -2.511   0.910   0.957  0.00  0.00    -0.285 N 
ATOM     23  H   UNL     1      -3.474   1.440   1.016  0.00  0.00    +0.155 HD
BRANCH  22  24
ATOM     24  C   UNL     1      -1.315   1.609   1.150  0.00  0.00    +0.035 A 
ATOM     25  C   UNL     1      -0.171   1.236   0.457  0.00  0.00    +0.023 A 
ATOM     26  C   UNL     1       1.007   1.931   0.646  0.00  0.00    +0.004 A 
ATOM     27  C   UNL     1       1.050   2.996   1.528  0.00  0.00    +0.027 A 
ATOM     28  C   UNL     1      -0.086   3.367   2.223  0.00  0.00    +0.090 A 
ATOM     29  C   UNL     1      -1.267   2.675   2.039  0.00  0.00    +0.050 A 
BRANCH  28  30
ATOM     30  S   UNL     1      -0.027   4.724   3.345  0.00  0.00    -0.006 S 
ATOM     31  O   UNL     1      -1.059   4.462   4.286  0.00  0.00    -0.170 OA
ATOM     32  O   UNL     1       1.331   4.793   3.759  0.00  0.00    -0.170 OA
ATOM     33  C   UNL     1      -0.449   6.176   2.343  0.00  0.00    +0.200 C 
ENDBRANCH  28  30
ENDBRANCH  22  24
ENDBRANCH  19  20
ENDBRANCH  18  19
ENDBRANCH  12  18
TORSDOF 6
