REMARK  Name = ZINC39456542
REMARK  7 active torsions:
REMARK  status: ('A' for Active; 'I' for Inactive)
REMARK    1  A    between atoms: C_1  and  C_2
REMARK    2  A    between atoms: C_3  and  S_35
REMARK    3  A    between atoms: N_6  and  C_7
REMARK    4  A    between atoms: C_12  and  O_13
REMARK    5  A    between atoms: C_16  and  C_24
REMARK    6  A    between atoms: C_29  and  O_30
REMARK    7  A    between atoms: S_35  and  C_36
REMARK                            x       y       z     vdW  Elec       q    Type
REMARK                         _______ _______ _______ _____ _____    ______ ____
ROOT
ATOM      1  C   UNL     1      -0.018   1.503   0.010  0.00  0.00    +0.065 C 
ATOM      2  C   UNL     1       0.002  -0.004   0.002  0.00  0.00    +0.035 A 
ATOM      3  C   UNL     1       0.008  -0.793  -1.106  0.00  0.00    +0.032 A 
ATOM      4  C   UNL     1       0.025  -2.126  -0.679  0.00  0.00    -0.006 A 
ATOM      5  C   UNL     1       0.046  -2.110   0.694  0.00  0.00    +0.077 A 
ATOM      6  N   UNL     1       0.024  -0.810   1.109  0.00  0.00    -0.307 N 
ATOM      7  C   UNL     1       0.113  -3.345   1.496  0.00  0.00    +0.100 A 
ATOM      8  C   UNL     1       1.073  -4.364   1.049  0.00  0.00    +0.053 A 
ATOM      9  C   UNL     1       1.150  -5.572   1.749  0.00  0.00    +0.007 A 
ATOM     10  C   UNL     1       0.302  -5.732   2.877  0.00  0.00    +0.009 A 
ATOM     11  C   UNL     1       0.326  -6.921   3.621  0.00  0.00    +0.010 A 
ATOM     12  C   UNL     1      -0.482  -7.054   4.711  0.00  0.00    +0.001 A 
ATOM     13  C   UNL     1      -1.335  -6.022   5.094  0.00  0.00    +0.002 A 
ATOM     14  C   UNL     1      -1.389  -4.859   4.390  0.00  0.00    +0.028 A 
ATOM     15  C   UNL     1      -0.573  -4.686   3.256  0.00  0.00    +0.072 A 
ATOM     16  N   UNL     1      -0.638  -3.546   2.555  0.00  0.00    -0.244 NA
ATOM     17  C   UNL     1       1.923  -4.062  -0.095  0.00  0.00    +0.166 C 
ATOM     18  O   UNL     1       3.095  -3.802   0.085  0.00  0.00    -0.292 OA
ATOM     19  C   UNL     1       1.373  -4.067  -1.503  0.00  0.00    +0.084 C 
ATOM     20  C   UNL     1       0.005  -3.373  -1.517  0.00  0.00    +0.046 C 
ENDROOT
BRANCH   6  21
ATOM     21  C   UNL     1       0.019  -0.374   2.441  0.00  0.00    +0.089 A 
ATOM     22  C   UNL     1      -1.183  -0.190   3.109  0.00  0.00    +0.030 A 
ATOM     23  C   UNL     1      -1.185   0.240   4.422  0.00  0.00    +0.002 A 
ATOM     24  C   UNL     1       0.010   0.488   5.074  0.00  0.00    +0.004 A 
ATOM     25  C   UNL     1       1.211   0.306   4.416  0.00  0.00    +0.047 A 
ATOM     26  C   UNL     1       1.222  -0.131   3.100  0.00  0.00    +0.141 A 
BRANCH  26  27
ATOM     27  O   UNL     1       2.403  -0.316   2.453  0.00  0.00    -0.505 OA
ATOM     28  H   UNL     1       2.726   0.470   1.991  0.00  0.00    +0.292 HD
ENDBRANCH  26  27
ENDBRANCH   6  21
BRANCH   9  29
ATOM     29  C   UNL     1       2.078  -6.641   1.331  0.00  0.00    +0.025 A 
ATOM     30  C   UNL     1       3.375  -6.687   1.847  0.00  0.00    +0.012 A 
ATOM     31  C   UNL     1       4.237  -7.688   1.452  0.00  0.00    +0.001 A 
ATOM     32  C   UNL     1       3.822  -8.650   0.546  0.00  0.00    +0.004 A 
ATOM     33  C   UNL     1       2.542  -8.616   0.027  0.00  0.00    +0.046 A 
ATOM     34  C   UNL     1       1.660  -7.620   0.418  0.00  0.00    +0.125 A 
BRANCH  34  35
ATOM     35  O   UNL     1       0.400  -7.589  -0.086  0.00  0.00    -0.506 OA
ATOM     36  H   UNL     1       0.315  -7.075  -0.901  0.00  0.00    +0.292 HD
ENDBRANCH  34  35
ENDBRANCH   9  29
BRANCH   3  37
ATOM     37  S   UNL     1      -0.003  -0.237  -2.778  0.00  0.00    -0.127 S 
ATOM     38  C   UNL     1       1.754  -0.078  -3.200  0.00  0.00    +0.090 C 
ENDBRANCH   3  37
TORSDOF 5
