REMARK  Name = ZINC64716252
REMARK  8 active torsions:
REMARK  status: ('A' for Active; 'I' for Inactive)
REMARK    1  A    between atoms: C_1  and  C_2
REMARK    2  A    between atoms: C_4  and  N_11
REMARK    3  A    between atoms: C_5  and  O_9
REMARK    4  A    between atoms: O_9  and  C_10
REMARK    5  A    between atoms: C_12  and  C_14
REMARK    6  A    between atoms: C_14  and  N_15
REMARK    7  A    between atoms: C_18  and  C_23
REMARK    8  A    between atoms: C_23  and  C_24
REMARK                            x       y       z     vdW  Elec       q    Type
REMARK                         _______ _______ _______ _____ _____    ______ ____
ROOT
ATOM      1  N   UNL     1      -0.315  -1.893  -5.995  0.00  0.00    -0.216 N 
ATOM      2  C   UNL     1      -1.485  -1.412  -6.461  0.00  0.00    +0.244 C 
ATOM      3  O   UNL     1      -2.597  -1.677  -6.058  0.00  0.00    -0.273 OA
ATOM      4  C   UNL     1      -1.120  -0.471  -7.592  0.00  0.00    +0.165 C 
ATOM      5  N   UNL     1       0.351  -0.537  -7.637  0.00  0.00    -0.287 N 
ATOM      6  C   UNL     1       0.728  -1.388  -6.665  0.00  0.00    +0.310 C 
ATOM      7  O   UNL     1       1.885  -1.669  -6.425  0.00  0.00    -0.252 OA
ATOM      8  H   UNL     1       0.934  -0.059  -8.246  0.00  0.00    +0.151 HD
ENDROOT
BRANCH   1   9
ATOM      9  C   UNL     1      -0.199  -2.845  -4.889  0.00  0.00    +0.214 C 
BRANCH   9  11
ATOM     10  N   UNL     1       0.028  -2.768  -2.427  0.00  0.00    -0.281 N 
ATOM     11  C   UNL     1      -0.089  -2.093  -3.588  0.00  0.00    +0.235 C 
ATOM     12  O   UNL     1      -0.106  -0.880  -3.585  0.00  0.00    -0.274 OA
ATOM     13  H   UNL     1       0.123  -3.733  -2.434  0.00  0.00    +0.155 HD
BRANCH  10  17
ATOM     14  C   UNL     1      -1.301   1.185   0.178  0.00  0.00    +0.045 C 
ATOM     15  C   UNL     1      -0.624  -0.157   0.083  0.00  0.00    -0.030 A 
ATOM     16  C   UNL     1      -0.610  -0.839  -1.119  0.00  0.00    +0.031 A 
ATOM     17  C   UNL     1       0.014  -2.075  -1.209  0.00  0.00    +0.076 A 
ATOM     18  C   UNL     1       0.626  -2.626  -0.085  0.00  0.00    +0.143 A 
ATOM     19  C   UNL     1       0.608  -1.937   1.117  0.00  0.00    +0.067 A 
ATOM     20  C   UNL     1      -0.012  -0.702   1.198  0.00  0.00    +0.047 A 
ATOM     21 CL   UNL     1      -0.026   0.163   2.703  0.00  0.00    -0.083 Cl
BRANCH  18  22
ATOM     22  O   UNL     1       1.238  -3.837  -0.167  0.00  0.00    -0.493 OA
ATOM     23  C   UNL     1       1.844  -4.339   1.026  0.00  0.00    +0.277 C 
ENDBRANCH  18  22
ENDBRANCH  10  17
ENDBRANCH   9  11
ENDBRANCH   1   9
BRANCH   4  24
ATOM     24  C   UNL     1      -1.589   0.952  -7.282  0.00  0.00    +0.065 C 
BRANCH  24  25
ATOM     25  C   UNL     1      -1.325   1.839  -8.471  0.00  0.00    -0.039 C 
ATOM     26  C   UNL     1      -2.195   2.159  -9.456  0.00  0.00    -0.001 A 
ATOM     27  C   UNL     1      -3.594   1.791  -9.705  0.00  0.00    +0.010 A 
ATOM     28  C   UNL     1      -4.215   2.280 -10.802  0.00  0.00    +0.001 A 
ATOM     29  C   UNL     1      -3.558   3.127 -11.705  0.00  0.00    +0.002 A 
ATOM     30  C   UNL     1      -2.273   3.510 -11.544  0.00  0.00    +0.026 A 
ATOM     31  C   UNL     1      -1.524   3.055 -10.424  0.00  0.00    +0.043 A 
ATOM     32  N   UNL     1      -0.287   3.280 -10.052  0.00  0.00    -0.380 N 
ATOM     33  C   UNL     1      -0.035   2.556  -8.801  0.00  0.00    +0.144 C 
ATOM     34  H   UNL     1       0.354   3.836 -10.523  0.00  0.00    +0.160 HD
ENDBRANCH  24  25
ENDBRANCH   4  24
TORSDOF 6
