REMARK  Name = ZINC08236380
REMARK  4 active torsions:
REMARK  status: ('A' for Active; 'I' for Inactive)
REMARK    1  A    between atoms: C_1  and  C_2
REMARK    2  A    between atoms: C_2  and  C_30
REMARK    3  A    between atoms: C_6  and  C_18
REMARK    4  A    between atoms: C_22  and  N_24
REMARK                            x       y       z     vdW  Elec       q    Type
REMARK                         _______ _______ _______ _____ _____    ______ ____
ROOT
ATOM      1  C   UNL     1       3.613  -4.928  -1.079  0.00  0.00    +0.011 C 
ATOM      2  C   UNL     1       3.384  -4.966   0.433  0.00  0.00    -0.023 C 
ATOM      3  C   UNL     1       2.117  -4.183   0.782  0.00  0.00    +0.058 C 
ATOM      4  C   UNL     1       2.280  -2.741   0.362  0.00  0.00    +0.017 C 
ATOM      5  C   UNL     1       3.494  -2.151   0.365  0.00  0.00    +0.024 C 
ATOM      6  C   UNL     1       3.667  -0.712  -0.049  0.00  0.00    +0.090 C 
ATOM      7  C   UNL     1       2.361   0.025  -0.024  0.00  0.00    +0.042 A 
ATOM      8  C   UNL     1       2.335   1.405  -0.011  0.00  0.00    +0.126 A 
ATOM      9  N   UNL     1       1.124   2.041   0.008  0.00  0.00    -0.208 NA
ATOM     10  H   UNL     1      -0.943  -0.567   0.013  0.00  0.00    +0.169 HD
ATOM     11  C   UNL     1      -0.016   1.325   0.015  0.00  0.00    +0.180 A 
ATOM     12  S   UNL     1      -1.520   2.143   0.030  0.00  0.00    -0.011 S 
ATOM     13  N   UNL     1       0.002  -0.004   0.006  0.00  0.00    -0.322 N 
ATOM     14  C   UNL     1       1.150  -0.672  -0.014  0.00  0.00    +0.110 A 
ATOM     15  N   UNL     1       1.160  -2.052  -0.017  0.00  0.00    -0.304 N 
ATOM     16  N   UNL     1       3.504   2.126  -0.018  0.00  0.00    -0.343 N 
ATOM     17  C   UNL     1       4.644  -2.863   0.752  0.00  0.00    +0.162 C 
ATOM     18  O   UNL     1       5.718  -2.297   0.764  0.00  0.00    -0.292 OA
ATOM     19  C   UNL     1       4.570  -4.311   1.150  0.00  0.00    +0.086 C 
ATOM     20  C   UNL     1       3.238  -6.417   0.896  0.00  0.00    +0.011 C 
ATOM     21  H   UNL     1       0.257  -2.598  -0.328  0.00  0.00    +0.153 HD
ATOM     22  H   UNL     1       4.472   1.605  -0.034  0.00  0.00    +0.144 HD
ATOM     23  H   UNL     1       3.472   3.226  -0.008  0.00  0.00    +0.144 HD
ENDROOT
BRANCH   6  24
ATOM     24  C   UNL     1       4.231  -0.664  -1.445  0.00  0.00    -0.033 A 
ATOM     25  C   UNL     1       3.537  -1.242  -2.491  0.00  0.00    +0.005 A 
ATOM     26  C   UNL     1       4.052  -1.195  -3.773  0.00  0.00    +0.003 A 
ATOM     27  C   UNL     1       5.268  -0.579  -4.007  0.00  0.00    +0.033 A 
ATOM     28  C   UNL     1       5.965  -0.006  -2.960  0.00  0.00    +0.126 A 
ATOM     29  C   UNL     1       5.447  -0.049  -1.679  0.00  0.00    +0.037 A 
BRANCH  28  30
ATOM     30  N   UNL     1       7.266   0.653  -3.210  0.00  0.00    +0.056 N 
ATOM     31  O   UNL     1       7.881   1.157  -2.287  0.00  0.00    -0.126 OA
ATOM     32  O   UNL     1       7.723   0.691  -4.338  0.00  0.00    -0.126 OA
ENDBRANCH  28  30
ENDBRANCH   6  24
TORSDOF 2
