REMARK  Name = ZINC09273980
REMARK  4 active torsions:
REMARK  status: ('A' for Active; 'I' for Inactive)
REMARK    1  A    between atoms: C_1  and  C_2
REMARK    2  A    between atoms: C_4  and  N_9
REMARK    3  A    between atoms: N_9  and  C_10
REMARK    4  A    between atoms: C_11  and  C_16
REMARK                            x       y       z     vdW  Elec       q    Type
REMARK                         _______ _______ _______ _____ _____    ______ ____
ROOT
ATOM      1  C   UNL     1      -3.630   3.129  -0.050  0.00  0.00    +0.094 C 
ATOM      2  C   UNL     1      -4.976   3.499  -0.153  0.00  0.00    +0.058 C 
ATOM      3  C   UNL     1      -5.401   2.095  -0.195  0.00  0.00    +0.237 C 
ATOM      4  O   UNL     1      -6.464   1.509  -0.281  0.00  0.00    -0.283 OA
ATOM      5  C   UNL     1      -3.977   1.700  -0.092  0.00  0.00    +0.248 C 
ATOM      6  O   UNL     1      -3.363   0.652  -0.057  0.00  0.00    -0.282 OA
ENDROOT
BRANCH   2   7
ATOM      7  C   UNL     1      -5.685   4.789  -0.200  0.00  0.00    -0.009 A 
ATOM      8  C   UNL     1      -4.965   5.987  -0.137  0.00  0.00    +0.011 A 
ATOM      9  C   UNL     1      -5.629   7.193  -0.182  0.00  0.00    +0.027 A 
ATOM     10  C   UNL     1      -7.013   7.221  -0.290  0.00  0.00    +0.076 A 
ATOM     11  C   UNL     1      -7.739   6.029  -0.353  0.00  0.00    +0.143 A 
ATOM     12  C   UNL     1      -7.080   4.818  -0.315  0.00  0.00    +0.056 A 
ATOM     13  O   UNL     1      -9.094   6.076  -0.457  0.00  0.00    -0.481 OA
ATOM     14  C   UNL     1      -9.751   7.168   0.192  0.00  0.00    +0.325 C 
ATOM     15  C   UNL     1      -9.031   8.453  -0.128  0.00  0.00    +0.255 C 
ATOM     16  O   UNL     1      -9.648   9.495  -0.196  0.00  0.00    -0.272 OA
ATOM     17  N   UNL     1      -7.697   8.440  -0.340  0.00  0.00    -0.280 N 
ATOM     18  H   UNL     1      -7.220   9.265  -0.523  0.00  0.00    +0.155 HD
ENDBRANCH   2   7
BRANCH   1  19
ATOM     19  N   UNL     1      -2.454   3.823   0.045  0.00  0.00    -0.311 N 
ATOM     20  H   UNL     1      -2.467   4.783   0.184  0.00  0.00    +0.152 HD
BRANCH  19  24
ATOM     21  C   UNL     1       2.260   3.381   1.363  0.00  0.00    +0.045 C 
ATOM     22  C   UNL     1       1.068   2.913   0.569  0.00  0.00    -0.035 A 
ATOM     23  C   UNL     1      -0.136   3.581   0.673  0.00  0.00    +0.027 A 
ATOM     24  C   UNL     1      -1.235   3.148  -0.058  0.00  0.00    +0.032 A 
ATOM     25  C   UNL     1      -1.117   2.048  -0.898  0.00  0.00    +0.024 A 
ATOM     26  C   UNL     1       0.088   1.381  -0.994  0.00  0.00    +0.017 A 
ATOM     27  C   UNL     1       1.181   1.813  -0.264  0.00  0.00    +0.021 A 
ATOM     28 BR   UNL     1       2.831   0.901  -0.404  0.00  0.00    -0.050 Br
ENDBRANCH  19  24
ENDBRANCH   1  19
TORSDOF 3
