REMARK  Name = ZINC44171422
REMARK  4 active torsions:
REMARK  status: ('A' for Active; 'I' for Inactive)
REMARK    1  A    between atoms: C_4  and  C_7
REMARK    2  A    between atoms: C_7  and  O_8
REMARK    3  A    between atoms: O_8  and  C_9
REMARK    4  A    between atoms: C_11  and  O_37
REMARK                            x       y       z     vdW  Elec       q    Type
REMARK                         _______ _______ _______ _____ _____    ______ ____
ROOT
ATOM      1  C   UNL     1       5.385  -1.642   1.400  0.00  0.00    +0.181 C 
ATOM      2  C   UNL     1       5.107  -3.151   1.388  0.00  0.00    +0.177 C 
ATOM      3  C   UNL     1       4.326  -3.461   2.656  0.00  0.00    +0.184 C 
ATOM      4  C   UNL     1       5.300  -3.202   3.835  0.00  0.00    +0.184 C 
ATOM      5  C   UNL     1       5.502  -1.704   3.974  0.00  0.00    +0.184 C 
ATOM      6  C   UNL     1       6.103  -1.179   2.643  0.00  0.00    +0.184 C 
ATOM      7  O   UNL     1       7.460  -1.652   2.711  0.00  0.00    -0.340 OA
ATOM      8  C   UNL     1       7.812  -1.512   4.101  0.00  0.00    +0.171 C 
ATOM      9  O   UNL     1       6.609  -1.503   4.890  0.00  0.00    -0.340 OA
ATOM     10  C   UNL     1       8.563  -0.196   4.303  0.00  0.00    +0.065 C 
ATOM     11  C   UNL     1       9.838  -0.203   3.457  0.00  0.00    +0.005 C 
ATOM     12  C   UNL     1      10.726  -1.374   3.882  0.00  0.00    +0.000 C 
ATOM     13  C   UNL     1       9.973  -2.689   3.671  0.00  0.00    +0.005 C 
ATOM     14  C   UNL     1       8.698  -2.687   4.518  0.00  0.00    +0.065 C 
ATOM     15  O   UNL     1       4.650  -3.863   4.914  0.00  0.00    -0.340 OA
ATOM     16  C   UNL     1       3.894  -4.934   4.312  0.00  0.00    +0.171 C 
ATOM     17  O   UNL     1       4.003  -4.841   2.864  0.00  0.00    -0.340 OA
ATOM     18  C   UNL     1       4.450  -6.277   4.783  0.00  0.00    +0.065 C 
ATOM     19  C   UNL     1       3.645  -7.413   4.148  0.00  0.00    +0.005 C 
ATOM     20  C   UNL     1       2.176  -7.287   4.556  0.00  0.00    +0.000 C 
ATOM     21  C   UNL     1       1.624  -5.946   4.068  0.00  0.00    +0.005 C 
ATOM     22  C   UNL     1       2.423  -4.804   4.702  0.00  0.00    +0.065 C 
ENDROOT
BRANCH   2  23
ATOM     23  O   UNL     1       4.333  -3.497   0.237  0.00  0.00    -0.386 OA
ATOM     24  H   UNL     1       4.762  -3.284  -0.603  0.00  0.00    +0.210 HD
ENDBRANCH   2  23
BRANCH   1  25
ATOM     25  O   UNL     1       4.141  -0.946   1.304  0.00  0.00    -0.367 OA
BRANCH  25  26
ATOM     26  C   UNL     1       3.711  -0.707  -0.038  0.00  0.00    +0.195 C 
BRANCH  26  30
ATOM     27  C   UNL     1      -0.017   1.378   0.010  0.00  0.00    +0.000 A 
ATOM     28  C   UNL     1       1.171   2.086   0.002  0.00  0.00    +0.000 A 
ATOM     29  C   UNL     1       2.377   1.411  -0.013  0.00  0.00    +0.006 A 
ATOM     30  C   UNL     1       2.396   0.029  -0.020  0.00  0.00    -0.022 A 
ATOM     31  C   UNL     1       1.208  -0.679  -0.012  0.00  0.00    +0.006 A 
ATOM     32  C   UNL     1       0.002  -0.004   0.002  0.00  0.00    +0.000 A 
ENDBRANCH  26  30
ENDBRANCH  25  26
ENDBRANCH   1  25
TORSDOF 4
