REMARK  Name = ZINC39690693
REMARK  7 active torsions:
REMARK  status: ('A' for Active; 'I' for Inactive)
REMARK    1  A    between atoms: C_4  and  C_7
REMARK    2  A    between atoms: C_7  and  C_8
REMARK    3  A    between atoms: C_8  and  C_9
REMARK    4  A    between atoms: C_9  and  C_10
REMARK    5  A    between atoms: C_14  and  C_23
REMARK    6  A    between atoms: N_25  and  C_26
REMARK    7  A    between atoms: C_26  and  C_27
REMARK                            x       y       z     vdW  Elec       q    Type
REMARK                         _______ _______ _______ _____ _____    ______ ____
ROOT
ATOM      1  C   UNL     1       5.960  -1.996   2.926  0.00  0.00    +0.216 C 
ATOM      2  O   UNL     1       5.321  -1.587   3.872  0.00  0.00    -0.276 OA
ATOM      3  N   UNL     1       7.137  -2.621   3.127  0.00  0.00    -0.300 N 
ATOM      4  C   UNL     1       8.056  -3.179   2.107  0.00  0.00    +0.121 C 
ATOM      5  C   UNL     1       9.470  -2.836   2.626  0.00  0.00    +0.100 C 
ATOM      6  C   UNL     1       9.299  -2.660   4.144  0.00  0.00    -0.004 C 
ATOM      7  C   UNL     1       7.808  -2.900   4.420  0.00  0.00    +0.115 C 
ATOM      8  C   UNL     1       9.684  -1.242   4.558  0.00  0.00    -0.010 C 
ATOM      9  C   UNL     1       9.561  -1.109   6.078  0.00  0.00    -0.082 C 
ATOM     10  N   UNL     1      10.441  -2.086   6.730  0.00  0.00    +0.379 N 
ATOM     11  C   UNL     1      10.006  -3.449   6.401  0.00  0.00    -0.082 C 
ATOM     12  C   UNL     1      10.148  -3.682   4.894  0.00  0.00    -0.010 C 
ATOM     13  H   UNL     1      11.388  -1.950   6.410  0.00  0.00    -0.086 HD
ATOM     14  H   UNL     1      10.404  -1.956   7.730  0.00  0.00    -0.086 HD
ENDROOT
BRANCH   5  15
ATOM     15  C   UNL     1      10.425  -3.963   2.330  0.00  0.00    +0.218 C 
ATOM     16  O   UNL     1      10.024  -5.108   2.308  0.00  0.00    -0.275 OA
ATOM     17  N   UNL     1      11.725  -3.700   2.091  0.00  0.00    -0.311 N 
ATOM     18  H   UNL     1      12.046  -2.785   2.109  0.00  0.00    +0.149 HD
BRANCH  17  19
ATOM     19  C   UNL     1      12.654  -4.796   1.804  0.00  0.00    +0.140 C 
BRANCH  19  20
ATOM     20  C   UNL     1      14.035  -4.238   1.575  0.00  0.00    -0.016 A 
ATOM     21  C   UNL     1      14.505  -4.064   0.287  0.00  0.00    +0.006 A 
ATOM     22  C   UNL     1      15.772  -3.551   0.077  0.00  0.00    +0.000 A 
ATOM     23  C   UNL     1      16.568  -3.212   1.155  0.00  0.00    +0.001 A 
ATOM     24  C   UNL     1      16.099  -3.385   2.443  0.00  0.00    +0.015 A 
ATOM     25  C   UNL     1      14.829  -3.893   2.653  0.00  0.00    +0.023 A 
ATOM     26 BR   UNL     1      14.183  -4.124   4.415  0.00  0.00    -0.050 Br
ENDBRANCH  19  20
ENDBRANCH  17  19
ENDBRANCH   5  15
BRANCH   1  27
ATOM     27  C   UNL     1       5.439  -1.805   1.525  0.00  0.00    +0.096 C 
BRANCH  27  28
ATOM     28  C   UNL     1       4.096  -1.073   1.576  0.00  0.00    +0.014 C 
BRANCH  28  29
ATOM     29  C   UNL     1       3.567  -0.880   0.153  0.00  0.00    +0.035 C 
BRANCH  29  33
ATOM     30  C   UNL     1      -0.182   1.164   0.293  0.00  0.00    +0.000 A 
ATOM     31  C   UNL     1       0.995   1.883   0.203  0.00  0.00    +0.000 A 
ATOM     32  C   UNL     1       2.208   1.222   0.158  0.00  0.00    +0.003 A 
ATOM     33  C   UNL     1       2.244  -0.159   0.204  0.00  0.00    -0.047 A 
ATOM     34  C   UNL     1       1.068  -0.879   0.295  0.00  0.00    +0.003 A 
ATOM     35  C   UNL     1      -0.146  -0.217   0.339  0.00  0.00    +0.000 A 
ENDBRANCH  29  33
ENDBRANCH  28  29
ENDBRANCH  27  28
ENDBRANCH   1  27
TORSDOF 7
