REMARK  Name = ZINC15947352
REMARK  8 active torsions:
REMARK  status: ('A' for Active; 'I' for Inactive)
REMARK    1  A    between atoms: C_1  and  C_2
REMARK    2  A    between atoms: C_2  and  O_3
REMARK    3  A    between atoms: O_3  and  C_4
REMARK    4  A    between atoms: C_8  and  C_11
REMARK    5  A    between atoms: C_9  and  O_10
REMARK    6  A    between atoms: N_20  and  C_23
REMARK    7  A    between atoms: C_23  and  C_24
REMARK    8  A    between atoms: C_30  and  O_32
REMARK                            x       y       z     vdW  Elec       q    Type
REMARK                         _______ _______ _______ _____ _____    ______ ____
ROOT
ATOM      1  C   UNL     1       2.224  -4.266  -3.828  0.00  0.00    +0.227 C 
ATOM      2  N   UNL     1       1.727  -5.632  -4.076  0.00  0.00    -0.313 N 
ATOM      3  C   UNL     1       0.551  -5.733  -4.785  0.00  0.00    +0.080 A 
ATOM      4  C   UNL     1       0.127  -4.729  -5.665  0.00  0.00    +0.067 A 
ATOM      5  C   UNL     1      -1.137  -4.972  -6.329  0.00  0.00    -0.027 A 
ATOM      6  C   UNL     1      -1.727  -6.148  -6.006  0.00  0.00    -0.021 A 
ATOM      7  S   UNL     1      -0.622  -6.904  -4.850  0.00  0.00    -0.080 S 
ATOM      8  C   UNL     1      -3.031  -6.656  -6.534  0.00  0.00    -0.035 C 
ATOM      9  N   UNL     1      -3.751  -5.529  -7.156  0.00  0.00    +0.386 N 
ATOM     10  C   UNL     1      -2.860  -4.833  -8.093  0.00  0.00    -0.073 C 
ATOM     11  C   UNL     1      -1.805  -4.032  -7.323  0.00  0.00    +0.018 C 
ATOM     12  C   UNL     1       1.009  -3.543  -5.825  0.00  0.00    +0.220 C 
ATOM     13  N   UNL     1       1.980  -3.392  -4.968  0.00  0.00    -0.223 NA
ATOM     14  H   UNL     1       2.202  -6.415  -3.758  0.00  0.00    +0.149 HD
ATOM     15  H   UNL     1      -4.053  -4.887  -6.439  0.00  0.00    -0.081 HD
ENDROOT
BRANCH   1  20
ATOM     16  C   UNL     1       0.777  -1.811  -1.336  0.00  0.00    +0.163 A 
ATOM     17  C   UNL     1       0.243  -2.669  -0.388  0.00  0.00    +0.064 A 
ATOM     18  C   UNL     1       0.352  -4.038  -0.555  0.00  0.00    +0.022 A 
ATOM     19  C   UNL     1       0.992  -4.553  -1.668  0.00  0.00    +0.026 A 
ATOM     20  C   UNL     1       1.526  -3.702  -2.617  0.00  0.00    +0.041 A 
ATOM     21  C   UNL     1       1.416  -2.329  -2.458  0.00  0.00    +0.165 A 
ATOM     22 BR   UNL     1      -0.376  -5.207   0.741  0.00  0.00    -0.050 Br
BRANCH  21  23
ATOM     23  O   UNL     1       1.936  -1.491  -3.394  0.00  0.00    -0.503 OA
ATOM     24  H   UNL     1       2.856  -1.241  -3.230  0.00  0.00    +0.292 HD
ENDBRANCH  21  23
BRANCH  16  25
ATOM     25  O   UNL     1       0.671  -0.465  -1.174  0.00  0.00    -0.489 OA
BRANCH  25  27
ATOM     26  C   UNL     1      -0.019   1.526   0.010  0.00  0.00    +0.048 C 
ATOM     27  C   UNL     1       0.002  -0.004   0.002  0.00  0.00    +0.226 C 
ENDBRANCH  25  27
ENDBRANCH  16  25
ENDBRANCH   1  20
BRANCH  12  28
ATOM     28  O   UNL     1       0.811  -2.653  -6.824  0.00  0.00    -0.492 OA
ATOM     29  H   UNL     1       1.444  -1.923  -6.832  0.00  0.00    +0.294 HD
ENDBRANCH  12  28
BRANCH   9  30
ATOM     30  C   UNL     1      -4.923  -6.038  -7.881  0.00  0.00    -0.043 C 
BRANCH  30  31
ATOM     31  C   UNL     1      -5.896  -6.642  -6.902  0.00  0.00    -0.064 A 
ATOM     32  C   UNL     1      -5.803  -7.980  -6.571  0.00  0.00    +0.002 A 
ATOM     33  C   UNL     1      -6.696  -8.534  -5.673  0.00  0.00    +0.000 A 
ATOM     34  C   UNL     1      -7.683  -7.749  -5.106  0.00  0.00    +0.000 A 
ATOM     35  C   UNL     1      -7.776  -6.410  -5.437  0.00  0.00    +0.000 A 
ATOM     36  C   UNL     1      -6.880  -5.856  -6.332  0.00  0.00    +0.002 A 
ENDBRANCH  30  31
ENDBRANCH   9  30
TORSDOF 7
