REMARK  Name = ZINC04601246
REMARK  6 active torsions:
REMARK  status: ('A' for Active; 'I' for Inactive)
REMARK    1  A    between atoms: C_1  and  C_2
REMARK    2  A    between atoms: C_2  and  C_4
REMARK    3  A    between atoms: C_2  and  S_14
REMARK    4  A    between atoms: S_14  and  C_15
REMARK    5  A    between atoms: C_18  and  C_21
REMARK    6  A    between atoms: N_19  and  N_20
REMARK                            x       y       z     vdW  Elec       q    Type
REMARK                         _______ _______ _______ _____ _____    ______ ____
ROOT
ATOM      1  S   UNL     1       4.679   5.715  -0.924  0.00  0.00    -0.072 S 
ENDROOT
BRANCH   1   2
ATOM      2  C   UNL     1       6.348   6.252  -1.097  0.00  0.00    +0.209 A 
ATOM      3  N   UNL     1       7.423   5.565  -0.786  0.00  0.00    -0.121 NA
ATOM      4  N   UNL     1       8.478   6.254  -1.038  0.00  0.00    -0.126 NA
ATOM      5  C   UNL     1       8.141   7.427  -1.528  0.00  0.00    +0.188 A 
ATOM      6  N   UNL     1       6.765   7.458  -1.586  0.00  0.00    -0.223 N 
BRANCH   5   7
ATOM      7  C   UNL     1       9.060   8.499  -1.942  0.00  0.00    +0.058 A 
ATOM      8  C   UNL     1      10.411   8.440  -2.172  0.00  0.00    +0.019 A 
ATOM      9  C   UNL     1      11.066   9.587  -2.561  0.00  0.00    +0.008 A 
ATOM     10  C   UNL     1      10.361  10.740  -2.693  0.00  0.00    +0.046 A 
ATOM     11  S   UNL     1       8.707  10.219  -2.268  0.00  0.00    -0.093 S 
ENDBRANCH   5   7
BRANCH   6  12
ATOM     12  N   UNL     1       5.981   8.483  -2.035  0.00  0.00    -0.295 N 
ATOM     13  H   UNL     1       5.748   9.116  -1.285  0.00  0.00    +0.163 HD
ATOM     14  H   UNL     1       6.427   8.973  -2.796  0.00  0.00    +0.163 HD
ENDBRANCH   6  12
ENDBRANCH   1   2
BRANCH   1  16
ATOM     15  C   UNL     1       5.594   4.182   1.144  0.00  0.00    +0.029 C 
ATOM     16  C   UNL     1       4.950   4.062  -0.239  0.00  0.00    +0.137 C 
BRANCH  16  17
ATOM     17  C   UNL     1       3.629   3.346  -0.116  0.00  0.00    +0.231 C 
ATOM     18  O   UNL     1       2.595   3.980  -0.103  0.00  0.00    -0.274 OA
ATOM     19  N   UNL     1       3.597   2.002  -0.021  0.00  0.00    -0.269 N 
ATOM     20  C   UNL     1       2.374   1.332  -0.015  0.00  0.00    +0.125 A 
ATOM     21  C   UNL     1       2.350  -0.058  -0.024  0.00  0.00    +0.045 A 
ATOM     22  C   UNL     1       1.130  -0.710  -0.018  0.00  0.00    +0.025 A 
ATOM     23  C   UNL     1      -0.030   0.054  -0.003  0.00  0.00    +0.059 A 
ATOM     24  C   UNL     1       0.069   1.433   0.006  0.00  0.00    +0.132 A 
ATOM     25  N   UNL     1       1.247   2.026  -0.001  0.00  0.00    -0.239 NA
ATOM     26 CL   UNL     1      -1.587  -0.714   0.005  0.00  0.00    -0.082 Cl
ATOM     27  H   UNL     1       4.425   1.501   0.042  0.00  0.00    +0.156 HD
ENDBRANCH  16  17
ENDBRANCH   1  16
TORSDOF 5
