REMARK  Name = ZINC58424453
REMARK  4 active torsions:
REMARK  status: ('A' for Active; 'I' for Inactive)
REMARK    1  A    between atoms: C_1  and  C_2
REMARK    2  A    between atoms: C_5  and  C_27
REMARK    3  A    between atoms: N_13  and  C_14
REMARK    4  A    between atoms: C_14  and  C_15
REMARK                            x       y       z     vdW  Elec       q    Type
REMARK                         _______ _______ _______ _____ _____    ______ ____
ROOT
ATOM      1  C   UNL     1       0.215   2.115   0.449  0.00  0.00    +0.028 C 
ATOM      2  C   UNL     1       0.042   0.613   0.215  0.00  0.00    +0.072 C 
ATOM      3  C   UNL     1       0.484   0.255  -1.210  0.00  0.00    +0.039 C 
ATOM      4  C   UNL     1       0.237  -1.235  -1.443  0.00  0.00    +0.108 C 
ATOM      5  C   UNL     1       0.848  -2.051  -0.334  0.00  0.00    -0.014 A 
ATOM      6  C   UNL     1       1.117  -3.391  -0.558  0.00  0.00    +0.006 A 
ATOM      7  C   UNL     1       1.675  -4.166   0.440  0.00  0.00    +0.000 A 
ATOM      8  C   UNL     1       1.967  -3.608   1.671  0.00  0.00    +0.002 A 
ATOM      9  C   UNL     1       1.703  -2.273   1.903  0.00  0.00    +0.023 A 
ATOM     10  C   UNL     1       1.143  -1.490   0.899  0.00  0.00    +0.034 A 
ATOM     11  N   UNL     1       0.889  -0.138   1.151  0.00  0.00    -0.323 N 
ENDROOT
BRANCH   4  12
ATOM     12  C   UNL     1       0.857  -1.643  -2.755  0.00  0.00    +0.218 C 
ATOM     13  O   UNL     1       1.883  -1.117  -3.131  0.00  0.00    -0.275 OA
ATOM     14  N   UNL     1       0.271  -2.593  -3.511  0.00  0.00    -0.329 N 
ATOM     15  H   UNL     1      -0.587  -2.961  -3.248  0.00  0.00    +0.145 HD
ATOM     16  H   UNL     1       0.707  -2.908  -4.318  0.00  0.00    +0.145 HD
ENDBRANCH   4  12
BRANCH  11  17
ATOM     17  C   UNL     1       1.461   0.520   2.329  0.00  0.00    +0.140 C 
BRANCH  17  18
ATOM     18  C   UNL     1       0.510   0.385   3.491  0.00  0.00    -0.025 A 
ATOM     19  C   UNL     1      -0.549   1.266   3.621  0.00  0.00    +0.054 A 
ATOM     20  C   UNL     1      -1.421   1.138   4.689  0.00  0.00    +0.164 A 
ATOM     21  C   UNL     1      -1.232   0.131   5.625  0.00  0.00    +0.180 A 
ATOM     22  C   UNL     1      -0.171  -0.749   5.492  0.00  0.00    +0.086 A 
ATOM     23  C   UNL     1       0.696  -0.622   4.419  0.00  0.00    +0.029 A 
ATOM     24 CL   UNL     1       0.068  -2.010   6.661  0.00  0.00    -0.080 Cl
ATOM     25  O   UNL     1      -2.097   0.014   6.673  0.00  0.00    -0.487 OA
ATOM     26  C   UNL     1      -2.053   1.065   7.641  0.00  0.00    +0.232 C 
ATOM     27  C   UNL     1      -2.917   2.237   7.203  0.00  0.00    +0.082 C 
ATOM     28  C   UNL     1      -2.397   2.899   5.937  0.00  0.00    +0.232 C 
ATOM     29  O   UNL     1      -2.470   2.000   4.828  0.00  0.00    -0.488 OA
ENDBRANCH  17  18
ENDBRANCH  11  17
TORSDOF 3
