REMARK  Name = ZINC37061671
REMARK  6 active torsions:
REMARK  status: ('A' for Active; 'I' for Inactive)
REMARK    1  A    between atoms: C_1  and  C_2
REMARK    2  A    between atoms: C_4  and  N_20
REMARK    3  A    between atoms: C_7  and  N_8
REMARK    4  A    between atoms: N_8  and  C_9
REMARK    5  A    between atoms: C_9  and  C_11
REMARK    6  A    between atoms: C_9  and  C_12
REMARK                            x       y       z     vdW  Elec       q    Type
REMARK                         _______ _______ _______ _____ _____    ______ ____
ROOT
ATOM      1  N   UNL     1       0.025  -0.016   2.415  0.00  0.00    -0.337 N 
ATOM      2  H   UNL     1       0.012   0.954   2.422  0.00  0.00    +0.147 HD
ENDROOT
BRANCH   1   9
ATOM      3  C   UNL     1      -0.018   1.503   0.010  0.00  0.00    +0.046 C 
ATOM      4  C   UNL     1       0.002  -0.004   0.002  0.00  0.00    -0.027 A 
ATOM      5  C   UNL     1       0.006  -0.689  -1.198  0.00  0.00    +0.038 A 
ATOM      6  C   UNL     1       0.025  -2.071  -1.206  0.00  0.00    +0.127 A 
ATOM      7  C   UNL     1       0.040  -2.773  -0.014  0.00  0.00    +0.034 A 
ATOM      8  C   UNL     1       0.036  -2.095   1.188  0.00  0.00    +0.025 A 
ATOM      9  C   UNL     1       0.023  -0.706   1.200  0.00  0.00    +0.031 A 
BRANCH   6  10
ATOM     10  N   UNL     1       0.028  -2.802  -2.493  0.00  0.00    +0.056 N 
ATOM     11  O   UNL     1       0.014  -2.190  -3.536  0.00  0.00    -0.126 OA
ATOM     12  O   UNL     1       0.044  -4.011  -2.502  0.00  0.00    -0.126 OA
ENDBRANCH   6  10
ENDBRANCH   1   9
BRANCH   1  13
ATOM     13  C   UNL     1       0.047  -0.758   3.678  0.00  0.00    +0.098 C 
ATOM     14  C   UNL     1      -1.381  -1.144   4.068  0.00  0.00    +0.033 C 
BRANCH  13  15
ATOM     15  C   UNL     1       0.646   0.106   4.758  0.00  0.00    -0.026 A 
ATOM     16  C   UNL     1       0.331   1.451   4.821  0.00  0.00    +0.008 A 
ATOM     17  C   UNL     1       0.878   2.245   5.810  0.00  0.00    +0.040 A 
ATOM     18  C   UNL     1       1.744   1.694   6.740  0.00  0.00    +0.142 A 
ATOM     19  C   UNL     1       2.060   0.346   6.676  0.00  0.00    +0.076 A 
ATOM     20  C   UNL     1       1.506  -0.447   5.688  0.00  0.00    +0.028 A 
ATOM     21 CL   UNL     1       3.145  -0.347   7.840  0.00  0.00    -0.081 Cl
ATOM     22  F   UNL     1       2.281   2.469   7.707  0.00  0.00    -0.204 F 
ENDBRANCH  13  15
ENDBRANCH   1  13
TORSDOF 4
