REMARK  Name = ZINC50702709
REMARK  6 active torsions:
REMARK  status: ('A' for Active; 'I' for Inactive)
REMARK    1  A    between atoms: C_1  and  C_2
REMARK    2  A    between atoms: C_2  and  N_3
REMARK    3  A    between atoms: N_3  and  C_4
REMARK    4  A    between atoms: C_9  and  C_11
REMARK    5  A    between atoms: C_13  and  N_19
REMARK    6  A    between atoms: C_14  and  N_18
REMARK                            x       y       z     vdW  Elec       q    Type
REMARK                         _______ _______ _______ _____ _____    ______ ____
ROOT
ATOM      1  C   UNL     1      -1.618  -0.207  -2.238  0.00  0.00    +0.041 A 
ATOM      2  C   UNL     1      -2.061   0.738  -1.308  0.00  0.00    +0.047 A 
ATOM      3  C   UNL     1      -3.367   1.172  -1.339  0.00  0.00    +0.149 A 
ATOM      4  C   UNL     1      -4.246   0.671  -2.295  0.00  0.00    +0.074 A 
ATOM      5  C   UNL     1      -3.808  -0.271  -3.223  0.00  0.00    +0.065 A 
ATOM      6  C   UNL     1      -2.501  -0.704  -3.201  0.00  0.00    +0.035 A 
ATOM      7 CL   UNL     1      -4.908  -0.893  -4.413  0.00  0.00    -0.082 Cl
ENDROOT
BRANCH   1   9
ATOM      8  N   UNL     1       0.414  -0.829  -1.027  0.00  0.00    -0.295 N 
ATOM      9  C   UNL     1      -0.219  -0.674  -2.207  0.00  0.00    +0.247 C 
ATOM     10  O   UNL     1       0.364  -0.918  -3.246  0.00  0.00    -0.270 OA
BRANCH   8  11
ATOM     11  C   UNL     1       1.831  -1.198  -0.999  0.00  0.00    +0.076 C 
ATOM     12  C   UNL     1       2.663  -0.163  -1.785  0.00  0.00    +0.022 C 
ATOM     13  C   UNL     1       3.754  -1.008  -2.488  0.00  0.00    +0.002 C 
ATOM     14  C   UNL     1       2.987  -2.292  -2.889  0.00  0.00    +0.002 C 
ATOM     15  C   UNL     1       2.037  -2.552  -1.702  0.00  0.00    +0.022 C 
ENDBRANCH   8  11
BRANCH   8  17
ATOM     16  C   UNL     1       0.073   0.723   0.833  0.00  0.00    +0.024 C 
ATOM     17  C   UNL     1      -0.316  -0.628   0.227  0.00  0.00    +0.105 C 
ENDBRANCH   8  17
ENDBRANCH   1   9
BRANCH   4  18
ATOM     18  N   UNL     1      -5.565   1.112  -2.323  0.00  0.00    -0.355 N 
ATOM     19  H   UNL     1      -5.844   1.846  -1.754  0.00  0.00    +0.142 HD
ATOM     20  H   UNL     1      -6.207   0.685  -2.913  0.00  0.00    +0.142 HD
ENDBRANCH   4  18
BRANCH   3  21
ATOM     21  N   UNL     1      -3.837   2.172  -0.354  0.00  0.00    +0.058 N 
ATOM     22  O   UNL     1      -3.111   3.080  -0.021  0.00  0.00    -0.126 OA
ATOM     23  O   UNL     1      -4.947   2.081   0.117  0.00  0.00    -0.126 OA
ENDBRANCH   3  21
TORSDOF 5
