REMARK  Name = ZINC39532524
REMARK  9 active torsions:
REMARK  status: ('A' for Active; 'I' for Inactive)
REMARK    1  A    between atoms: C_1  and  C_2
REMARK    2  A    between atoms: C_2  and  C_3
REMARK    3  A    between atoms: C_6  and  C_9
REMARK    4  A    between atoms: C_9  and  C_11
REMARK    5  A    between atoms: C_9  and  N_14
REMARK    6  A    between atoms: C_11  and  N_12
REMARK    7  A    between atoms: C_18  and  S_21
REMARK    8  A    between atoms: S_21  and  O_24
REMARK    9  A    between atoms: O_24  and  C_25
REMARK                            x       y       z     vdW  Elec       q    Type
REMARK                         _______ _______ _______ _____ _____    ______ ____
ROOT
ATOM      1  N   UNL     1       3.802  -2.764  -4.356  0.00  0.00    -0.296 NA
ATOM      2  C   UNL     1       4.726  -2.089  -3.433  0.00  0.00    +0.066 C 
ATOM      3  C   UNL     1       5.816  -3.072  -2.999  0.00  0.00    -0.064 C 
ATOM      4  N   UNL     1       6.542  -3.553  -4.182  0.00  0.00    +0.398 N 
ATOM      5  C   UNL     1       5.610  -4.245  -5.082  0.00  0.00    +0.130 C 
ATOM      6  C   UNL     1       4.519  -3.272  -5.534  0.00  0.00    +0.095 C 
ATOM      7  H   UNL     1       6.955  -2.769  -4.665  0.00  0.00    -0.083 HD
ATOM      8  H   UNL     1       7.268  -4.191  -3.894  0.00  0.00    -0.083 HD
ENDROOT
BRANCH   5   9
ATOM      9  S   UNL     1       6.512  -4.857  -6.532  0.00  0.00    +0.109 S 
ATOM     10  O   UNL     1       5.667  -5.680  -7.324  0.00  0.00    -0.138 OA
ATOM     11  O   UNL     1       7.258  -3.803  -7.125  0.00  0.00    -0.138 OA
BRANCH   9  12
ATOM     12  O   UNL     1       7.561  -5.806  -5.969  0.00  0.00    -0.347 OA
BRANCH  12  13
ATOM     13  C   UNL     1       7.062  -7.003  -5.563  0.00  0.00    +0.156 A 
ATOM     14  C   UNL     1       6.618  -7.165  -4.259  0.00  0.00    +0.048 A 
ATOM     15  C   UNL     1       6.111  -8.383  -3.849  0.00  0.00    +0.004 A 
ATOM     16  C   UNL     1       6.047  -9.440  -4.737  0.00  0.00    +0.000 A 
ATOM     17  C   UNL     1       6.489  -9.282  -6.038  0.00  0.00    +0.004 A 
ATOM     18  C   UNL     1       6.991  -8.064  -6.454  0.00  0.00    +0.048 A 
ENDBRANCH  12  13
ENDBRANCH   9  12
ENDBRANCH   5   9
BRANCH   1  19
ATOM     19  C   UNL     1       2.707  -1.868  -4.752  0.00  0.00    +0.101 C 
BRANCH  19  23
ATOM     20  C   UNL     1      -0.095  -1.540  -1.545  0.00  0.00    -0.048 A 
ATOM     21  C   UNL     1      -0.381  -0.973  -2.773  0.00  0.00    +0.004 A 
ATOM     22  C   UNL     1       0.526  -1.079  -3.811  0.00  0.00    +0.005 A 
ATOM     23  C   UNL     1       1.719  -1.752  -3.620  0.00  0.00    -0.029 A 
ATOM     24  C   UNL     1       2.005  -2.318  -2.392  0.00  0.00    +0.005 A 
ATOM     25  C   UNL     1       1.099  -2.208  -1.353  0.00  0.00    +0.004 A 
BRANCH  20  27
ATOM     26  C   UNL     1      -0.796  -0.153   0.387  0.00  0.00    +0.009 C 
ATOM     27  C   UNL     1      -1.084  -1.424  -0.413  0.00  0.00    +0.032 C 
ENDBRANCH  20  27
ENDBRANCH  19  23
BRANCH  19  28
ATOM     28  C   UNL     1       3.272  -0.485  -5.080  0.00  0.00    +0.115 C 
BRANCH  28  29
ATOM     29  N   UNL     1       4.261  -0.603  -6.160  0.00  0.00    -0.259 NA
ATOM     30  I   UNL     1       5.050   1.228  -6.638  0.00  0.00    +0.018 I 
ATOM     31  H   UNL     1       3.857  -1.046  -6.972  0.00  0.00    +0.134 HD
ENDBRANCH  28  29
ENDBRANCH  19  28
ENDBRANCH   1  19
TORSDOF 8
