REMARK  Name = ZINC14949025
REMARK  8 active torsions:
REMARK  status: ('A' for Active; 'I' for Inactive)
REMARK    1  A    between atoms: C_1  and  S_2
REMARK    2  A    between atoms: S_2  and  C_5
REMARK    3  A    between atoms: C_8  and  C_11
REMARK    4  A    between atoms: C_20  and  C_22
REMARK    5  A    between atoms: C_22  and  C_23
REMARK    6  A    between atoms: C_23  and  C_25
REMARK    7  A    between atoms: C_23  and  N_56
REMARK    8  A    between atoms: C_25  and  C_26
REMARK                            x       y       z     vdW  Elec       q    Type
REMARK                         _______ _______ _______ _____ _____    ______ ____
ROOT
ATOM      1  C   UNL     1       0.769   8.662   0.794  0.00  0.00    +0.109 A 
ATOM      2  N   UNL     1       0.180   7.764   0.022  0.00  0.00    -0.242 NA
ATOM      3  C   UNL     1      -0.618   6.823   0.507  0.00  0.00    +0.070 A 
ATOM      4  C   UNL     1      -0.813   6.805   1.857  0.00  0.00    +0.016 A 
ATOM      5  S   UNL     1       0.171   8.175   2.409  0.00  0.00    -0.072 S 
ATOM      6  C   UNL     1      -1.646   5.863   2.658  0.00  0.00    +0.063 C 
ATOM      7  C   UNL     1      -2.601   5.122   1.708  0.00  0.00    +0.113 C 
ATOM      8  N   UNL     1      -1.848   4.737   0.505  0.00  0.00    -0.295 N 
ATOM      9  C   UNL     1      -1.310   5.787  -0.370  0.00  0.00    +0.163 C 
ATOM     10  C   UNL     1      -1.649   3.436   0.213  0.00  0.00    +0.214 C 
ATOM     11  O   UNL     1      -2.092   2.575   0.943  0.00  0.00    -0.276 OA
ENDROOT
BRANCH   1  15
ATOM     12  C   UNL     1       3.377  11.841  -0.271  0.00  0.00    +0.088 A 
ATOM     13  C   UNL     1       2.869  11.009  -1.252  0.00  0.00    +0.027 A 
ATOM     14  C   UNL     1       2.021   9.975  -0.913  0.00  0.00    +0.012 A 
ATOM     15  C   UNL     1       1.677   9.768   0.424  0.00  0.00    +0.007 A 
ATOM     16  C   UNL     1       2.189  10.614   1.408  0.00  0.00    +0.012 A 
ATOM     17  C   UNL     1       3.040  11.642   1.056  0.00  0.00    +0.027 A 
BRANCH  12  19
ATOM     18  C   UNL     1       3.366  14.576  -1.019  0.00  0.00    +0.200 C 
ATOM     19  S   UNL     1       4.458  13.161  -0.712  0.00  0.00    -0.006 S 
ATOM     20  O   UNL     1       5.243  13.391   0.450  0.00  0.00    -0.170 OA
ATOM     21  O   UNL     1       5.066  12.740  -1.926  0.00  0.00    -0.170 OA
ENDBRANCH  12  19
ENDBRANCH   1  15
BRANCH  10  22
ATOM     22  C   UNL     1      -0.876   3.052  -1.022  0.00  0.00    +0.080 C 
BRANCH  22  23
ATOM     23  C   UNL     1      -0.795   1.527  -1.120  0.00  0.00    -0.062 C 
BRANCH  23  26
ATOM     24  H   UNL     1       0.002  -0.004   0.002  0.00  0.00    -0.090 HD
ATOM     25  H   UNL     1       0.925   1.379   0.001  0.00  0.00    -0.090 HD
ATOM     26  N   UNL     1      -0.025   1.014   0.027  0.00  0.00    +0.381 N 
ATOM     27  H   UNL     1      -0.476   1.316   0.899  0.00  0.00    -0.090 HD
ENDBRANCH  23  26
BRANCH  23  28
ATOM     28  C   UNL     1      -0.120   1.135  -2.436  0.00  0.00    +0.022 C 
BRANCH  28  29
ATOM     29  C   UNL     1      -0.151  -0.364  -2.589  0.00  0.00    -0.011 A 
ATOM     30  C   UNL     1      -1.103  -0.957  -3.396  0.00  0.00    +0.044 A 
ATOM     31  C   UNL     1      -1.131  -2.334  -3.538  0.00  0.00    +0.124 A 
ATOM     32  C   UNL     1      -0.205  -3.117  -2.870  0.00  0.00    +0.041 A 
ATOM     33  C   UNL     1       0.747  -2.525  -2.062  0.00  0.00    +0.041 A 
ATOM     34  C   UNL     1       0.778  -1.147  -1.925  0.00  0.00    +0.127 A 
ATOM     35  F   UNL     1       1.712  -0.567  -1.139  0.00  0.00    -0.205 F 
ATOM     36  F   UNL     1      -2.062  -2.913  -4.327  0.00  0.00    -0.205 F 
ENDBRANCH  28  29
ENDBRANCH  23  28
ENDBRANCH  22  23
ENDBRANCH  10  22
TORSDOF 7
