REMARK  Name = ZINC14551248
REMARK  3 active torsions:
REMARK  status: ('A' for Active; 'I' for Inactive)
REMARK    1  A    between atoms: C_4  and  C_7
REMARK    2  A    between atoms: C_17  and  N_24
REMARK    3  A    between atoms: C_20  and  O_23
REMARK                            x       y       z     vdW  Elec       q    Type
REMARK                         _______ _______ _______ _____ _____    ______ ____
ROOT
ATOM      1  C   UNL     1       2.821  -0.686  -0.112  0.00  0.00    +0.105 C 
ATOM      2  C   UNL     1       3.158  -0.979   1.320  0.00  0.00    +0.029 C 
ATOM      3  C   UNL     1       4.674  -0.893   1.594  0.00  0.00    +0.033 C 
ATOM      4  C   UNL     1       4.884  -1.840   2.757  0.00  0.00    -0.030 C 
ATOM      5  C   UNL     1       3.870  -2.656   2.884  0.00  0.00    -0.023 C 
ATOM      6  C   UNL     1       2.849  -2.392   1.806  0.00  0.00    +0.051 C 
ATOM      7  C   UNL     1       3.021  -3.436   0.738  0.00  0.00    +0.014 A 
ATOM      8  C   UNL     1       3.069  -4.770   1.124  0.00  0.00    +0.132 A 
ATOM      9  C   UNL     1       3.236  -5.766   0.184  0.00  0.00    +0.037 A 
ATOM     10  C   UNL     1       3.359  -5.444  -1.156  0.00  0.00    +0.049 A 
ATOM     11  C   UNL     1       3.308  -4.119  -1.551  0.00  0.00    +0.138 A 
ATOM     12  C   UNL     1       3.133  -3.112  -0.599  0.00  0.00    +0.076 A 
ATOM     13  N   UNL     1       3.032  -1.797  -1.017  0.00  0.00    -0.334 N 
ATOM     14  H   UNL     1       3.138  -1.612  -1.963  0.00  0.00    +0.147 HD
ENDROOT
BRANCH   1  18
ATOM     15  C   UNL     1      -1.284   0.475  -0.328  0.00  0.00    +0.000 A 
ATOM     16  C   UNL     1      -0.294   1.439  -0.289  0.00  0.00    +0.000 A 
ATOM     17  C   UNL     1       1.034   1.063  -0.219  0.00  0.00    +0.005 A 
ATOM     18  C   UNL     1       1.373  -0.277  -0.187  0.00  0.00    -0.027 A 
ATOM     19  C   UNL     1       0.383  -1.241  -0.225  0.00  0.00    +0.005 A 
ATOM     20  C   UNL     1      -0.945  -0.865  -0.296  0.00  0.00    +0.000 A 
ENDBRANCH   1  18
BRANCH   8  21
ATOM     21  N   UNL     1       2.942  -5.125   2.555  0.00  0.00    +0.057 N 
ATOM     22  O   UNL     1       3.644  -5.988   3.028  0.00  0.00    -0.126 OA
ATOM     23  O   UNL     1       2.135  -4.553   3.250  0.00  0.00    -0.126 OA
ENDBRANCH   8  21
BRANCH  11  24
ATOM     24  O   UNL     1       3.430  -3.797  -2.867  0.00  0.00    -0.505 OA
ATOM     25  H   UNL     1       2.589  -3.766  -3.344  0.00  0.00    +0.292 HD
ENDBRANCH  11  24
TORSDOF 3
