REMARK  Name = ZINC39968336
REMARK  12 active torsions:
REMARK  status: ('A' for Active; 'I' for Inactive)
REMARK    1  A    between atoms: C_1  and  C_2
REMARK    2  A    between atoms: C_2  and  C_3
REMARK    3  A    between atoms: C_3  and  N_4
REMARK    4  A    between atoms: C_5  and  C_7
REMARK    5  A    between atoms: C_10  and  N_13
REMARK    6  A    between atoms: C_14  and  C_16
REMARK    7  A    between atoms: C_16  and  S_17
REMARK    8  A    between atoms: S_17  and  C_18
REMARK    9  A    between atoms: C_21  and  C_25
REMARK   10  A    between atoms: N_22  and  C_23
REMARK   11  A    between atoms: C_23  and  C_24
REMARK   12  A    between atoms: C_32  and  C_35
REMARK                            x       y       z     vdW  Elec       q    Type
REMARK                         _______ _______ _______ _____ _____    ______ ____
ROOT
ATOM      1  C   UNL     1      -3.534 -10.556   0.194  0.00  0.00    +0.173 C 
ENDROOT
BRANCH   1   3
ATOM      2  N   UNL     1      -2.357  -8.387   0.024  0.00  0.00    -0.285 N 
ATOM      3  C   UNL     1      -3.524  -9.060   0.010  0.00  0.00    +0.227 C 
ATOM      4  O   UNL     1      -4.567  -8.462  -0.150  0.00  0.00    -0.275 OA
ATOM      5  H   UNL     1      -1.518  -8.872   0.080  0.00  0.00    +0.155 HD
BRANCH   2   9
ATOM      6  C   UNL     1      -2.348  -4.226  -0.169  0.00  0.00    +0.037 A 
ATOM      7  C   UNL     1      -3.385  -4.895   0.488  0.00  0.00    +0.015 A 
ATOM      8  C   UNL     1      -3.385  -6.270   0.550  0.00  0.00    +0.024 A 
ATOM      9  C   UNL     1      -2.354  -6.995  -0.041  0.00  0.00    +0.033 A 
ATOM     10  C   UNL     1      -1.321  -6.332  -0.696  0.00  0.00    +0.024 A 
ATOM     11  C   UNL     1      -1.317  -4.957  -0.766  0.00  0.00    +0.015 A 
BRANCH   6  13
ATOM     12  N   UNL     1      -3.340  -2.049   0.339  0.00  0.00    -0.311 N 
ATOM     13  C   UNL     1      -2.345  -2.752  -0.237  0.00  0.00    +0.244 C 
ATOM     14  O   UNL     1      -1.445  -2.172  -0.814  0.00  0.00    -0.270 OA
ATOM     15  H   UNL     1      -4.058  -2.511   0.798  0.00  0.00    +0.149 HD
BRANCH  12  16
ATOM     16  C   UNL     1      -3.337  -0.585   0.271  0.00  0.00    +0.104 C 
BRANCH  16  18
ATOM     17  C   UNL     1      -4.564   1.490   0.927  0.00  0.00    +0.005 C 
ATOM     18  C   UNL     1      -4.567  -0.038   0.998  0.00  0.00    +0.015 C 
ENDBRANCH  16  18
ENDBRANCH  12  16
ENDBRANCH   6  13
ENDBRANCH   2   9
ENDBRANCH   1   3
BRANCH   1  19
ATOM     19  S   UNL     1      -5.242 -11.163   0.127  0.00  0.00    -0.077 S 
BRANCH  19  20
ATOM     20  C   UNL     1      -5.086 -12.903   0.354  0.00  0.00    +0.192 A 
ATOM     21  N   UNL     1      -3.969 -13.568   0.535  0.00  0.00    -0.122 NA
ATOM     22  N   UNL     1      -4.217 -14.822   0.667  0.00  0.00    -0.128 NA
ATOM     23  C   UNL     1      -5.509 -15.035   0.579  0.00  0.00    +0.166 A 
ATOM     24  N   UNL     1      -6.107 -13.812   0.382  0.00  0.00    -0.302 N 
BRANCH  23  25
ATOM     25  C   UNL     1      -6.193 -16.342   0.678  0.00  0.00    +0.030 A 
ATOM     26  C   UNL     1      -7.287 -16.488   1.484  0.00  0.00    +0.057 A 
ATOM     27  S   UNL     1      -7.700 -18.207   1.236  0.00  0.00    -0.101 S 
ATOM     28  C   UNL     1      -6.406 -18.609   0.093  0.00  0.00    -0.006 A 
ATOM     29  C   UNL     1      -5.726 -17.444  -0.059  0.00  0.00    -0.026 A 
ATOM     30  C   UNL     1      -4.516 -17.373  -0.986  0.00  0.00    +0.037 C 
ATOM     31  C   UNL     1      -4.012 -18.792  -1.250  0.00  0.00    +0.008 C 
ATOM     32  C   UNL     1      -5.163 -19.673  -1.742  0.00  0.00    -0.009 C 
ATOM     33  C   UNL     1      -6.123 -19.921  -0.565  0.00  0.00    +0.046 C 
ATOM     34  C   UNL     1      -4.610 -21.009  -2.243  0.00  0.00    +0.008 C 
ENDBRANCH  23  25
BRANCH  24  35
ATOM     35  C   UNL     1      -7.539 -13.541   0.229  0.00  0.00    +0.122 C 
ATOM     36  C   UNL     1      -7.897 -13.511  -1.258  0.00  0.00    +0.027 C 
ENDBRANCH  24  35
ENDBRANCH  19  20
ENDBRANCH   1  19
TORSDOF 9
