REMARK  Name = ZINC39665393
REMARK  8 active torsions:
REMARK  status: ('A' for Active; 'I' for Inactive)
REMARK    1  A    between atoms: C_1  and  C_2
REMARK    2  A    between atoms: C_2  and  C_4
REMARK    3  A    between atoms: C_2  and  O_33
REMARK    4  A    between atoms: C_4  and  N_5
REMARK    5  A    between atoms: C_6  and  C_8
REMARK    6  A    between atoms: C_19  and  C_21
REMARK    7  A    between atoms: C_24  and  C_26
REMARK    8  A    between atoms: O_33  and  C_34
REMARK                            x       y       z     vdW  Elec       q    Type
REMARK                         _______ _______ _______ _____ _____    ______ ____
ROOT
ATOM      1  C   UNL     1       2.057  -3.700   1.933  0.00  0.00    +0.100 C 
ATOM      2  C   UNL     1       2.969  -4.031   0.731  0.00  0.00    +0.121 C 
ATOM      3  N   UNL     1       4.345  -3.977   1.279  0.00  0.00    -0.294 N 
ATOM      4  C   UNL     1       4.230  -4.591   2.623  0.00  0.00    +0.115 C 
ATOM      5  C   UNL     1       2.886  -4.073   3.173  0.00  0.00    -0.004 C 
ATOM      6  C   UNL     1       2.184  -5.168   3.969  0.00  0.00    -0.010 C 
ATOM      7  C   UNL     1       2.998  -5.481   5.228  0.00  0.00    -0.082 C 
ATOM      8  N   UNL     1       3.132  -4.266   6.041  0.00  0.00    +0.379 N 
ATOM      9  C   UNL     1       3.890  -3.250   5.301  0.00  0.00    -0.082 C 
ATOM     10  C   UNL     1       3.113  -2.843   4.046  0.00  0.00    -0.010 C 
ATOM     11  C   UNL     1       5.451  -3.481   0.689  0.00  0.00    +0.282 C 
ATOM     12  O   UNL     1       6.532  -3.587   1.237  0.00  0.00    -0.267 OA
ATOM     13  H   UNL     1       2.215  -3.906   6.259  0.00  0.00    -0.086 HD
ATOM     14  H   UNL     1       3.616  -4.488   6.898  0.00  0.00    -0.086 HD
ENDROOT
BRANCH  11  15
ATOM     15  C   UNL     1       5.351  -2.815  -0.612  0.00  0.00    +0.190 A 
ATOM     16  C   UNL     1       6.406  -2.357  -1.370  0.00  0.00    +0.055 A 
ATOM     17  C   UNL     1       5.858  -1.794  -2.526  0.00  0.00    +0.050 A 
ATOM     18  C   UNL     1       4.502  -1.927  -2.434  0.00  0.00    +0.136 A 
ATOM     19  O   UNL     1       4.208  -2.549  -1.280  0.00  0.00    -0.450 OA
BRANCH  18  20
ATOM     20  C   UNL     1       3.522  -1.469  -3.439  0.00  0.00    +0.017 A 
ATOM     21  C   UNL     1       3.960  -0.939  -4.655  0.00  0.00    +0.014 A 
ATOM     22  C   UNL     1       3.041  -0.513  -5.590  0.00  0.00    +0.039 A 
ATOM     23  C   UNL     1       1.683  -0.610  -5.325  0.00  0.00    +0.123 A 
ATOM     24  C   UNL     1       1.243  -1.134  -4.120  0.00  0.00    +0.039 A 
ATOM     25  C   UNL     1       2.153  -1.569  -3.180  0.00  0.00    +0.014 A 
ATOM     26  F   UNL     1       0.787  -0.191  -6.245  0.00  0.00    -0.205 F 
ENDBRANCH  18  20
ENDBRANCH  11  15
BRANCH   1  28
ATOM     27  N   UNL     1       0.636  -1.795   2.620  0.00  0.00    -0.312 N 
ATOM     28  C   UNL     1       1.721  -2.231   1.949  0.00  0.00    +0.218 C 
ATOM     29  O   UNL     1       2.426  -1.442   1.357  0.00  0.00    -0.275 OA
ATOM     30  H   UNL     1       0.032  -2.432   3.031  0.00  0.00    +0.149 HD
BRANCH  27  31
ATOM     31  C   UNL     1       0.371  -0.358   2.728  0.00  0.00    +0.148 C 
BRANCH  31  33
ATOM     32  C   UNL     1      -1.039   1.371   3.852  0.00  0.00    +0.053 C 
ATOM     33  C   UNL     1      -0.839  -0.130   3.636  0.00  0.00    +0.187 C 
BRANCH  33  34
ATOM     34  O   UNL     1      -2.006  -0.683   3.024  0.00  0.00    -0.488 OA
BRANCH  34  35
ATOM     35  C   UNL     1      -3.023  -1.045   3.849  0.00  0.00    +0.121 A 
ATOM     36  C   UNL     1      -2.952  -0.762   5.205  0.00  0.00    +0.045 A 
ATOM     37  C   UNL     1      -3.988  -1.130   6.042  0.00  0.00    +0.004 A 
ATOM     38  C   UNL     1      -5.094  -1.781   5.529  0.00  0.00    +0.000 A 
ATOM     39  C   UNL     1      -5.168  -2.065   4.177  0.00  0.00    +0.004 A 
ATOM     40  C   UNL     1      -4.137  -1.693   3.336  0.00  0.00    +0.045 A 
ENDBRANCH  34  35
ENDBRANCH  33  34
ENDBRANCH  31  33
ENDBRANCH  27  31
ENDBRANCH   1  28
TORSDOF 7
