REMARK  Name = ZINC04284109
REMARK  10 active torsions:
REMARK  status: ('A' for Active; 'I' for Inactive)
REMARK    1  A    between atoms: C_1  and  C_2
REMARK    2  A    between atoms: C_2  and  C_30
REMARK    3  A    between atoms: C_4  and  N_52
REMARK    4  A    between atoms: C_7  and  C_9
REMARK    5  A    between atoms: C_7  and  C_10
REMARK    6  A    between atoms: C_10  and  N_11
REMARK    7  A    between atoms: N_11  and  C_12
REMARK    8  A    between atoms: C_15  and  S_21
REMARK    9  A    between atoms: C_17  and  N_18
REMARK   10  A    between atoms: S_21  and  C_24
REMARK                            x       y       z     vdW  Elec       q    Type
REMARK                         _______ _______ _______ _____ _____    ______ ____
ROOT
ATOM      1  N   UNL     1      -2.277  -0.384  -1.158  0.00  0.00    -0.342 N 
ATOM      2  H   UNL     1      -1.924   0.163  -1.878  0.00  0.00    +0.146 HD
ENDROOT
BRANCH   1   3
ATOM      3  C   UNL     1      -3.658  -0.497  -0.981  0.00  0.00    +0.058 A 
ATOM      4  C   UNL     1      -4.168  -1.373  -0.031  0.00  0.00    +0.027 A 
ATOM      5  C   UNL     1      -5.533  -1.479   0.146  0.00  0.00    +0.029 A 
ATOM      6  C   UNL     1      -6.393  -0.722  -0.630  0.00  0.00    +0.100 A 
ATOM      7  C   UNL     1      -5.889   0.146  -1.580  0.00  0.00    +0.062 A 
ATOM      8  C   UNL     1      -4.524   0.261  -1.758  0.00  0.00    +0.149 A 
BRANCH   8   9
ATOM      9  N   UNL     1      -3.985   1.191  -2.776  0.00  0.00    +0.058 N 
ATOM     10  O   UNL     1      -2.966   1.818  -2.549  0.00  0.00    -0.126 OA
ATOM     11  O   UNL     1      -4.561   1.328  -3.841  0.00  0.00    -0.126 OA
ENDBRANCH   8   9
BRANCH   6  12
ATOM     12  S   UNL     1      -8.135  -0.866  -0.406  0.00  0.00    +0.091 S 
ATOM     13  O   UNL     1      -8.294  -1.292   0.940  0.00  0.00    -0.161 OA
ATOM     14  O   UNL     1      -8.660   0.382  -0.838  0.00  0.00    -0.161 OA
BRANCH  12  15
ATOM     15  C   UNL     1      -8.643  -2.185  -1.543  0.00  0.00    +0.526 C 
ATOM     16  F   UNL     1      -7.979  -3.370  -1.209  0.00  0.00    -0.150 F 
ATOM     17  F   UNL     1     -10.025  -2.380  -1.442  0.00  0.00    -0.150 F 
ATOM     18  F   UNL     1      -8.318  -1.821  -2.854  0.00  0.00    -0.150 F 
ENDBRANCH  12  15
ENDBRANCH   6  12
ENDBRANCH   1   3
BRANCH   1  19
ATOM     19  C   UNL     1      -1.362  -1.090  -0.258  0.00  0.00    +0.108 C 
BRANCH  19  25
ATOM     20  C   UNL     1       3.095  -1.700   1.585  0.00  0.00    +0.011 C 
ATOM     21  C   UNL     1       2.457  -1.118   0.304  0.00  0.00    -0.036 C 
ATOM     22  C   UNL     1       2.587   0.399   0.372  0.00  0.00    -0.010 C 
ATOM     23  C   UNL     1       1.786   1.062  -0.747  0.00  0.00    -0.074 C 
ATOM     24  C   UNL     1       0.310   0.710  -0.572  0.00  0.00    -0.008 C 
ATOM     25  C   UNL     1       0.097  -0.796  -0.672  0.00  0.00    -0.018 C 
ATOM     26  C   UNL     1       1.012  -1.578   0.252  0.00  0.00    +0.014 C 
ATOM     27  C   UNL     1       0.259  -1.252  -2.125  0.00  0.00    +0.012 C 
ATOM     28  C   UNL     1       3.252  -1.660  -0.887  0.00  0.00    +0.011 C 
BRANCH  23  31
ATOM     29  H   UNL     1       2.915   2.788  -0.767  0.00  0.00    -0.090 HD
ATOM     30  H   UNL     1       1.363   2.995  -1.329  0.00  0.00    -0.090 HD
ATOM     31  N   UNL     1       1.940   2.527  -0.631  0.00  0.00    +0.380 N 
ATOM     32  H   UNL     1       1.640   2.825   0.305  0.00  0.00    -0.090 HD
ENDBRANCH  23  31
ENDBRANCH  19  25
ENDBRANCH   1  19
TORSDOF 7
