REMARK  Name = ZINC63122400
REMARK  8 active torsions:
REMARK  status: ('A' for Active; 'I' for Inactive)
REMARK    1  A    between atoms: C_1  and  C_2
REMARK    2  A    between atoms: C_2  and  C_9
REMARK    3  A    between atoms: C_9  and  S_10
REMARK    4  A    between atoms: S_10  and  C_11
REMARK    5  A    between atoms: C_16  and  C_17
REMARK    6  A    between atoms: N_19  and  C_20
REMARK    7  A    between atoms: C_20  and  C_21
REMARK    8  A    between atoms: C_21  and  C_22
REMARK                            x       y       z     vdW  Elec       q    Type
REMARK                         _______ _______ _______ _____ _____    ______ ____
ROOT
ATOM      1  C   UNL     1      -3.970  -0.615   1.163  0.00  0.00    +0.020 A 
ATOM      2  C   UNL     1      -4.223  -1.487   0.111  0.00  0.00    +0.015 A 
ATOM      3  C   UNL     1      -5.472  -2.053  -0.034  0.00  0.00    +0.001 A 
ATOM      4  C   UNL     1      -6.485  -1.757   0.866  0.00  0.00    +0.001 A 
ATOM      5  C   UNL     1      -6.254  -0.895   1.916  0.00  0.00    +0.014 A 
ATOM      6  C   UNL     1      -4.992  -0.318   2.080  0.00  0.00    +0.050 A 
ENDROOT
BRANCH   6   7
ATOM      7  C   UNL     1      -4.737   0.600   3.204  0.00  0.00    +0.245 C 
ATOM      8  O   UNL     1      -3.639   1.104   3.340  0.00  0.00    -0.270 OA
ATOM      9  N   UNL     1      -5.721   0.881   4.081  0.00  0.00    -0.311 N 
ATOM     10  H   UNL     1      -6.597   0.479   3.973  0.00  0.00    +0.149 HD
BRANCH   9  11
ATOM     11  C   UNL     1      -5.467   1.794   5.198  0.00  0.00    +0.109 C 
BRANCH  11  12
ATOM     12  C   UNL     1      -6.739   1.941   6.036  0.00  0.00    +0.052 C 
BRANCH  12  13
ATOM     13  C   UNL     1      -6.478   2.880   7.185  0.00  0.00    -0.040 C 
ATOM     14  C   UNL     1      -6.738   4.207   7.226  0.00  0.00    -0.001 A 
ATOM     15  C   UNL     1      -7.317   5.137   6.250  0.00  0.00    +0.010 A 
ATOM     16  C   UNL     1      -7.454   6.440   6.587  0.00  0.00    +0.001 A 
ATOM     17  C   UNL     1      -7.056   6.923   7.841  0.00  0.00    +0.002 A 
ATOM     18  C   UNL     1      -6.516   6.129   8.790  0.00  0.00    +0.026 A 
ATOM     19  C   UNL     1      -6.327   4.741   8.544  0.00  0.00    +0.043 A 
ATOM     20  N   UNL     1      -5.832   3.782   9.289  0.00  0.00    -0.380 N 
ATOM     21  C   UNL     1      -5.880   2.528   8.529  0.00  0.00    +0.144 C 
ATOM     22  H   UNL     1      -5.495   3.884  10.193  0.00  0.00    +0.160 HD
ENDBRANCH  12  13
ENDBRANCH  11  12
ENDBRANCH   9  11
ENDBRANCH   6   7
BRANCH   1  23
ATOM     23  S   UNL     1      -2.375   0.110   1.351  0.00  0.00    -0.122 S 
BRANCH  23  24
ATOM     24  C   UNL     1      -1.423  -0.560  -0.041  0.00  0.00    +0.109 C 
BRANCH  24  26
ATOM     25  C   UNL     1      -0.019   1.526   0.010  0.00  0.00    +0.042 C 
ATOM     26  C   UNL     1       0.002  -0.004   0.002  0.00  0.00    +0.119 C 
ATOM     27  C   UNL     1       0.815  -0.520  -1.169  0.00  0.00    +0.244 C 
ATOM     28  O   UNL     1       0.595  -0.342  -2.348  0.00  0.00    -0.273 OA
ATOM     29  N   UNL     1       1.833  -1.217  -0.627  0.00  0.00    -0.238 N 
ATOM     30  C   UNL     1       1.777  -1.214   0.710  0.00  0.00    +0.307 C 
ATOM     31  O   UNL     1       2.586  -1.776   1.421  0.00  0.00    -0.252 OA
ATOM     32  N   UNL     1       0.724  -0.519   1.178  0.00  0.00    -0.285 N 
ATOM     33  H   UNL     1       2.520  -1.667  -1.143  0.00  0.00    +0.159 HD
ATOM     34  H   UNL     1       0.487  -0.383   2.109  0.00  0.00    +0.151 HD
ENDBRANCH  24  26
ENDBRANCH  23  24
ENDBRANCH   1  23
TORSDOF 7
