REMARK  Name = ZINC59522510
REMARK  2 active torsions:
REMARK  status: ('A' for Active; 'I' for Inactive)
REMARK    1  A    between atoms: C_3  and  N_20
REMARK    2  A    between atoms: C_6  and  C_7
REMARK                            x       y       z     vdW  Elec       q    Type
REMARK                         _______ _______ _______ _____ _____    ______ ____
ROOT
ATOM      1  C   UNL     1      -1.293  -0.775   0.010  0.00  0.00    +0.295 C 
ATOM      2  N   UNL     1      -1.094  -2.065   0.689  0.00  0.00    -0.305 N 
ATOM      3  C   UNL     1      -0.430  -3.080   0.008  0.00  0.00    +0.044 A 
ATOM      4  C   UNL     1       0.103  -4.171   0.674  0.00  0.00    +0.025 A 
ATOM      5  C   UNL     1       0.751  -5.160  -0.040  0.00  0.00    +0.017 A 
ATOM      6  C   UNL     1       0.873  -5.072  -1.418  0.00  0.00    +0.019 A 
ATOM      7  C   UNL     1       0.349  -3.991  -2.099  0.00  0.00    +0.032 A 
ATOM      8  C   UNL     1      -0.305  -2.987  -1.390  0.00  0.00    +0.081 A 
ATOM      9  C   UNL     1      -0.878  -1.808  -2.069  0.00  0.00    +0.343 C 
ATOM     10  O   UNL     1      -0.615  -1.551  -3.227  0.00  0.00    -0.245 OA
ATOM     11  O   UNL     1      -1.716  -1.020  -1.339  0.00  0.00    -0.435 OA
ATOM     12 BR   UNL     1       1.764  -6.440  -2.372  0.00  0.00    -0.050 Br
ATOM     13  H   UNL     1      -1.418  -2.204   1.592  0.00  0.00    +0.150 HD
ENDROOT
BRANCH   1  19
ATOM     14  C   UNL     1      -0.017   1.378   0.010  0.00  0.00    +0.011 A 
ATOM     15  C   UNL     1       1.171   2.086   0.002  0.00  0.00    +0.033 A 
ATOM     16  C   UNL     1       2.377   1.411  -0.013  0.00  0.00    +0.126 A 
ATOM     17  C   UNL     1       2.396   0.029  -0.020  0.00  0.00    +0.033 A 
ATOM     18  C   UNL     1       1.208  -0.679  -0.012  0.00  0.00    +0.011 A 
ATOM     19  C   UNL     1       0.002  -0.004   0.002  0.00  0.00    +0.011 A 
BRANCH  16  20
ATOM     20  N   UNL     1       3.649   2.168  -0.022  0.00  0.00    +0.056 N 
ATOM     21  O   UNL     1       3.633   3.377  -0.016  0.00  0.00    -0.126 OA
ATOM     22  O   UNL     1       4.704   1.578  -0.035  0.00  0.00    -0.126 OA
ENDBRANCH  16  20
ENDBRANCH   1  19
TORSDOF 2
