REMARK  Name = ZINC39716725
REMARK  17 active torsions:
REMARK  status: ('A' for Active; 'I' for Inactive)
REMARK    1  A    between atoms: C_1  and  C_2
REMARK    2  A    between atoms: C_2  and  C_3
REMARK    3  A    between atoms: C_3  and  N_4
REMARK    4  A    between atoms: C_8  and  S_34
REMARK    5  A    between atoms: N_13  and  C_14
REMARK    6  A    between atoms: C_14  and  C_16
REMARK    7  A    between atoms: C_19  and  S_22
REMARK    8  A    between atoms: S_22  and  N_25
REMARK    9  A    between atoms: N_25  and  C_26
REMARK   10  A    between atoms: N_25  and  C_30
REMARK   11  A    between atoms: C_26  and  C_27
REMARK   12  A    between atoms: C_27  and  C_28
REMARK   13  A    between atoms: C_27  and  C_29
REMARK   14  A    between atoms: C_30  and  C_31
REMARK   15  A    between atoms: C_31  and  C_32
REMARK   16  A    between atoms: C_31  and  C_33
REMARK   17  A    between atoms: S_34  and  C_35
REMARK                            x       y       z     vdW  Elec       q    Type
REMARK                         _______ _______ _______ _____ _____    ______ ____
ROOT
ATOM      1  C   UNL     1      -2.587  -2.750  -5.454  0.00  0.00    +0.039 A 
ATOM      2  C   UNL     1      -2.824  -1.393  -5.231  0.00  0.00    +0.015 A 
ATOM      3  C   UNL     1      -4.099  -0.886  -5.374  0.00  0.00    +0.029 A 
ATOM      4  C   UNL     1      -5.141  -1.719  -5.739  0.00  0.00    +0.106 A 
ATOM      5  C   UNL     1      -4.913  -3.065  -5.962  0.00  0.00    +0.029 A 
ATOM      6  C   UNL     1      -3.642  -3.584  -5.827  0.00  0.00    +0.015 A 
ENDROOT
BRANCH   4   7
ATOM      7  S   UNL     1      -6.767  -1.063  -5.918  0.00  0.00    +0.061 S 
ATOM      8  O   UNL     1      -7.665  -2.148  -5.734  0.00  0.00    -0.153 OA
ATOM      9  O   UNL     1      -6.820   0.114  -5.124  0.00  0.00    -0.153 OA
BRANCH   7  10
ATOM     10  N   UNL     1      -6.928  -0.578  -7.494  0.00  0.00    -0.176 NA
BRANCH  10  11
ATOM     11  C   UNL     1      -7.429  -1.516  -8.501  0.00  0.00    +0.112 C 
BRANCH  11  12
ATOM     12  C   UNL     1      -8.875  -1.161  -8.854  0.00  0.00    -0.001 C 
ATOM     13  C   UNL     1      -9.358  -2.060  -9.994  0.00  0.00    +0.008 C 
ATOM     14  C   UNL     1      -9.765  -1.370  -7.627  0.00  0.00    +0.008 C 
ENDBRANCH  11  12
ENDBRANCH  10  11
BRANCH  10  15
ATOM     15  C   UNL     1      -6.568   0.789  -7.880  0.00  0.00    +0.112 C 
BRANCH  15  16
ATOM     16  C   UNL     1      -5.113   0.820  -8.350  0.00  0.00    -0.001 C 
ATOM     17  C   UNL     1      -4.960  -0.060  -9.593  0.00  0.00    +0.008 C 
ATOM     18  C   UNL     1      -4.717   2.258  -8.692  0.00  0.00    +0.008 C 
ENDBRANCH  15  16
ENDBRANCH  10  15
ENDBRANCH   7  10
ENDBRANCH   4   7
BRANCH   1  19
ATOM     19  C   UNL     1      -1.221  -3.301  -5.303  0.00  0.00    +0.269 C 
ATOM     20  O   UNL     1      -1.016  -4.486  -5.503  0.00  0.00    -0.268 OA
BRANCH  19  30
ATOM     21  N   UNL     1       2.144  -2.331  -4.457  0.00  0.00    -0.321 N 
ATOM     22  C   UNL     1       3.342  -3.018  -4.359  0.00  0.00    +0.058 A 
ATOM     23  C   UNL     1       4.612  -2.536  -4.011  0.00  0.00    +0.028 A 
ATOM     24  C   UNL     1       5.696  -3.379  -3.968  0.00  0.00    +0.017 A 
ATOM     25  C   UNL     1       5.566  -4.732  -4.268  0.00  0.00    +0.009 A 
ATOM     26  C   UNL     1       4.316  -5.232  -4.616  0.00  0.00    +0.032 A 
ATOM     27  C   UNL     1       3.236  -4.384  -4.657  0.00  0.00    +0.040 A 
ATOM     28  S   UNL     1       1.515  -4.582  -5.038  0.00  0.00    -0.052 S 
ATOM     29  C   UNL     1       1.013  -2.994  -4.809  0.00  0.00    +0.167 A 
ATOM     30  N   UNL     1      -0.213  -2.500  -4.945  0.00  0.00    -0.152 NA
BRANCH  25  31
ATOM     31  S   UNL     1       6.968  -5.797  -4.208  0.00  0.00    -0.129 S 
ATOM     32  C   UNL     1       8.330  -4.704  -3.718  0.00  0.00    +0.090 C 
ENDBRANCH  25  31
BRANCH  21  33
ATOM     33  C   UNL     1       2.095  -0.894  -4.174  0.00  0.00    +0.124 C 
BRANCH  33  35
ATOM     34  C   UNL     1       1.759   0.824  -2.392  0.00  0.00    +0.005 C 
ATOM     35  C   UNL     1       1.810  -0.676  -2.687  0.00  0.00    +0.018 C 
ENDBRANCH  33  35
ENDBRANCH  21  33
ENDBRANCH  19  30
ENDBRANCH   1  19
TORSDOF 11
