REMARK  Name = ZINC11867291
REMARK  9 active torsions:
REMARK  status: ('A' for Active; 'I' for Inactive)
REMARK    1  A    between atoms: C_1  and  C_2
REMARK    2  A    between atoms: C_2  and  C_3
REMARK    3  A    between atoms: C_8  and  O_9
REMARK    4  A    between atoms: O_9  and  C_10
REMARK    5  A    between atoms: C_10  and  C_11
REMARK    6  A    between atoms: C_14  and  C_17
REMARK    7  A    between atoms: C_19  and  N_29
REMARK    8  A    between atoms: C_20  and  C_23
REMARK    9  A    between atoms: C_25  and  C_28
REMARK                            x       y       z     vdW  Elec       q    Type
REMARK                         _______ _______ _______ _____ _____    ______ ____
ROOT
ATOM      1  C   UNL     1       3.621   2.120  -0.022  0.00  0.00    -0.005 A 
ATOM      2  C   UNL     1       2.480   1.369  -0.014  0.00  0.00    +0.022 A 
ATOM      3  C   UNL     1       1.235   1.999   0.001  0.00  0.00    +0.065 A 
ATOM      4  C   UNL     1       1.152   3.401   0.009  0.00  0.00    +0.144 A 
ATOM      5  C   UNL     1       2.319   4.150   0.001  0.00  0.00    +0.093 A 
ATOM      6  C   UNL     1       3.548   3.510  -0.014  0.00  0.00    +0.128 A 
ATOM      7  O   UNL     1      -0.054   4.009   0.023  0.00  0.00    -0.441 OA
ATOM      8  C   UNL     1      -1.205   3.325   0.029  0.00  0.00    +0.198 A 
ATOM      9  C   UNL     1      -1.239   1.938   0.018  0.00  0.00    +0.111 A 
ATOM     10  C   UNL     1      -0.015   1.216   0.009  0.00  0.00    +0.204 A 
ATOM     11  O   UNL     1       0.002  -0.004   0.002  0.00  0.00    -0.286 OA
ENDROOT
BRANCH   9  12
ATOM     12  C   UNL     1      -2.528   1.222   0.021  0.00  0.00    +0.117 A 
ATOM     13  N   UNL     1      -3.762   1.710   0.029  0.00  0.00    -0.244 NA
ATOM     14  C   UNL     1      -4.809   0.914   0.030  0.00  0.00    +0.046 A 
ATOM     15  C   UNL     1      -4.635  -0.432   0.022  0.00  0.00    +0.070 A 
ATOM     16  S   UNL     1      -2.850  -0.536   0.005  0.00  0.00    -0.075 S 
ATOM     17  C   UNL     1      -6.199   1.495   0.040  0.00  0.00    +0.066 C 
ENDBRANCH   9  12
BRANCH   8  18
ATOM     18  N   UNL     1      -2.384   4.016   0.043  0.00  0.00    -0.329 N 
ATOM     19  H   UNL     1      -2.379   4.986   0.048  0.00  0.00    +0.145 HD
ATOM     20  H   UNL     1      -3.227   3.536   0.049  0.00  0.00    +0.145 HD
ENDBRANCH   8  18
BRANCH   1  22
ATOM     21  C   UNL     1       5.492   1.315   1.393  0.00  0.00    +0.009 C 
ATOM     22  C   UNL     1       4.966   1.440  -0.038  0.00  0.00    +0.035 C 
ENDBRANCH   1  22
BRANCH   6  23
ATOM     23  O   UNL     1       4.690   4.245  -0.022  0.00  0.00    -0.487 OA
BRANCH  23  24
ATOM     24  C   UNL     1       4.547   5.667  -0.014  0.00  0.00    +0.264 C 
BRANCH  24  25
ATOM     25  C   UNL     1       5.910   6.309  -0.025  0.00  0.00    -0.010 A 
ATOM     26  C   UNL     1       6.545   6.603   1.167  0.00  0.00    +0.007 A 
ATOM     27  C   UNL     1       7.798   7.188   1.157  0.00  0.00    +0.004 A 
ATOM     28  C   UNL     1       8.411   7.487  -0.045  0.00  0.00    -0.050 A 
ATOM     29  C   UNL     1       7.774   7.198  -1.237  0.00  0.00    +0.004 A 
ATOM     30  C   UNL     1       6.523   6.609  -1.227  0.00  0.00    +0.007 A 
ATOM     31  C   UNL     1       9.774   8.129  -0.056  0.00  0.00    +0.044 C 
ENDBRANCH  24  25
ENDBRANCH  23  24
ENDBRANCH   6  23
TORSDOF 6
