REMARK  Name = ZINC09994592
REMARK  8 active torsions:
REMARK  status: ('A' for Active; 'I' for Inactive)
REMARK    1  A    between atoms: C_1  and  C_2
REMARK    2  A    between atoms: C_2  and  C_27
REMARK    3  A    between atoms: C_9  and  N_26
REMARK    4  A    between atoms: C_10  and  C_24
REMARK    5  A    between atoms: C_11  and  C_14
REMARK    6  A    between atoms: C_16  and  O_22
REMARK    7  A    between atoms: C_17  and  O_21
REMARK    8  A    between atoms: O_22  and  C_23
REMARK                            x       y       z     vdW  Elec       q    Type
REMARK                         _______ _______ _______ _____ _____    ______ ____
ROOT
ATOM      1  C   UNL     1       4.199  -0.369  -1.990  0.00  0.00    +0.012 C 
ATOM      2  C   UNL     1       4.675  -0.270  -0.539  0.00  0.00    -0.021 C 
ATOM      3  C   UNL     1       3.593  -0.815   0.390  0.00  0.00    +0.081 C 
ATOM      4  C   UNL     1       2.364   0.050   0.358  0.00  0.00    +0.112 C 
ATOM      5  C   UNL     1       2.416   1.370  -0.026  0.00  0.00    +0.076 C 
ATOM      6  C   UNL     1       3.679   1.974  -0.450  0.00  0.00    +0.169 C 
ATOM      7  O   UNL     1       3.704   3.060  -0.992  0.00  0.00    -0.292 OA
ATOM      8  C   UNL     1       4.954   1.198  -0.190  0.00  0.00    +0.086 C 
ATOM      9  C   UNL     1       1.179   2.176   0.003  0.00  0.00    +0.056 C 
ATOM     10  C   UNL     1      -0.018   1.506   0.010  0.00  0.00    +0.095 C 
ATOM     11  C   UNL     1       0.002  -0.004   0.002  0.00  0.00    +0.246 C 
ATOM     12  O   UNL     1       1.175  -0.475   0.718  0.00  0.00    -0.482 OA
ATOM     13  C   UNL     1       5.957  -1.088  -0.365  0.00  0.00    +0.012 C 
ENDROOT
BRANCH  11  14
ATOM     14  C   UNL     1      -1.241  -0.527   0.675  0.00  0.00    +0.003 A 
ATOM     15  C   UNL     1      -2.307  -0.964  -0.090  0.00  0.00    +0.057 A 
ATOM     16  C   UNL     1      -3.450  -1.446   0.527  0.00  0.00    +0.163 A 
ATOM     17  C   UNL     1      -3.523  -1.489   1.916  0.00  0.00    +0.172 A 
ATOM     18  C   UNL     1      -2.451  -1.050   2.676  0.00  0.00    +0.059 A 
ATOM     19  C   UNL     1      -1.310  -0.575   2.054  0.00  0.00    +0.025 A 
ATOM     20  I   UNL     1      -2.554  -1.113   4.768  0.00  0.00    -0.040 I 
BRANCH  17  21
ATOM     21  O   UNL     1      -4.643  -1.961   2.526  0.00  0.00    -0.503 OA
ATOM     22  H   UNL     1      -4.699  -1.995   3.624  0.00  0.00    +0.292 HD
ENDBRANCH  17  21
BRANCH  16  23
ATOM     23  O   UNL     1      -4.500  -1.875  -0.224  0.00  0.00    -0.491 OA
ATOM     24  C   UNL     1      -4.355  -1.801  -1.644  0.00  0.00    +0.277 C 
ENDBRANCH  16  23
ENDBRANCH  11  14
BRANCH   9  25
ATOM     25  N   UNL     1       1.226   3.555   0.020  0.00  0.00    -0.356 N 
ATOM     26  H   UNL     1       0.292   4.136   0.041  0.00  0.00    +0.142 HD
ATOM     27  H   UNL     1       2.196   4.072   0.014  0.00  0.00    +0.142 HD
ENDBRANCH   9  25
BRANCH  10  28
ATOM     28  C   UNL     1      -1.259   2.221   0.020  0.00  0.00    +0.101 C 
ATOM     29  N   UNL     1      -2.243   2.789   0.028  0.00  0.00    -0.191 NA
ENDBRANCH  10  28
TORSDOF 5
