REMARK  Name = ZINC03907209
REMARK  6 active torsions:
REMARK  status: ('A' for Active; 'I' for Inactive)
REMARK    1  A    between atoms: C_1  and  C_2
REMARK    2  A    between atoms: C_6  and  C_8
REMARK    3  A    between atoms: C_10  and  C_19
REMARK    4  A    between atoms: C_11  and  C_18
REMARK    5  A    between atoms: C_19  and  O_21
REMARK    6  A    between atoms: O_21  and  C_22
REMARK                            x       y       z     vdW  Elec       q    Type
REMARK                         _______ _______ _______ _____ _____    ______ ____
ROOT
ATOM      1  C   UNL     1       1.368  -0.784  -0.036  0.00  0.00    +0.179 C 
ATOM      2  C   UNL     1       2.460   0.215   0.242  0.00  0.00    +0.082 C 
ATOM      3  C   UNL     1       2.255   1.541   0.251  0.00  0.00    +0.020 C 
ATOM      4  N   UNL     1       1.020   2.092   0.014  0.00  0.00    -0.287 N 
ATOM      5  C   UNL     1      -0.073   1.237   0.024  0.00  0.00    +0.218 A 
ATOM      6  N   UNL     1       0.073  -0.111   0.006  0.00  0.00    -0.221 N 
ATOM      7  N   UNL     1      -1.213  -0.650   0.032  0.00  0.00    -0.156 NA
ATOM      8  C   UNL     1      -2.046   0.362   0.059  0.00  0.00    +0.247 A 
ATOM      9  N   UNL     1      -1.350   1.504   0.055  0.00  0.00    -0.201 NA
ATOM     10  C   UNL     1       3.420   2.456   0.529  0.00  0.00    +0.061 C 
ATOM     11  H   UNL     1       0.916   3.042  -0.153  0.00  0.00    +0.155 HD
ENDROOT
BRANCH   1  17
ATOM     12  C   UNL     1       2.152  -4.793  -2.926  0.00  0.00    +0.044 C 
ATOM     13  C   UNL     1       1.951  -3.307  -2.784  0.00  0.00    -0.050 A 
ATOM     14  C   UNL     1       1.958  -2.497  -3.905  0.00  0.00    +0.003 A 
ATOM     15  C   UNL     1       1.773  -1.134  -3.774  0.00  0.00    +0.001 A 
ATOM     16  C   UNL     1       1.578  -0.580  -2.522  0.00  0.00    +0.006 A 
ATOM     17  C   UNL     1       1.576  -1.388  -1.401  0.00  0.00    -0.018 A 
ATOM     18  C   UNL     1       1.760  -2.752  -1.532  0.00  0.00    +0.009 A 
ENDBRANCH   1  17
BRANCH   2  19
ATOM     19  C   UNL     1       3.761  -0.267   0.508  0.00  0.00    +0.339 C 
ATOM     20  O   UNL     1       4.687   0.514   0.628  0.00  0.00    -0.245 OA
BRANCH  19  21
ATOM     21  O   UNL     1       3.978  -1.594   0.628  0.00  0.00    -0.458 OA
BRANCH  21  22
ATOM     22  C   UNL     1       5.318  -2.010   0.896  0.00  0.00    +0.177 C 
ATOM     23  C   UNL     1       6.054  -2.245  -0.425  0.00  0.00    +0.044 C 
ATOM     24  C   UNL     1       7.489  -2.691  -0.137  0.00  0.00    +0.004 C 
ATOM     25  C   UNL     1       7.467  -3.989   0.672  0.00  0.00    +0.000 C 
ATOM     26  C   UNL     1       6.731  -3.755   1.993  0.00  0.00    +0.004 C 
ATOM     27  C   UNL     1       5.296  -3.308   1.706  0.00  0.00    +0.044 C 
ENDBRANCH  21  22
ENDBRANCH  19  21
ENDBRANCH   2  19
TORSDOF 4
