REMARK  Name = ZINC50901434
REMARK  9 active torsions:
REMARK  status: ('A' for Active; 'I' for Inactive)
REMARK    1  A    between atoms: C_1  and  C_2
REMARK    2  A    between atoms: C_2  and  C_3
REMARK    3  A    between atoms: C_3  and  C_4
REMARK    4  A    between atoms: C_4  and  C_6
REMARK    5  A    between atoms: C_4  and  N_7
REMARK    6  A    between atoms: C_8  and  C_10
REMARK    7  A    between atoms: N_15  and  C_17
REMARK    8  A    between atoms: C_17  and  N_18
REMARK    9  A    between atoms: C_24  and  C_27
REMARK                            x       y       z     vdW  Elec       q    Type
REMARK                         _______ _______ _______ _____ _____    ______ ____
ROOT
ATOM      1  C   UNL     1       2.161  -4.236   1.519  0.00  0.00    +0.058 C 
ATOM      2  C   UNL     1       1.982  -3.302   2.720  0.00  0.00    +0.009 C 
ATOM      3  C   UNL     1       2.770  -3.859   3.909  0.00  0.00    -0.018 C 
ATOM      4  C   UNL     1       2.295  -5.283   4.207  0.00  0.00    -0.077 C 
ATOM      5  N   UNL     1       2.517  -6.132   3.030  0.00  0.00    +0.391 N 
ATOM      6  C   UNL     1       1.709  -5.646   1.905  0.00  0.00    -0.064 C 
ATOM      7  H   UNL     1       3.493  -6.107   2.778  0.00  0.00    -0.079 HD
ENDROOT
BRANCH   1   9
ATOM      8  N   UNL     1       1.548  -2.511  -0.144  0.00  0.00    -0.313 N 
ATOM      9  C   UNL     1       1.328  -3.739   0.366  0.00  0.00    +0.215 C 
ATOM     10  O   UNL     1       0.460  -4.443  -0.103  0.00  0.00    -0.276 OA
ATOM     11  H   UNL     1       2.243  -1.947   0.231  0.00  0.00    +0.149 HD
BRANCH   8  12
ATOM     12  C   UNL     1       0.739  -2.027  -1.265  0.00  0.00    +0.070 C 
ATOM     13  C   UNL     1       1.343  -2.522  -2.581  0.00  0.00    +0.028 C 
BRANCH  12  14
ATOM     14  C   UNL     1       0.718  -0.497  -1.257  0.00  0.00    +0.022 C 
BRANCH  14  16
ATOM     15  C   UNL     1      -0.019   1.526   0.010  0.00  0.00    +0.004 C 
ATOM     16  C   UNL     1       0.002  -0.004   0.002  0.00  0.00    -0.002 C 
ENDBRANCH  14  16
ENDBRANCH  12  14
ENDBRANCH   8  12
ENDBRANCH   1   9
BRANCH   5  17
ATOM     17  C   UNL     1       2.132  -7.514   3.347  0.00  0.00    +0.043 C 
BRANCH  17  18
ATOM     18  N   UNL     1       3.022  -8.044   4.382  0.00  0.00    -0.241 N 
ATOM     19  C   UNL     1       4.181  -8.688   4.129  0.00  0.00    +0.245 C 
ATOM     20  O   UNL     1       4.664  -8.929   3.044  0.00  0.00    -0.273 OA
ATOM     21  C   UNL     1       4.748  -9.045   5.483  0.00  0.00    +0.112 C 
ATOM     22  C   UNL     1       6.101  -8.371   5.687  0.00  0.00    +0.035 C 
ATOM     23  C   UNL     1       7.099  -8.909   4.658  0.00  0.00    +0.006 C 
ATOM     24  C   UNL     1       7.235 -10.424   4.824  0.00  0.00    -0.014 C 
ATOM     25  C   UNL     1       5.875 -11.088   4.597  0.00  0.00    +0.006 C 
ATOM     26  C   UNL     1       4.872 -10.558   5.625  0.00  0.00    +0.035 C 
ATOM     27  C   UNL     1       8.241 -10.960   3.804  0.00  0.00    +0.007 C 
ATOM     28  N   UNL     1       3.762  -8.517   6.434  0.00  0.00    -0.285 N 
ATOM     29  C   UNL     1       2.791  -7.945   5.697  0.00  0.00    +0.308 C 
ATOM     30  O   UNL     1       1.812  -7.402   6.172  0.00  0.00    -0.252 OA
ATOM     31  H   UNL     1       3.803  -8.568   7.402  0.00  0.00    +0.151 HD
ENDBRANCH  17  18
ENDBRANCH   5  17
TORSDOF 6
