REMARK  Name = ZINC20245531
REMARK  6 active torsions:
REMARK  status: ('A' for Active; 'I' for Inactive)
REMARK    1  A    between atoms: C_1  and  C_2
REMARK    2  A    between atoms: C_4  and  N_7
REMARK    3  A    between atoms: N_7  and  S_8
REMARK    4  A    between atoms: S_8  and  C_11
REMARK    5  A    between atoms: C_11  and  C_12
REMARK    6  A    between atoms: C_12  and  C_13
REMARK                            x       y       z     vdW  Elec       q    Type
REMARK                         _______ _______ _______ _____ _____    ______ ____
ROOT
ATOM      1  S   UNL     1      -3.499   2.270   1.043  0.00  0.00    +0.066 S 
ATOM      2  O   UNL     1      -4.743   1.627   0.799  0.00  0.00    -0.153 OA
ATOM      3  O   UNL     1      -2.886   2.200   2.323  0.00  0.00    -0.153 OA
ENDROOT
BRANCH   1   4
ATOM      4  N   UNL     1      -2.430   1.526   0.021  0.00  0.00    -0.062 NA
BRANCH   4   8
ATOM      5  C   UNL     1       2.544   1.583  -0.012  0.00  0.00    +0.069 C 
ATOM      6  C   UNL     1       1.085   1.959   0.002  0.00  0.00    +0.083 A 
ATOM      7  C   UNL     1      -0.013   1.076   0.008  0.00  0.00    +0.095 A 
ATOM      8  C   UNL     1      -1.100   1.903   0.017  0.00  0.00    +0.258 A 
ATOM      9  O   UNL     1      -0.618   3.156   0.024  0.00  0.00    -0.336 OA
ATOM     10  N   UNL     1       0.591   3.165   0.013  0.00  0.00    -0.081 NA
ENDBRANCH   4   8
ENDBRANCH   1   4
BRANCH   1  11
ATOM     11  C   UNL     1      -3.565   3.992   0.476  0.00  0.00    +0.202 C 
BRANCH  11  12
ATOM     12  C   UNL     1      -4.533   4.783   1.358  0.00  0.00    +0.149 C 
BRANCH  12  13
ATOM     13  C   UNL     1      -4.588   6.213   0.886  0.00  0.00    +0.358 C 
ATOM     14  O   UNL     1      -3.921   6.564  -0.058  0.00  0.00    -0.246 OA
ATOM     15  O   UNL     1      -5.377   7.098   1.516  0.00  0.00    -0.246 OA
ENDBRANCH  12  13
ENDBRANCH  11  12
ENDBRANCH   1  11
TORSDOF 5
