REMARK  Name = ZINC39652912
REMARK  8 active torsions:
REMARK  status: ('A' for Active; 'I' for Inactive)
REMARK    1  A    between atoms: C_1  and  C_2
REMARK    2  A    between atoms: C_2  and  C_3
REMARK    3  A    between atoms: C_3  and  C_5
REMARK    4  A    between atoms: C_3  and  C_11
REMARK    5  A    between atoms: C_15  and  C_24
REMARK    6  A    between atoms: N_26  and  C_27
REMARK    7  A    between atoms: C_27  and  C_28
REMARK    8  A    between atoms: C_28  and  C_29
REMARK                            x       y       z     vdW  Elec       q    Type
REMARK                         _______ _______ _______ _____ _____    ______ ____
ROOT
ATOM      1  C   UNL     1       0.836  -2.172   1.177  0.00  0.00    +0.223 C 
ATOM      2  O   UNL     1       0.405  -2.885   2.059  0.00  0.00    -0.275 OA
ATOM      3  N   UNL     1       1.528  -2.710   0.153  0.00  0.00    -0.300 N 
ATOM      4  C   UNL     1       2.132  -2.008  -1.003  0.00  0.00    +0.121 C 
ATOM      5  C   UNL     1       3.483  -2.723  -1.232  0.00  0.00    +0.100 C 
ATOM      6  C   UNL     1       3.295  -4.121  -0.619  0.00  0.00    -0.004 C 
ATOM      7  C   UNL     1       1.863  -4.138  -0.067  0.00  0.00    +0.115 C 
ATOM      8  C   UNL     1       3.462  -5.194  -1.690  0.00  0.00    -0.010 C 
ATOM      9  C   UNL     1       3.329  -6.577  -1.046  0.00  0.00    -0.082 C 
ATOM     10  N   UNL     1       4.351  -6.734  -0.004  0.00  0.00    +0.379 N 
ATOM     11  C   UNL     1       4.127  -5.757   1.068  0.00  0.00    -0.082 C 
ATOM     12  C   UNL     1       4.294  -4.340   0.513  0.00  0.00    -0.010 C 
ATOM     13  H   UNL     1       4.301  -7.667   0.377  0.00  0.00    -0.086 HD
ATOM     14  H   UNL     1       5.265  -6.587  -0.406  0.00  0.00    -0.086 HD
ENDROOT
BRANCH   5  15
ATOM     15  C   UNL     1       3.777  -2.829  -2.706  0.00  0.00    +0.218 C 
ATOM     16  O   UNL     1       2.866  -2.920  -3.502  0.00  0.00    -0.275 OA
ATOM     17  N   UNL     1       5.053  -2.823  -3.140  0.00  0.00    -0.315 N 
ATOM     18  H   UNL     1       5.782  -2.750  -2.504  0.00  0.00    +0.149 HD
BRANCH  17  19
ATOM     19  C   UNL     1       5.340  -2.925  -4.574  0.00  0.00    +0.109 C 
BRANCH  19  20
ATOM     20  C   UNL     1       6.853  -2.895  -4.795  0.00  0.00    +0.054 C 
BRANCH  20  21
ATOM     21  C   UNL     1       7.148  -3.001  -6.269  0.00  0.00    -0.046 A 
ATOM     22  C   UNL     1       7.315  -4.243  -6.853  0.00  0.00    +0.005 A 
ATOM     23  C   UNL     1       7.585  -4.340  -8.205  0.00  0.00    +0.015 A 
ATOM     24  C   UNL     1       7.687  -3.195  -8.974  0.00  0.00    +0.018 A 
ATOM     25  C   UNL     1       7.520  -1.953  -8.389  0.00  0.00    +0.015 A 
ATOM     26  C   UNL     1       7.245  -1.856  -7.038  0.00  0.00    +0.005 A 
ATOM     27 BR   UNL     1       8.057  -3.328 -10.823  0.00  0.00    -0.050 Br
ENDBRANCH  20  21
ENDBRANCH  19  20
ENDBRANCH  17  19
ENDBRANCH   5  15
BRANCH   1  28
ATOM     28  C   UNL     1       0.596  -0.685   1.225  0.00  0.00    +0.105 C 
BRANCH  28  29
ATOM     29  C   UNL     1      -0.197  -0.344   2.461  0.00  0.00    -0.036 A 
ATOM     30  C   UNL     1      -1.450  -0.895   2.652  0.00  0.00    +0.004 A 
ATOM     31  C   UNL     1      -2.176  -0.582   3.786  0.00  0.00    +0.000 A 
ATOM     32  C   UNL     1      -1.650   0.282   4.728  0.00  0.00    +0.000 A 
ATOM     33  C   UNL     1      -0.397   0.832   4.536  0.00  0.00    +0.000 A 
ATOM     34  C   UNL     1       0.332   0.516   3.405  0.00  0.00    +0.004 A 
ENDBRANCH  28  29
BRANCH  28  36
ATOM     35  C   UNL     1      -0.322   1.270  -0.032  0.00  0.00    +0.005 C 
ATOM     36  C   UNL     1      -0.186  -0.254  -0.018  0.00  0.00    +0.014 C 
ENDBRANCH  28  36
ENDBRANCH   1  28
TORSDOF 7
