REMARK  Name = ZINC50806485
REMARK  9 active torsions:
REMARK  status: ('A' for Active; 'I' for Inactive)
REMARK    1  A    between atoms: C_1  and  C_2
REMARK    2  A    between atoms: C_2  and  C_3
REMARK    3  A    between atoms: C_3  and  C_4
REMARK    4  A    between atoms: C_4  and  C_5
REMARK    5  A    between atoms: C_5  and  C_7
REMARK    6  A    between atoms: C_5  and  N_23
REMARK    7  A    between atoms: N_9  and  C_10
REMARK    8  A    between atoms: C_13  and  N_17
REMARK    9  A    between atoms: C_15  and  C_16
REMARK                            x       y       z     vdW  Elec       q    Type
REMARK                         _______ _______ _______ _____ _____    ______ ____
ROOT
ATOM      1  C   UNL     1      -2.234  -4.082   0.193  0.00  0.00    +0.238 C 
ATOM      2  O   UNL     1      -1.841  -4.756  -0.736  0.00  0.00    -0.273 OA
ATOM      3  N   UNL     1      -2.640  -4.676   1.332  0.00  0.00    -0.284 N 
ATOM      4  H   UNL     1      -2.877  -4.137   2.103  0.00  0.00    +0.155 HD
ENDROOT
BRANCH   3   5
ATOM      5  C   UNL     1      -2.721  -6.074   1.403  0.00  0.00    +0.036 A 
ATOM      6  C   UNL     1      -2.896  -6.819   0.244  0.00  0.00    +0.025 A 
ATOM      7  C   UNL     1      -2.976  -8.195   0.314  0.00  0.00    +0.025 A 
ATOM      8  C   UNL     1      -2.881  -8.835   1.543  0.00  0.00    +0.030 A 
ATOM      9  C   UNL     1      -2.706  -8.090   2.702  0.00  0.00    +0.028 A 
ATOM     10  C   UNL     1      -2.622  -6.714   2.631  0.00  0.00    -0.028 A 
ATOM     11  C   UNL     1      -2.426  -5.905   3.888  0.00  0.00    +0.046 C 
BRANCH   8  12
ATOM     12  N   UNL     1      -2.962 -10.230   1.614  0.00  0.00    -0.328 N 
ATOM     13  C   UNL     1      -3.021 -11.014   0.380  0.00  0.00    +0.116 C 
ATOM     14  C   UNL     1      -1.752 -11.864   0.253  0.00  0.00    +0.088 C 
ATOM     15  S   UNL     1      -1.605 -12.914   1.730  0.00  0.00    -0.158 S 
ATOM     16  C   UNL     1      -1.713 -11.722   3.098  0.00  0.00    +0.088 C 
ATOM     17  C   UNL     1      -2.981 -10.887   2.921  0.00  0.00    +0.116 C 
ENDBRANCH   8  12
ENDBRANCH   3   5
BRANCH   1  18
ATOM     18  C   UNL     1      -2.268  -2.580   0.074  0.00  0.00    +0.161 C 
BRANCH  18  19
ATOM     19  N   UNL     1      -2.250  -2.202  -1.342  0.00  0.00    -0.288 N 
ATOM     20  C   UNL     1      -1.215  -2.568  -2.124  0.00  0.00    +0.298 C 
ATOM     21  O   UNL     1      -0.296  -3.212  -1.655  0.00  0.00    -0.253 OA
ATOM     22  N   UNL     1      -1.199  -2.221  -3.426  0.00  0.00    -0.313 N 
ATOM     23  H   UNL     1      -2.983  -1.689  -1.716  0.00  0.00    +0.151 HD
ATOM     24  H   UNL     1      -1.932  -1.707  -3.800  0.00  0.00    +0.146 HD
ATOM     25  H   UNL     1      -0.455  -2.484  -3.989  0.00  0.00    +0.146 HD
ENDBRANCH  18  19
BRANCH  18  26
ATOM     26  C   UNL     1      -1.045  -1.985   0.775  0.00  0.00    +0.032 C 
BRANCH  26  27
ATOM     27  C   UNL     1      -1.143  -0.458   0.763  0.00  0.00    +0.002 C 
BRANCH  27  29
ATOM     28  C   UNL     1      -0.018   1.664   1.452  0.00  0.00    +0.004 C 
ATOM     29  C   UNL     1       0.080   0.137   1.464  0.00  0.00    -0.003 C 
ENDBRANCH  27  29
ENDBRANCH  26  27
ENDBRANCH  18  26
ENDBRANCH   1  18
TORSDOF 7
