REMARK  Name = ZINC39899121
REMARK  10 active torsions:
REMARK  status: ('A' for Active; 'I' for Inactive)
REMARK    1  A    between atoms: C_1  and  O_2
REMARK    2  A    between atoms: O_2  and  C_3
REMARK    3  A    between atoms: C_6  and  C_9
REMARK    4  A    between atoms: C_9  and  N_10
REMARK    5  A    between atoms: C_11  and  C_29
REMARK    6  A    between atoms: C_14  and  C_21
REMARK    7  A    between atoms: C_26  and  O_27
REMARK    8  A    between atoms: C_33  and  O_35
REMARK    9  A    between atoms: O_35  and  C_36
REMARK   10  A    between atoms: C_36  and  C_37
REMARK                            x       y       z     vdW  Elec       q    Type
REMARK                         _______ _______ _______ _____ _____    ______ ____
ROOT
ATOM      1  N   UNL     1       1.620  -2.797   5.383  0.00  0.00    -0.281 N 
ATOM      2  C   UNL     1       1.310  -1.872   6.480  0.00  0.00    +0.142 C 
ATOM      3  C   UNL     1       0.268  -2.553   7.325  0.00  0.00    +0.035 A 
ATOM      4  C   UNL     1      -0.540  -2.499   8.416  0.00  0.00    +0.075 A 
ATOM      5  N   UNL     1      -1.238  -3.672   8.444  0.00  0.00    -0.276 N 
ATOM      6  H   UNL     1      -1.895  -3.914   9.117  0.00  0.00    +0.189 HD
ATOM      7  N   UNL     1      -0.897  -4.410   7.448  0.00  0.00    -0.168 NA
ATOM      8  C   UNL     1       0.016  -3.803   6.716  0.00  0.00    +0.153 A 
ATOM      9  C   UNL     1       0.870  -3.904   5.519  0.00  0.00    +0.268 C 
ATOM     10  O   UNL     1       0.895  -4.855   4.762  0.00  0.00    -0.268 OA
ENDROOT
BRANCH   4  11
ATOM     11  C   UNL     1      -0.643  -1.386   9.385  0.00  0.00    +0.043 A 
ATOM     12  C   UNL     1      -0.250  -1.572  10.710  0.00  0.00    +0.033 A 
ATOM     13  C   UNL     1      -0.348  -0.529  11.610  0.00  0.00    +0.042 A 
ATOM     14  C   UNL     1      -0.837   0.701  11.201  0.00  0.00    +0.023 A 
ATOM     15  C   UNL     1      -1.229   0.895   9.890  0.00  0.00    +0.047 A 
ATOM     16  C   UNL     1      -1.130  -0.140   8.975  0.00  0.00    +0.126 A 
ATOM     17 CL   UNL     1       0.141  -0.761  13.259  0.00  0.00    -0.084 Cl
BRANCH  16  18
ATOM     18  O   UNL     1      -1.510   0.053   7.684  0.00  0.00    -0.506 OA
ATOM     19  H   UNL     1      -2.441  -0.145   7.515  0.00  0.00    +0.292 HD
ENDBRANCH  16  18
ENDBRANCH   4  11
BRANCH   2  20
ATOM     20  C   UNL     1       2.547  -1.605   7.298  0.00  0.00    -0.019 A 
ATOM     21  C   UNL     1       3.443  -2.628   7.549  0.00  0.00    +0.006 A 
ATOM     22  C   UNL     1       4.579  -2.386   8.298  0.00  0.00    +0.004 A 
ATOM     23  C   UNL     1       4.822  -1.121   8.799  0.00  0.00    +0.045 A 
ATOM     24  C   UNL     1       3.924  -0.094   8.548  0.00  0.00    +0.121 A 
ATOM     25  C   UNL     1       2.788  -0.338   7.790  0.00  0.00    +0.051 A 
BRANCH  24  26
ATOM     26  O   UNL     1       4.161   1.151   9.040  0.00  0.00    -0.488 OA
BRANCH  26  27
ATOM     27  C   UNL     1       5.353   1.330   9.806  0.00  0.00    +0.256 C 
BRANCH  27  28
ATOM     28  C   UNL     1       5.446   2.763  10.264  0.00  0.00    +0.006 C 
ATOM     29  C   UNL     1       5.777   3.035  11.501  0.00  0.00    +0.007 C 
ENDBRANCH  27  28
ENDBRANCH  26  27
ENDBRANCH  24  26
ENDBRANCH   2  20
BRANCH   1  30
ATOM     30  C   UNL     1       2.587  -2.550   4.310  0.00  0.00    +0.144 C 
BRANCH  30  34
ATOM     31  C   UNL     1       0.626  -0.618   1.042  0.00  0.00    +0.120 A 
ATOM     32  C   UNL     1       1.202   0.138   2.051  0.00  0.00    +0.046 A 
ATOM     33  C   UNL     1       1.835  -0.488   3.107  0.00  0.00    +0.009 A 
ATOM     34  C   UNL     1       1.895  -1.869   3.158  0.00  0.00    -0.030 A 
ATOM     35  C   UNL     1       1.322  -2.625   2.152  0.00  0.00    +0.009 A 
ATOM     36  C   UNL     1       0.682  -2.003   1.098  0.00  0.00    +0.046 A 
BRANCH  31  38
ATOM     37  C   UNL     1      -0.017   1.425   0.010  0.00  0.00    +0.277 C 
ATOM     38  O   UNL     1       0.002  -0.004   0.002  0.00  0.00    -0.495 OA
ENDBRANCH  31  38
ENDBRANCH  30  34
ENDBRANCH   1  30
TORSDOF 9
