REMARK  Name = ZINC02377035
REMARK  12 active torsions:
REMARK  status: ('A' for Active; 'I' for Inactive)
REMARK    1  A    between atoms: C_1  and  C_2
REMARK    2  A    between atoms: C_2  and  C_3
REMARK    3  A    between atoms: C_3  and  S_4
REMARK    4  A    between atoms: S_4  and  C_5
REMARK    5  A    between atoms: C_14  and  C_16
REMARK    6  A    between atoms: C_14  and  C_17
REMARK    7  A    between atoms: C_17  and  C_18
REMARK    8  A    between atoms: C_21  and  S_24
REMARK    9  A    between atoms: S_24  and  C_25
REMARK   10  A    between atoms: C_25  and  C_26
REMARK   11  A    between atoms: N_28  and  C_29
REMARK   12  A    between atoms: C_34  and  C_35
REMARK                            x       y       z     vdW  Elec       q    Type
REMARK                         _______ _______ _______ _____ _____    ______ ____
ROOT
ATOM      1  C   UNL     1       3.887   2.980   0.016  0.00  0.00    +0.178 A 
ATOM      2  N   UNL     1       3.641   1.690   0.017  0.00  0.00    -0.216 NA
ATOM      3  C   UNL     1       2.403   1.202   0.036  0.00  0.00    +0.115 A 
ATOM      4  C   UNL     1       1.271   2.031   0.056  0.00  0.00    +0.056 A 
ATOM      5  C   UNL     1      -0.018   1.350   0.076  0.00  0.00    -0.019 A 
ATOM      6  C   UNL     1       0.001  -0.003   0.075  0.00  0.00    +0.021 A 
ATOM      7  S   UNL     1       1.716  -0.436   0.045  0.00  0.00    -0.071 S 
ATOM      8  C   UNL     1      -1.194  -0.905   0.095  0.00  0.00    +0.203 C 
ATOM      9  O   UNL     1      -2.341  -0.110   0.437  0.00  0.00    -0.368 OA
ATOM     10  C   UNL     1      -2.446   1.096  -0.325  0.00  0.00    +0.071 C 
ATOM     11  C   UNL     1      -1.356   2.085   0.093  0.00  0.00    +0.071 C 
ATOM     12  C   UNL     1      -2.284   0.772  -1.811  0.00  0.00    +0.042 C 
ATOM     13  C   UNL     1       1.556   3.483   0.053  0.00  0.00    +0.174 A 
ATOM     14  N   UNL     1       2.870   3.897   0.033  0.00  0.00    -0.248 N 
ATOM     15  C   UNL     1       2.820   5.264   0.036  0.00  0.00    +0.198 A 
ATOM     16  N   UNL     1       1.552   5.607   0.056  0.00  0.00    -0.122 NA
ATOM     17  N   UNL     1       0.806   4.557   0.066  0.00  0.00    -0.128 NA
ENDROOT
BRANCH  10  18
ATOM     18  C   UNL     1      -3.821   1.726  -0.089  0.00  0.00    +0.032 C 
ATOM     19  C   UNL     1      -4.912   0.747  -0.528  0.00  0.00    +0.007 C 
ENDBRANCH  10  18
BRANCH   1  20
ATOM     20  S   UNL     1       5.557   3.542  -0.009  0.00  0.00    -0.087 S 
BRANCH  20  21
ATOM     21  C   UNL     1       6.423   1.952  -0.025  0.00  0.00    +0.077 C 
BRANCH  21  23
ATOM     22  C   UNL     1       8.665   0.851  -0.061  0.00  0.00    +0.004 C 
ATOM     23  C   UNL     1       7.933   2.195  -0.048  0.00  0.00    +0.008 C 
ENDBRANCH  21  23
ENDBRANCH  20  21
ENDBRANCH   1  20
BRANCH  15  24
ATOM     24  S   UNL     1       4.199   6.361   0.017  0.00  0.00    -0.076 S 
BRANCH  24  25
ATOM     25  C   UNL     1       3.447   8.012   0.031  0.00  0.00    +0.173 C 
BRANCH  25  26
ATOM     26  C   UNL     1       4.532   9.058   0.016  0.00  0.00    +0.227 C 
ATOM     27  O   UNL     1       5.697   8.723  -0.002  0.00  0.00    -0.275 OA
ATOM     28  N   UNL     1       4.207  10.366   0.023  0.00  0.00    -0.285 N 
ATOM     29  H   UNL     1       3.277  10.635  -0.044  0.00  0.00    +0.155 HD
BRANCH  28  30
ATOM     30  C   UNL     1       5.210  11.336   0.126  0.00  0.00    +0.036 A 
ATOM     31  C   UNL     1       6.425  11.020   0.720  0.00  0.00    +0.023 A 
ATOM     32  C   UNL     1       7.415  11.978   0.816  0.00  0.00    +0.002 A 
ATOM     33  C   UNL     1       7.194  13.254   0.329  0.00  0.00    +0.000 A 
ATOM     34  C   UNL     1       5.984  13.573  -0.258  0.00  0.00    +0.005 A 
ATOM     35  C   UNL     1       4.991  12.618  -0.361  0.00  0.00    -0.029 A 
ATOM     36  C   UNL     1       3.672  12.967  -1.001  0.00  0.00    +0.045 C 
ENDBRANCH  28  30
ENDBRANCH  25  26
ENDBRANCH  24  25
ENDBRANCH  15  24
TORSDOF 8
