REMARK  Name = ZINC01860847
REMARK  10 active torsions:
REMARK  status: ('A' for Active; 'I' for Inactive)
REMARK    1  A    between atoms: C_1  and  C_2
REMARK    2  A    between atoms: C_2  and  C_39
REMARK    3  A    between atoms: N_12  and  C_30
REMARK    4  A    between atoms: C_13  and  C_20
REMARK    5  A    between atoms: C_23  and  C_26
REMARK    6  A    between atoms: C_26  and  C_27
REMARK    7  A    between atoms: C_26  and  C_28
REMARK    8  A    between atoms: C_26  and  C_29
REMARK    9  A    between atoms: C_30  and  N_32
REMARK   10  A    between atoms: N_32  and  C_33
REMARK                            x       y       z     vdW  Elec       q    Type
REMARK                         _______ _______ _______ _____ _____    ______ ____
ROOT
ATOM      1  C   UNL     1      -6.651  -4.708   2.820  0.00  0.00    +0.011 C 
ATOM      2  C   UNL     1      -6.355  -3.262   2.384  0.00  0.00    -0.023 C 
ATOM      3  C   UNL     1      -7.580  -2.401   2.671  0.00  0.00    +0.058 C 
ATOM      4  C   UNL     1      -7.313  -0.939   2.508  0.00  0.00    +0.032 C 
ATOM      5  N   UNL     1      -8.326  -0.128   2.477  0.00  0.00    -0.254 NA
ATOM      6  C   UNL     1      -8.259   1.244   2.354  0.00  0.00    +0.085 A 
ATOM      7  C   UNL     1      -8.947   2.099   3.205  0.00  0.00    +0.029 A 
ATOM      8  C   UNL     1      -8.819   3.464   3.002  0.00  0.00    +0.002 A 
ATOM      9  C   UNL     1      -8.019   3.930   1.972  0.00  0.00    +0.002 A 
ATOM     10  C   UNL     1      -7.343   3.061   1.139  0.00  0.00    +0.025 A 
ATOM     11  C   UNL     1      -7.470   1.678   1.342  0.00  0.00    +0.061 A 
ATOM     12  N   UNL     1      -6.805   0.817   0.516  0.00  0.00    -0.272 N 
ATOM     13  C   UNL     1      -5.576   0.104   0.947  0.00  0.00    +0.126 C 
ATOM     14  C   UNL     1      -5.937  -0.324   2.441  0.00  0.00    +0.125 C 
ATOM     15  C   UNL     1      -4.881  -1.308   2.853  0.00  0.00    +0.144 C 
ATOM     16  O   UNL     1      -3.730  -0.938   2.928  0.00  0.00    -0.297 OA
ATOM     17  C   UNL     1      -5.178  -2.733   3.207  0.00  0.00    +0.081 C 
ATOM     18  C   UNL     1      -6.022  -3.261   0.894  0.00  0.00    +0.011 C 
ENDROOT
BRANCH  13  19
ATOM     19  C   UNL     1      -4.388   1.041   0.908  0.00  0.00    -0.026 A 
ATOM     20  C   UNL     1      -3.244   0.680   0.221  0.00  0.00    +0.006 A 
ATOM     21  C   UNL     1      -2.159   1.536   0.185  0.00  0.00    +0.004 A 
ATOM     22  C   UNL     1      -2.218   2.754   0.837  0.00  0.00    -0.042 A 
ATOM     23  C   UNL     1      -3.360   3.113   1.528  0.00  0.00    +0.004 A 
ATOM     24  C   UNL     1      -4.447   2.260   1.559  0.00  0.00    +0.006 A 
BRANCH  22  25
ATOM     25  C   UNL     1      -1.036   3.687   0.798  0.00  0.00    -0.013 C 
ATOM     26  C   UNL     1      -0.726   4.058  -0.654  0.00  0.00    +0.015 C 
ATOM     27  C   UNL     1       0.180   2.995   1.417  0.00  0.00    +0.015 C 
ATOM     28  C   UNL     1      -1.360   4.954   1.591  0.00  0.00    +0.015 C 
ENDBRANCH  22  25
ENDBRANCH  13  19
BRANCH  12  29
ATOM     29  C   UNL     1      -7.284   0.609  -0.740  0.00  0.00    +0.142 C 
ATOM     30  S   UNL     1      -6.471  -0.462  -1.799  0.00  0.00    -0.018 S 
BRANCH  29  31
ATOM     31  N   UNL     1      -8.398   1.247  -1.151  0.00  0.00    -0.296 N 
ATOM     32  H   UNL     1      -8.822   1.902  -0.575  0.00  0.00    +0.154 HD
BRANCH  31  33
ATOM     33  C   UNL     1      -8.942   0.964  -2.408  0.00  0.00    +0.033 A 
ATOM     34  C   UNL     1      -8.117   0.886  -3.522  0.00  0.00    +0.023 A 
ATOM     35  C   UNL     1      -8.657   0.602  -4.761  0.00  0.00    +0.002 A 
ATOM     36  C   UNL     1     -10.020   0.406  -4.894  0.00  0.00    +0.000 A 
ATOM     37  C   UNL     1     -10.845   0.488  -3.788  0.00  0.00    +0.002 A 
ATOM     38  C   UNL     1     -10.310   0.767  -2.545  0.00  0.00    +0.023 A 
ENDBRANCH  31  33
ENDBRANCH  29  31
ENDBRANCH  12  29
TORSDOF 5
