REMARK  Name = ZINC03031593
REMARK  5 active torsions:
REMARK  status: ('A' for Active; 'I' for Inactive)
REMARK    1  A    between atoms: C_4  and  C_7
REMARK    2  A    between atoms: C_7  and  C_8
REMARK    3  A    between atoms: C_7  and  C_14
REMARK    4  A    between atoms: N_16  and  N_17
REMARK    5  A    between atoms: C_18  and  C_19
REMARK                            x       y       z     vdW  Elec       q    Type
REMARK                         _______ _______ _______ _____ _____    ______ ____
ROOT
ATOM      1  C   UNL     1       1.342   7.884   0.082  0.00  0.00    +0.244 C 
ATOM      2  O   UNL     1       0.158   8.149   0.119  0.00  0.00    -0.273 OA
ATOM      3  N   UNL     1       1.744   6.598   0.088  0.00  0.00    -0.206 N 
ATOM      4  H   UNL     1       2.691   6.386   0.058  0.00  0.00    +0.177 HD
ENDROOT
BRANCH   3   5
ATOM      5  N   UNL     1       0.797   5.567   0.137  0.00  0.00    -0.188 NA
ATOM      6  C   UNL     1       1.185   4.327   0.143  0.00  0.00    +0.140 C 
BRANCH   6   7
ATOM      7  C   UNL     1       0.190   3.245   0.195  0.00  0.00    +0.020 A 
ATOM      8  C   UNL     1       0.442   1.908   0.207  0.00  0.00    +0.093 A 
ATOM      9  N   UNL     1      -0.733   1.219   0.259  0.00  0.00    -0.360 N 
ATOM     10  H   UNL     1      -0.808   0.252   0.277  0.00  0.00    +0.165 HD
ATOM     11  C   UNL     1      -1.799   2.093   0.276  0.00  0.00    +0.047 A 
ATOM     12  C   UNL     1      -1.275   3.396   0.243  0.00  0.00    +0.008 A 
ATOM     13  C   UNL     1      -2.134   4.494   0.255  0.00  0.00    +0.010 A 
ATOM     14  C   UNL     1      -3.496   4.294   0.306  0.00  0.00    +0.001 A 
ATOM     15  C   UNL     1      -4.014   3.007   0.344  0.00  0.00    +0.002 A 
ATOM     16  C   UNL     1      -3.177   1.913   0.332  0.00  0.00    +0.026 A 
ENDBRANCH   6   7
ENDBRANCH   3   5
BRANCH   1  17
ATOM     17  C   UNL     1       2.361   8.992   0.029  0.00  0.00    +0.136 C 
BRANCH  17  21
ATOM     18  C   UNL     1       0.361  12.767   0.039  0.00  0.00    +0.000 A 
ATOM     19  C   UNL     1       1.272  12.470  -0.957  0.00  0.00    +0.000 A 
ATOM     20  C   UNL     1       1.920  11.249  -0.960  0.00  0.00    +0.005 A 
ATOM     21  C   UNL     1       1.655  10.324   0.033  0.00  0.00    -0.031 A 
ATOM     22  C   UNL     1       0.740  10.618   1.026  0.00  0.00    +0.005 A 
ATOM     23  C   UNL     1       0.096  11.842   1.032  0.00  0.00    +0.000 A 
ENDBRANCH  17  21
BRANCH  17  24
ATOM     24  C   UNL     1       3.266   8.900   1.230  0.00  0.00    -0.031 A 
ATOM     25  C   UNL     1       2.725   8.820   2.499  0.00  0.00    +0.005 A 
ATOM     26  C   UNL     1       3.555   8.731   3.601  0.00  0.00    +0.000 A 
ATOM     27  C   UNL     1       4.927   8.731   3.434  0.00  0.00    +0.000 A 
ATOM     28  C   UNL     1       5.469   8.817   2.165  0.00  0.00    +0.000 A 
ATOM     29  C   UNL     1       4.638   8.901   1.063  0.00  0.00    +0.005 A 
ENDBRANCH  17  24
ENDBRANCH   1  17
TORSDOF 5
