REMARK  Name = ZINC35665010
REMARK  6 active torsions:
REMARK  status: ('A' for Active; 'I' for Inactive)
REMARK    1  A    between atoms: C_1  and  C_2
REMARK    2  A    between atoms: C_2  and  C_3
REMARK    3  A    between atoms: C_2  and  C_4
REMARK    4  A    between atoms: C_4  and  N_5
REMARK    5  A    between atoms: N_13  and  S_16
REMARK    6  A    between atoms: S_16  and  C_19
REMARK                            x       y       z     vdW  Elec       q    Type
REMARK                         _______ _______ _______ _____ _____    ______ ____
ROOT
ATOM      1  N   UNL     1      -2.142  -0.048  -1.174  0.00  0.00    -0.314 N 
ATOM      2  C   UNL     1      -2.758   1.147  -1.278  0.00  0.00    +0.197 C 
ATOM      3  O   UNL     1      -2.820   1.991  -0.409  0.00  0.00    -0.278 OA
ATOM      4  C   UNL     1      -3.358   1.259  -2.663  0.00  0.00    +0.018 C 
ATOM      5  N   UNL     1      -2.679   0.205  -3.456  0.00  0.00    +0.399 N 
ATOM      6  C   UNL     1      -2.285  -0.784  -2.433  0.00  0.00    +0.005 C 
ATOM      7  C   UNL     1      -3.375  -1.847  -2.303  0.00  0.00    +0.023 C 
ATOM      8  C   UNL     1      -2.979  -2.850  -1.215  0.00  0.00    +0.109 C 
ATOM      9  N   UNL     1      -1.643  -3.378  -1.523  0.00  0.00    -0.177 NA
ATOM     10  C   UNL     1      -0.541  -2.430  -1.739  0.00  0.00    +0.109 C 
ATOM     11  C   UNL     1      -0.957  -1.430  -2.823  0.00  0.00    +0.023 C 
ATOM     12  H   UNL     1      -3.315  -0.203  -4.124  0.00  0.00    -0.082 HD
ATOM     13  H   UNL     1      -1.864   0.578  -3.918  0.00  0.00    -0.082 HD
ENDROOT
BRANCH   9  14
ATOM     14  S   UNL     1      -1.383  -5.010  -1.623  0.00  0.00    +0.061 S 
ATOM     15  O   UNL     1      -0.000  -5.218  -1.368  0.00  0.00    -0.153 OA
ATOM     16  O   UNL     1      -2.401  -5.632  -0.852  0.00  0.00    -0.153 OA
BRANCH  14  17
ATOM     17  C   UNL     1      -1.662  -5.480  -3.298  0.00  0.00    +0.107 A 
ATOM     18  C   UNL     1      -2.927  -5.858  -3.708  0.00  0.00    +0.028 A 
ATOM     19  C   UNL     1      -3.147  -6.227  -5.022  0.00  0.00    +0.003 A 
ATOM     20  C   UNL     1      -2.102  -6.219  -5.926  0.00  0.00    +0.020 A 
ATOM     21  C   UNL     1      -0.836  -5.841  -5.517  0.00  0.00    +0.043 A 
ATOM     22  C   UNL     1      -0.618  -5.466  -4.203  0.00  0.00    +0.048 A 
ATOM     23 CL   UNL     1       0.477  -5.830  -6.652  0.00  0.00    -0.083 Cl
ENDBRANCH  14  17
ENDBRANCH   9  14
BRANCH   1  24
ATOM     24  C   UNL     1      -1.433  -0.534   0.013  0.00  0.00    +0.109 C 
BRANCH  24  26
ATOM     25  C   UNL     1       0.094   1.443   0.064  0.00  0.00    +0.009 C 
ATOM     26  C   UNL     1       0.027  -0.082  -0.045  0.00  0.00    +0.000 C 
ATOM     27  C   UNL     1       0.802  -0.711   1.115  0.00  0.00    +0.009 C 
ENDBRANCH  24  26
ENDBRANCH   1  24
TORSDOF 4
