REMARK  Name = ZINC22060771
REMARK  6 active torsions:
REMARK  status: ('A' for Active; 'I' for Inactive)
REMARK    1  A    between atoms: C_1  and  C_2
REMARK    2  A    between atoms: C_10  and  O_26
REMARK    3  A    between atoms: C_11  and  O_25
REMARK    4  A    between atoms: C_21  and  C_22
REMARK    5  A    between atoms: C_21  and  O_24
REMARK    6  A    between atoms: O_26  and  C_27
REMARK                            x       y       z     vdW  Elec       q    Type
REMARK                         _______ _______ _______ _____ _____    ______ ____
ROOT
ATOM      1  C   UNL     1       0.634   3.640   1.042  0.00  0.00    +0.015 C 
ATOM      2  C   UNL     1      -0.781   3.089   1.224  0.00  0.00    +0.011 C 
ATOM      3  C   UNL     1      -0.719   1.579   1.315  0.00  0.00    +0.011 C 
ATOM      4  C   UNL     1       0.002   1.064   0.054  0.00  0.00    +0.009 C 
ATOM      5  C   UNL     1      -0.715   1.536  -1.203  0.00  0.00    +0.023 C 
ATOM      6  C   UNL     1      -0.028   1.065  -2.451  0.00  0.00    -0.037 A 
ATOM      7  C   UNL     1       0.564  -0.206  -2.420  0.00  0.00    +0.008 A 
ATOM      8  C   UNL     1       1.200  -0.709  -3.536  0.00  0.00    +0.050 A 
ATOM      9  C   UNL     1       1.249   0.046  -4.697  0.00  0.00    +0.162 A 
ATOM     10  C   UNL     1       0.660   1.303  -4.725  0.00  0.00    +0.162 A 
ATOM     11  C   UNL     1       0.023   1.810  -3.595  0.00  0.00    +0.001 A 
ATOM     12  C   UNL     1      -0.585   3.184  -3.693  0.00  0.00    +0.039 C 
ATOM     13  C   UNL     1      -1.548   3.449  -2.536  0.00  0.00    +0.009 C 
ATOM     14  C   UNL     1      -0.846   3.064  -1.233  0.00  0.00    +0.000 C 
ATOM     15  C   UNL     1      -1.648   3.462  -0.011  0.00  0.00    +0.002 C 
ATOM     16  C   UNL     1      -1.873   4.965   0.187  0.00  0.00    +0.008 C 
ATOM     17  C   UNL     1      -2.122   5.069   1.726  0.00  0.00    +0.049 C 
ATOM     18  C   UNL     1      -1.472   3.819   2.370  0.00  0.00    +0.132 C 
ENDROOT
BRANCH  18  19
ATOM     19  C   UNL     1      -2.504   2.961   2.974  0.00  0.00    -0.070 C 
ATOM     20  C   UNL     1      -3.328   2.276   3.455  0.00  0.00    +0.007 C 
ENDBRANCH  18  19
BRANCH  18  21
ATOM     21  O   UNL     1      -0.514   4.209   3.357  0.00  0.00    -0.376 OA
ATOM     22  H   UNL     1      -0.842   4.750   4.257  0.00  0.00    +0.211 HD
ENDBRANCH  18  21
BRANCH  10  23
ATOM     23  O   UNL     1       0.707   2.045  -5.863  0.00  0.00    -0.503 OA
ATOM     24  H   UNL     1       0.242   3.042  -5.890  0.00  0.00    +0.292 HD
ENDBRANCH  10  23
BRANCH   9  25
ATOM     25  O   UNL     1       1.869  -0.443  -5.804  0.00  0.00    -0.491 OA
ATOM     26  C   UNL     1       2.451  -1.744  -5.701  0.00  0.00    +0.277 C 
ENDBRANCH   9  25
TORSDOF 4
