REMARK  Name = ZINC19297043
REMARK  11 active torsions:
REMARK  status: ('A' for Active; 'I' for Inactive)
REMARK    1  A    between atoms: C_1  and  C_2
REMARK    2  A    between atoms: C_2  and  C_3
REMARK    3  A    between atoms: C_3  and  C_4
REMARK    4  A    between atoms: C_4  and  C_5
REMARK    5  A    between atoms: C_5  and  C_30
REMARK    6  A    between atoms: N_8  and  C_12
REMARK    7  A    between atoms: C_12  and  C_13
REMARK    8  A    between atoms: N_15  and  C_16
REMARK    9  A    between atoms: C_16  and  C_18
REMARK   10  A    between atoms: C_16  and  C_25
REMARK   11  A    between atoms: C_21  and  C_24
REMARK                            x       y       z     vdW  Elec       q    Type
REMARK                         _______ _______ _______ _____ _____    ______ ____
ROOT
ATOM      1  C   UNL     1      -3.412   5.579   6.530  0.00  0.00    +0.138 C 
ATOM      2  C   UNL     1      -3.515   6.111   5.114  0.00  0.00    +0.251 C 
ATOM      3  O   UNL     1      -4.481   6.628   4.594  0.00  0.00    -0.272 OA
ATOM      4  N   UNL     1      -2.310   5.889   4.553  0.00  0.00    -0.215 N 
ATOM      5  C   UNL     1      -1.467   5.303   5.410  0.00  0.00    +0.310 C 
ATOM      6  O   UNL     1      -0.321   5.007   5.135  0.00  0.00    -0.252 OA
ATOM      7  N   UNL     1      -2.030   5.078   6.612  0.00  0.00    -0.281 N 
ATOM      8  H   UNL     1      -1.662   4.628   7.546  0.00  0.00    +0.152 HD
ENDROOT
BRANCH   1   9
ATOM      9  C   UNL     1      -3.636   6.685   7.529  0.00  0.00    -0.015 A 
ATOM     10  C   UNL     1      -4.895   6.893   8.060  0.00  0.00    +0.009 A 
ATOM     11  C   UNL     1      -5.100   7.904   8.979  0.00  0.00    +0.039 A 
ATOM     12  C   UNL     1      -4.045   8.716   9.361  0.00  0.00    +0.123 A 
ATOM     13  C   UNL     1      -2.786   8.511   8.824  0.00  0.00    +0.039 A 
ATOM     14  C   UNL     1      -2.582   7.496   7.909  0.00  0.00    +0.009 A 
ATOM     15  F   UNL     1      -4.245   9.707  10.256  0.00  0.00    -0.205 F 
ENDBRANCH   1   9
BRANCH   1  16
ATOM     16  C   UNL     1      -4.411   4.442   6.756  0.00  0.00    +0.040 C 
BRANCH  16  17
ATOM     17  C   UNL     1      -4.117   3.303   5.777  0.00  0.00    +0.003 C 
BRANCH  17  19
ATOM     18  C   UNL     1      -4.823   1.028   5.025  0.00  0.00    +0.004 C 
ATOM     19  C   UNL     1      -5.116   2.167   6.003  0.00  0.00    -0.003 C 
ENDBRANCH  17  19
ENDBRANCH  16  17
ENDBRANCH   1  16
BRANCH   4  20
ATOM     20  C   UNL     1      -1.965   6.249   3.175  0.00  0.00    +0.213 C 
BRANCH  20  21
ATOM     21  C   UNL     1      -2.283   5.096   2.259  0.00  0.00    +0.232 C 
ATOM     22  O   UNL     1      -2.752   4.073   2.712  0.00  0.00    -0.274 OA
ATOM     23  N   UNL     1      -2.046   5.201   0.937  0.00  0.00    -0.303 N 
ATOM     24  H   UNL     1      -1.621   6.129   0.526  0.00  0.00    +0.150 HD
BRANCH  23  25
ATOM     25  C   UNL     1      -2.355   4.080   0.046  0.00  0.00    +0.140 C 
BRANCH  25  26
ATOM     26  C   UNL     1      -2.596   4.598  -1.349  0.00  0.00    -0.022 A 
ATOM     27  C   UNL     1      -1.809   5.615  -1.854  0.00  0.00    +0.006 A 
ATOM     28  C   UNL     1      -2.028   6.088  -3.134  0.00  0.00    +0.004 A 
ATOM     29  C   UNL     1      -3.039   5.548  -3.907  0.00  0.00    -0.050 A 
ATOM     30  C   UNL     1      -3.830   4.534  -3.400  0.00  0.00    +0.004 A 
ATOM     31  C   UNL     1      -3.609   4.059  -2.120  0.00  0.00    +0.006 A 
ATOM     32  C   UNL     1      -3.280   6.066  -5.301  0.00  0.00    +0.044 C 
ENDBRANCH  25  26
BRANCH  25  33
ATOM     33  C   UNL     1      -1.196   3.116   0.030  0.00  0.00    +0.014 A 
ATOM     34  C   UNL     1      -1.213   1.761   0.017  0.00  0.00    +0.013 A 
ATOM     35  C   UNL     1      -0.013   1.076   0.008  0.00  0.00    +0.008 A 
ATOM     36  C   UNL     1       1.146   1.780   0.001  0.00  0.00    +0.045 A 
ATOM     37  S   UNL     1       0.555   3.464   0.015  0.00  0.00    -0.099 S 
ENDBRANCH  25  33
ENDBRANCH  23  25
ENDBRANCH  20  21
ENDBRANCH   4  20
TORSDOF 9
