REMARK  Name = ZINC00670797
REMARK  8 active torsions:
REMARK  status: ('A' for Active; 'I' for Inactive)
REMARK    1  A    between atoms: C_1  and  C_2
REMARK    2  A    between atoms: C_7  and  O_8
REMARK    3  A    between atoms: O_8  and  C_9
REMARK    4  A    between atoms: C_9  and  C_11
REMARK    5  A    between atoms: C_9  and  C_12
REMARK    6  A    between atoms: N_14  and  C_15
REMARK    7  A    between atoms: C_16  and  C_26
REMARK    8  A    between atoms: C_21  and  C_25
REMARK                            x       y       z     vdW  Elec       q    Type
REMARK                         _______ _______ _______ _____ _____    ______ ____
ROOT
ATOM      1  C   UNL     1      -2.303  -1.131   3.565  0.00  0.00    +0.258 C 
ATOM      2  O   UNL     1      -3.412  -1.593   3.402  0.00  0.00    -0.271 OA
ATOM      3  N   UNL     1      -1.608  -0.661   2.510  0.00  0.00    -0.276 N 
ATOM      4  H   UNL     1      -0.721  -0.290   2.640  0.00  0.00    +0.155 HD
ENDROOT
BRANCH   3   5
ATOM      5  C   UNL     1      -2.160  -0.707   1.239  0.00  0.00    +0.084 A 
ATOM      6  C   UNL     1      -1.606  -0.277   0.042  0.00  0.00    +0.068 A 
ATOM      7  C   UNL     1      -2.404  -0.434  -1.162  0.00  0.00    -0.023 A 
ATOM      8  C   UNL     1      -3.615  -1.002  -0.980  0.00  0.00    -0.004 A 
ATOM      9  S   UNL     1      -3.711  -1.315   0.761  0.00  0.00    -0.077 S 
ATOM     10  C   UNL     1      -4.644  -1.293  -2.028  0.00  0.00    +0.046 C 
ATOM     11  C   UNL     1      -3.972  -1.199  -3.405  0.00  0.00    -0.009 C 
ATOM     12  C   UNL     1      -3.154   0.095  -3.468  0.00  0.00    +0.008 C 
ATOM     13  C   UNL     1      -1.935  -0.016  -2.550  0.00  0.00    +0.037 C 
ATOM     14  C   UNL     1      -5.041  -1.186  -4.499  0.00  0.00    +0.008 C 
BRANCH   6  15
ATOM     15  C   UNL     1      -0.268   0.320  -0.005  0.00  0.00    +0.244 C 
ATOM     16  O   UNL     1       0.708  -0.387  -0.174  0.00  0.00    -0.270 OA
ATOM     17  N   UNL     1      -0.118   1.652   0.138  0.00  0.00    -0.325 N 
ATOM     18  H   UNL     1       0.767   2.047   0.106  0.00  0.00    +0.145 HD
ATOM     19  H   UNL     1      -0.896   2.216   0.268  0.00  0.00    +0.145 HD
ENDBRANCH   6  15
ENDBRANCH   3   5
BRANCH   1  20
ATOM     20  C   UNL     1      -1.702  -1.081   4.946  0.00  0.00    +0.256 C 
ATOM     21  C   UNL     1      -1.517   0.378   5.369  0.00  0.00    +0.062 C 
BRANCH  20  22
ATOM     22  O   UNL     1      -2.574  -1.737   5.868  0.00  0.00    -0.480 OA
BRANCH  22  29
ATOM     23  C   UNL     1      -4.236  -3.231   7.596  0.00  0.00    +0.047 C 
ATOM     24  C   UNL     1      -2.777  -2.986   7.883  0.00  0.00    -0.007 A 
ATOM     25  C   UNL     1      -2.200  -3.506   9.026  0.00  0.00    +0.027 A 
ATOM     26  C   UNL     1      -0.862  -3.276   9.293  0.00  0.00    +0.041 A 
ATOM     27  C   UNL     1      -0.097  -2.532   8.412  0.00  0.00    +0.023 A 
ATOM     28  C   UNL     1      -0.668  -2.016   7.265  0.00  0.00    +0.047 A 
ATOM     29  C   UNL     1      -2.010  -2.245   6.996  0.00  0.00    +0.125 A 
ATOM     30 CL   UNL     1      -0.142  -3.923  10.734  0.00  0.00    -0.084 Cl
ENDBRANCH  22  29
ENDBRANCH  20  22
ENDBRANCH   1  20
TORSDOF 5
