REMARK  Name = ZINC23339782
REMARK  8 active torsions:
REMARK  status: ('A' for Active; 'I' for Inactive)
REMARK    1  A    between atoms: C_1  and  C_2
REMARK    2  A    between atoms: C_3  and  C_30
REMARK    3  A    between atoms: C_5  and  C_10
REMARK    4  A    between atoms: C_15  and  C_16
REMARK    5  A    between atoms: C_16  and  N_17
REMARK    6  A    between atoms: N_17  and  C_18
REMARK    7  A    between atoms: N_17  and  C_19
REMARK    8  A    between atoms: C_19  and  C_20
REMARK                            x       y       z     vdW  Elec       q    Type
REMARK                         _______ _______ _______ _____ _____    ______ ____
ROOT
ATOM      1  C   UNL     1      -1.280  -0.943   7.539  0.00  0.00    +0.019 A 
ATOM      2  C   UNL     1      -0.775  -2.148   8.033  0.00  0.00    +0.012 A 
ATOM      3  C   UNL     1      -0.742  -3.262   7.220  0.00  0.00    +0.001 A 
ATOM      4  C   UNL     1      -1.209  -3.188   5.920  0.00  0.00    +0.000 A 
ATOM      5  C   UNL     1      -1.716  -1.999   5.426  0.00  0.00    +0.002 A 
ATOM      6  C   UNL     1      -1.748  -0.875   6.226  0.00  0.00    -0.053 A 
ENDROOT
BRANCH   1  11
ATOM      7  C   UNL     1      -1.460   3.708  10.807  0.00  0.00    +0.051 C 
ATOM      8  C   UNL     1      -1.403   2.466   9.956  0.00  0.00    +0.035 A 
ATOM      9  C   UNL     1      -1.954   2.454   8.709  0.00  0.00    +0.049 A 
ATOM     10  N   UNL     1      -1.894   1.353   7.962  0.00  0.00    -0.234 NA
ATOM     11  C   UNL     1      -1.317   0.255   8.403  0.00  0.00    +0.141 A 
ATOM     12  N   UNL     1      -0.749   0.206   9.641  0.00  0.00    -0.307 N 
ATOM     13  H   UNL     1      -0.268  -0.720   9.989  0.00  0.00    +0.170 HD
ATOM     14  C   UNL     1      -0.779   1.297  10.436  0.00  0.00    +0.255 A 
ATOM     15  O   UNL     1      -0.275   1.272  11.546  0.00  0.00    -0.268 OA
ATOM     16  C   UNL     1      -2.627   3.691   8.173  0.00  0.00    +0.066 C 
ENDBRANCH   1  11
BRANCH   6  17
ATOM     17  C   UNL     1      -2.295   0.421   5.685  0.00  0.00    -0.042 C 
BRANCH  17  18
ATOM     18  N   UNL     1      -2.871   0.192   4.354  0.00  0.00    +0.384 N 
ATOM     19  C   UNL     1      -4.137  -0.548   4.448  0.00  0.00    -0.095 C 
ATOM     20  H   UNL     1      -2.162  -0.423   3.780  0.00  0.00    -0.081 HD
BRANCH  18  21
ATOM     21  C   UNL     1      -3.054   1.459   3.634  0.00  0.00    -0.020 C 
BRANCH  21  22
ATOM     22  C   UNL     1      -3.262   1.179   2.168  0.00  0.00    +0.050 A 
ATOM     23  C   UNL     1      -2.264   1.108   1.199  0.00  0.00    -0.006 A 
ATOM     24  C   UNL     1      -2.855   0.839   0.007  0.00  0.00    +0.039 A 
ATOM     25  N   UNL     1      -4.178   0.742   0.216  0.00  0.00    -0.281 N 
ATOM     26  H   UNL     1      -4.854   0.524  -0.625  0.00  0.00    +0.189 HD
ATOM     27  N   UNL     1      -4.414   0.960   1.582  0.00  0.00    -0.180 NA
ATOM     28  C   UNL     1      -2.107   0.687  -1.294  0.00  0.00    +0.055 C 
ATOM     29  C   UNL     1      -0.704   1.283  -1.117  0.00  0.00    +0.006 C 
ATOM     30  C   UNL     1      -0.064   0.716   0.153  0.00  0.00    +0.005 C 
ATOM     31  C   UNL     1      -0.778   1.286   1.385  0.00  0.00    +0.039 C 
ENDBRANCH  21  22
ENDBRANCH  18  21
ENDBRANCH  17  18
ENDBRANCH   6  17
TORSDOF 5
