REMARK  Name = ZINC05788546
REMARK  7 active torsions:
REMARK  status: ('A' for Active; 'I' for Inactive)
REMARK    1  A    between atoms: C_1  and  C_2
REMARK    2  A    between atoms: C_3  and  C_19
REMARK    3  A    between atoms: C_4  and  C_10
REMARK    4  A    between atoms: C_13  and  C_16
REMARK    5  A    between atoms: C_16  and  C_17
REMARK    6  A    between atoms: C_16  and  C_18
REMARK    7  A    between atoms: C_19  and  C_21
REMARK                            x       y       z     vdW  Elec       q    Type
REMARK                         _______ _______ _______ _____ _____    ______ ____
ROOT
ATOM      1  C   UNL     1       0.216   1.119  -0.121  0.00  0.00    +0.061 C 
ATOM      2  C   UNL     1      -0.003  -0.362   0.047  0.00  0.00    +0.018 C 
ATOM      3  C   UNL     1      -1.265  -0.846   0.111  0.00  0.00    +0.041 C 
ATOM      4  C   UNL     1      -1.438  -2.341   0.280  0.00  0.00    +0.140 C 
ATOM      5  N   UNL     1      -0.211  -3.151   0.360  0.00  0.00    -0.288 N 
ATOM      6  C   UNL     1       0.979  -2.522   0.280  0.00  0.00    +0.304 C 
ATOM      7  O   UNL     1       1.998  -3.182   0.345  0.00  0.00    -0.252 OA
ATOM      8  N   UNL     1       1.075  -1.196   0.126  0.00  0.00    -0.273 N 
ATOM      9  H   UNL     1      -0.257  -4.114   0.468  0.00  0.00    +0.151 HD
ATOM     10  H   UNL     1       1.961  -0.804   0.070  0.00  0.00    +0.156 HD
ENDROOT
BRANCH   4  11
ATOM     11  C   UNL     1      -2.233  -2.578   1.538  0.00  0.00    -0.023 A 
ATOM     12  C   UNL     1      -1.638  -2.406   2.774  0.00  0.00    +0.006 A 
ATOM     13  C   UNL     1      -2.367  -2.623   3.928  0.00  0.00    +0.004 A 
ATOM     14  C   UNL     1      -3.691  -3.012   3.847  0.00  0.00    -0.045 A 
ATOM     15  C   UNL     1      -4.286  -3.183   2.611  0.00  0.00    +0.004 A 
ATOM     16  C   UNL     1      -3.559  -2.961   1.457  0.00  0.00    +0.006 A 
BRANCH  14  17
ATOM     17  C   UNL     1      -4.485  -3.249   5.105  0.00  0.00    +0.013 C 
ATOM     18  C   UNL     1      -5.684  -2.299   5.138  0.00  0.00    +0.012 C 
ATOM     19  C   UNL     1      -4.980  -4.697   5.130  0.00  0.00    +0.012 C 
ENDBRANCH  14  17
ENDBRANCH   4  11
BRANCH   3  20
ATOM     20  C   UNL     1      -2.384   0.016   0.025  0.00  0.00    +0.193 C 
ATOM     21  O   UNL     1      -2.588   0.838   0.900  0.00  0.00    -0.287 OA
BRANCH  20  22
ATOM     22  C   UNL     1      -3.305  -0.082  -1.129  0.00  0.00    +0.022 A 
ATOM     23  C   UNL     1      -3.014  -0.943  -2.188  0.00  0.00    +0.012 A 
ATOM     24  C   UNL     1      -3.877  -1.029  -3.261  0.00  0.00    +0.001 A 
ATOM     25  C   UNL     1      -5.030  -0.264  -3.288  0.00  0.00    +0.000 A 
ATOM     26  C   UNL     1      -5.324   0.592  -2.241  0.00  0.00    +0.001 A 
ATOM     27  C   UNL     1      -4.472   0.682  -1.160  0.00  0.00    +0.012 A 
ENDBRANCH  20  22
ENDBRANCH   3  20
TORSDOF 4
