REMARK  Name = ZINC39856391
REMARK  6 active torsions:
REMARK  status: ('A' for Active; 'I' for Inactive)
REMARK    1  A    between atoms: C_1  and  C_2
REMARK    2  A    between atoms: C_6  and  C_7
REMARK    3  A    between atoms: N_9  and  C_10
REMARK    4  A    between atoms: C_19  and  C_27
REMARK    5  A    between atoms: C_19  and  C_28
REMARK    6  A    between atoms: N_22  and  N_23
REMARK                            x       y       z     vdW  Elec       q    Type
REMARK                         _______ _______ _______ _____ _____    ______ ____
ROOT
ATOM      1  C   UNL     1      -0.043   1.504   0.012  0.00  0.00    +0.048 C 
ATOM      2  C   UNL     1      -0.024  -0.003   0.003  0.00  0.00    +0.009 A 
ATOM      3  C   UNL     1      -0.028  -0.837  -1.122  0.00  0.00    +0.042 A 
ATOM      4  C   UNL     1      -0.008  -2.136  -0.673  0.00  0.00    +0.116 A 
ATOM      5  O   UNL     1       0.011  -2.111   0.658  0.00  0.00    -0.454 OA
ATOM      6  C   UNL     1       0.005  -0.830   1.091  0.00  0.00    +0.193 A 
ATOM      7  C   UNL     1      -0.010  -3.325  -1.600  0.00  0.00    +0.081 C 
ATOM      8  C   UNL     1      -0.545  -2.900  -2.970  0.00  0.00    -0.023 C 
ATOM      9  C   UNL     1       0.222  -1.683  -3.497  0.00  0.00    +0.064 C 
ATOM     10  C   UNL     1      -0.047  -0.510  -2.565  0.00  0.00    +0.071 C 
ATOM     11  N   UNL     1      -0.277   0.689  -3.005  0.00  0.00    -0.183 NA
ATOM     12  C   UNL     1      -0.388  -4.060  -3.955  0.00  0.00    +0.011 C 
ATOM     13  C   UNL     1      -2.028  -2.544  -2.844  0.00  0.00    +0.011 C 
ENDROOT
BRANCH  11  14
ATOM     14  N   UNL     1      -0.283   0.941  -4.383  0.00  0.00    -0.191 N 
ATOM     15  C   UNL     1      -0.521   2.186  -4.839  0.00  0.00    +0.317 C 
ATOM     16  O   UNL     1      -0.527   2.405  -6.035  0.00  0.00    -0.251 OA
ATOM     17  N   UNL     1      -0.754   3.189  -3.969  0.00  0.00    -0.312 N 
ATOM     18  H   UNL     1      -0.116   0.219  -5.008  0.00  0.00    +0.179 HD
ATOM     19  H   UNL     1      -0.750   3.015  -3.015  0.00  0.00    +0.147 HD
ATOM     20  H   UNL     1      -0.925   4.086  -4.298  0.00  0.00    +0.147 HD
ENDBRANCH  11  14
BRANCH   6  21
ATOM     21  C   UNL     1       0.025  -0.400   2.494  0.00  0.00    +0.284 C 
ATOM     22  O   UNL     1       0.015   0.787   2.767  0.00  0.00    -0.266 OA
ATOM     23  N   UNL     1       0.054  -1.318   3.480  0.00  0.00    -0.277 N 
ATOM     24  H   UNL     1      -0.003  -2.262   3.265  0.00  0.00    +0.155 HD
BRANCH  23  25
ATOM     25  C   UNL     1       0.168  -0.908   4.815  0.00  0.00    +0.069 A 
ATOM     26  C   UNL     1      -0.435   0.269   5.234  0.00  0.00    +0.029 A 
ATOM     27  C   UNL     1      -0.323   0.671   6.551  0.00  0.00    +0.040 A 
ATOM     28  C   UNL     1       0.391  -0.099   7.454  0.00  0.00    +0.126 A 
ATOM     29  C   UNL     1       0.995  -1.274   7.039  0.00  0.00    +0.078 A 
ATOM     30  C   UNL     1       0.880  -1.684   5.723  0.00  0.00    +0.147 A 
ATOM     31  F   UNL     1       1.463  -2.834   5.319  0.00  0.00    -0.203 F 
ATOM     32  F   UNL     1       0.499   0.297   8.741  0.00  0.00    -0.205 F 
ENDBRANCH  23  25
ENDBRANCH   6  21
TORSDOF 3
