REMARK  Name = ZINC05017552
REMARK  6 active torsions:
REMARK  status: ('A' for Active; 'I' for Inactive)
REMARK    1  A    between atoms: C_1  and  O_2
REMARK    2  A    between atoms: O_2  and  C_3
REMARK    3  A    between atoms: C_3  and  C_5
REMARK    4  A    between atoms: C_6  and  C_20
REMARK    5  A    between atoms: C_11  and  C_13
REMARK    6  A    between atoms: C_20  and  N_47
REMARK                            x       y       z     vdW  Elec       q    Type
REMARK                         _______ _______ _______ _____ _____    ______ ____
ROOT
ATOM      1  C   UNL     1      -3.009   1.160  -1.285  0.00  0.00    +0.076 C 
ATOM      2  C   UNL     1      -3.446   0.124  -2.033  0.00  0.00    +0.008 C 
ATOM      3  N   UNL     1      -3.304  -1.165  -1.604  0.00  0.00    -0.274 N 
ATOM      4  C   UNL     1      -2.736  -1.501  -0.440  0.00  0.00    +0.304 C 
ATOM      5  O   UNL     1      -2.654  -2.678  -0.144  0.00  0.00    -0.252 OA
ATOM      6  N   UNL     1      -2.251  -0.579   0.415  0.00  0.00    -0.288 N 
ATOM      7  C   UNL     1      -2.356   0.843   0.045  0.00  0.00    +0.145 C 
ATOM      8  H   UNL     1      -3.634  -1.876  -2.176  0.00  0.00    +0.156 HD
ATOM      9  H   UNL     1      -1.843  -0.845   1.253  0.00  0.00    +0.151 HD
ENDROOT
BRANCH   7  10
ATOM     10  C   UNL     1      -0.965   1.422   0.030  0.00  0.00    -0.004 A 
ATOM     11  C   UNL     1       0.114   0.623  -0.300  0.00  0.00    +0.007 A 
ATOM     12  C   UNL     1       1.389   1.155  -0.320  0.00  0.00    +0.000 A 
ATOM     13  C   UNL     1       1.587   2.487  -0.005  0.00  0.00    +0.001 A 
ATOM     14  C   UNL     1       0.511   3.286   0.330  0.00  0.00    +0.020 A 
ATOM     15  C   UNL     1      -0.766   2.753   0.350  0.00  0.00    +0.046 A 
ATOM     16 CL   UNL     1      -2.119   3.756   0.770  0.00  0.00    -0.083 Cl
ENDBRANCH   7  10
BRANCH   1  17
ATOM     17  C   UNL     1      -3.156   2.495  -1.727  0.00  0.00    +0.338 C 
ATOM     18  O   UNL     1      -2.227   3.061  -2.273  0.00  0.00    -0.245 OA
BRANCH  17  20
ATOM     19  C   UNL     1      -4.375   4.516  -1.932  0.00  0.00    +0.280 C 
ATOM     20  O   UNL     1      -4.326   3.142  -1.544  0.00  0.00    -0.465 OA
ENDBRANCH  17  20
ENDBRANCH   1  17
BRANCH   2  21
ATOM     21  C   UNL     1      -4.101   0.395  -3.363  0.00  0.00    -0.026 C 
BRANCH  21  27
ATOM     22  C   UNL     1      -1.984   0.561  -4.525  0.00  0.00    -0.078 C 
ATOM     23  C   UNL     1      -1.085  -0.125  -5.556  0.00  0.00    -0.019 C 
ATOM     24  C   UNL     1      -1.783  -0.120  -6.918  0.00  0.00    -0.004 C 
ATOM     25  C   UNL     1      -3.136  -0.825  -6.792  0.00  0.00    -0.019 C 
ATOM     26  C   UNL     1      -3.976  -0.119  -5.725  0.00  0.00    -0.078 C 
ATOM     27  N   UNL     1      -3.260  -0.179  -4.433  0.00  0.00    +0.383 N 
ATOM     28  H   UNL     1      -3.060  -1.161  -4.209  0.00  0.00    -0.081 HD
ENDBRANCH  21  27
ENDBRANCH   2  21
TORSDOF 5
