REMARK  Name = ZINC06319427
REMARK  9 active torsions:
REMARK  status: ('A' for Active; 'I' for Inactive)
REMARK    1  A    between atoms: C_1  and  C_2
REMARK    2  A    between atoms: C_2  and  C_3
REMARK    3  A    between atoms: C_3  and  C_5
REMARK    4  A    between atoms: C_3  and  C_6
REMARK    5  A    between atoms: C_9  and  O_27
REMARK    6  A    between atoms: C_10  and  N_12
REMARK    7  A    between atoms: N_12  and  C_13
REMARK    8  A    between atoms: C_13  and  N_15
REMARK    9  A    between atoms: C_16  and  C_18
REMARK                            x       y       z     vdW  Elec       q    Type
REMARK                         _______ _______ _______ _____ _____    ______ ____
ROOT
ATOM      1  C   UNL     1       6.934  -2.450   2.693  0.00  0.00    +0.141 C 
ATOM      2  S   UNL     1       8.256  -1.748   1.861  0.00  0.00    -0.018 S 
ENDROOT
BRANCH   1   3
ATOM      3  N   UNL     1       5.689  -2.351   2.185  0.00  0.00    -0.264 N 
ATOM      4  C   UNL     1       5.485  -1.700   1.022  0.00  0.00    +0.250 C 
ATOM      5  O   UNL     1       6.424  -1.202   0.432  0.00  0.00    -0.270 OA
ATOM      6  H   UNL     1       4.940  -2.748   2.656  0.00  0.00    +0.157 HD
BRANCH   4   7
ATOM      7  C   UNL     1       4.123  -1.592   0.466  0.00  0.00    +0.041 A 
ATOM      8  C   UNL     1       3.043  -2.164   1.143  0.00  0.00    +0.017 A 
ATOM      9  C   UNL     1       1.772  -2.062   0.622  0.00  0.00    +0.050 A 
ATOM     10  C   UNL     1       1.559  -1.393  -0.576  0.00  0.00    +0.166 A 
ATOM     11  C   UNL     1       2.633  -0.819  -1.257  0.00  0.00    +0.167 A 
ATOM     12  C   UNL     1       3.910  -0.918  -0.740  0.00  0.00    +0.062 A 
ATOM     13  O   UNL     1       2.162  -0.228  -2.393  0.00  0.00    -0.453 OA
ATOM     14  C   UNL     1       0.743  -0.090  -2.194  0.00  0.00    +0.466 C 
ATOM     15  O   UNL     1       0.419  -1.159  -1.286  0.00  0.00    -0.453 OA
ENDBRANCH   4   7
ENDBRANCH   1   3
BRANCH   1  16
ATOM     16  N   UNL     1       7.137  -3.100   3.856  0.00  0.00    -0.294 N 
ATOM     17  H   UNL     1       6.382  -3.443   4.358  0.00  0.00    +0.154 HD
BRANCH  16  22
ATOM     18  C   UNL     1      10.609  -2.394   4.846  0.00  0.00    -0.043 A 
ATOM     19  C   UNL     1      11.016  -3.639   5.291  0.00  0.00    +0.007 A 
ATOM     20  C   UNL     1      10.140  -4.708   5.262  0.00  0.00    +0.047 A 
ATOM     21  C   UNL     1       8.850  -4.535   4.787  0.00  0.00    +0.138 A 
ATOM     22  C   UNL     1       8.440  -3.281   4.338  0.00  0.00    +0.075 A 
ATOM     23  C   UNL     1       9.326  -2.214   4.365  0.00  0.00    +0.031 A 
BRANCH  18  24
ATOM     24  C   UNL     1      11.569  -1.233   4.879  0.00  0.00    +0.016 C 
ATOM     25  C   UNL     1      12.790  -1.556   4.015  0.00  0.00    +0.012 C 
BRANCH  24  27
ATOM     26  C   UNL     1      12.892   0.271   6.373  0.00  0.00    +0.004 C 
ATOM     27  C   UNL     1      12.017  -0.983   6.321  0.00  0.00    +0.004 C 
ENDBRANCH  24  27
ENDBRANCH  18  24
BRANCH  21  28
ATOM     28  O   UNL     1       7.988  -5.585   4.757  0.00  0.00    -0.505 OA
ATOM     29  H   UNL     1       8.012  -6.091   3.934  0.00  0.00    +0.292 HD
ENDBRANCH  21  28
ENDBRANCH  16  22
ENDBRANCH   1  16
TORSDOF 7
