REMARK  Name = ZINC19530737
REMARK  9 active torsions:
REMARK  status: ('A' for Active; 'I' for Inactive)
REMARK    1  A    between atoms: C_1  and  C_2
REMARK    2  A    between atoms: C_2  and  C_3
REMARK    3  A    between atoms: C_8  and  N_9
REMARK    4  A    between atoms: C_10  and  C_12
REMARK    5  A    between atoms: C_12  and  N_13
REMARK    6  A    between atoms: N_13  and  C_14
REMARK    7  A    between atoms: N_13  and  C_15
REMARK    8  A    between atoms: C_15  and  C_16
REMARK    9  A    between atoms: C_23  and  C_27
REMARK                            x       y       z     vdW  Elec       q    Type
REMARK                         _______ _______ _______ _____ _____    ______ ____
ROOT
ATOM      1  C   UNL     1       1.058   3.566   0.039  0.00  0.00    -0.003 C 
ENDROOT
BRANCH   1   2
ATOM      2  C   UNL     1       1.133   2.061   0.032  0.00  0.00    +0.094 A 
ATOM      3  N   UNL     1      -0.016   1.337   0.049  0.00  0.00    -0.312 N 
ATOM      4  H   UNL     1      -0.989   1.849   0.068  0.00  0.00    +0.170 HD
ATOM      5  C   UNL     1       0.004  -0.009   0.043  0.00  0.00    +0.260 A 
ATOM      6  O   UNL     1      -1.037  -0.643   0.059  0.00  0.00    -0.267 OA
ATOM      7  C   UNL     1       1.269  -0.686   0.018  0.00  0.00    +0.073 A 
ATOM      8  C   UNL     1       1.531  -2.065   0.007  0.00  0.00    +0.031 A 
ATOM      9  C   UNL     1       2.813  -2.510  -0.017  0.00  0.00    +0.022 A 
ATOM     10  S   UNL     1       3.757  -0.996  -0.027  0.00  0.00    -0.068 S 
ATOM     11  C   UNL     1       2.403   0.152   0.001  0.00  0.00    +0.116 A 
ATOM     12  N   UNL     1       2.300   1.476   0.009  0.00  0.00    -0.229 NA
BRANCH   9  13
ATOM     13  C   UNL     1       3.306  -3.904  -0.031  0.00  0.00    -0.011 A 
ATOM     14  C   UNL     1       2.402  -4.967  -0.013  0.00  0.00    +0.009 A 
ATOM     15  C   UNL     1       2.868  -6.265  -0.033  0.00  0.00    +0.001 A 
ATOM     16  C   UNL     1       4.229  -6.514  -0.058  0.00  0.00    +0.000 A 
ATOM     17  C   UNL     1       5.131  -5.465  -0.069  0.00  0.00    +0.001 A 
ATOM     18  C   UNL     1       4.678  -4.162  -0.056  0.00  0.00    +0.009 A 
ENDBRANCH   9  13
ENDBRANCH   1   2
BRANCH   1  19
ATOM     19  N   UNL     1       2.417   4.123   0.018  0.00  0.00    +0.388 N 
ATOM     20  C   UNL     1       3.094   3.813  -1.249  0.00  0.00    -0.095 C 
ATOM     21  H   UNL     1       2.989   3.652   0.831  0.00  0.00    -0.081 HD
BRANCH  19  22
ATOM     22  C   UNL     1       2.397   5.572   0.262  0.00  0.00    +0.019 C 
BRANCH  22  24
ATOM     23  N   UNL     1       4.030   7.371   0.721  0.00  0.00    -0.287 N 
ATOM     24  C   UNL     1       3.804   6.065   0.477  0.00  0.00    +0.201 C 
ATOM     25  O   UNL     1       4.733   5.287   0.431  0.00  0.00    -0.278 OA
ATOM     26  H   UNL     1       3.200   8.092   0.673  0.00  0.00    +0.155 HD
BRANCH  23  32
ATOM     27  C   UNL     1       5.685   9.129   0.792  0.00  0.00    -0.026 A 
ATOM     28  C   UNL     1       6.960   9.560   1.102  0.00  0.00    +0.005 A 
ATOM     29  C   UNL     1       7.873   8.681   1.655  0.00  0.00    +0.000 A 
ATOM     30  C   UNL     1       7.514   7.368   1.898  0.00  0.00    +0.002 A 
ATOM     31  C   UNL     1       6.239   6.932   1.594  0.00  0.00    +0.023 A 
ATOM     32  C   UNL     1       5.321   7.811   1.034  0.00  0.00    +0.036 A 
BRANCH  27  34
ATOM     33  C   UNL     1       3.824  10.686   1.300  0.00  0.00    +0.009 C 
ATOM     34  C   UNL     1       4.691  10.088   0.190  0.00  0.00    +0.033 C 
ENDBRANCH  27  34
ENDBRANCH  23  32
ENDBRANCH  22  24
ENDBRANCH  19  22
ENDBRANCH   1  19
TORSDOF 7
