REMARK  Name = ZINC20220622
REMARK  11 active torsions:
REMARK  status: ('A' for Active; 'I' for Inactive)
REMARK    1  A    between atoms: C_1  and  O_2
REMARK    2  A    between atoms: O_2  and  C_3
REMARK    3  A    between atoms: C_3  and  C_5
REMARK    4  A    between atoms: C_9  and  N_10
REMARK    5  A    between atoms: C_11  and  C_13
REMARK    6  A    between atoms: C_13  and  C_14
REMARK    7  A    between atoms: C_14  and  S_15
REMARK    8  A    between atoms: S_15  and  C_16
REMARK    9  A    between atoms: C_19  and  C_22
REMARK   10  A    between atoms: N_20  and  N_21
REMARK   11  A    between atoms: C_27  and  O_28
REMARK                            x       y       z     vdW  Elec       q    Type
REMARK                         _______ _______ _______ _____ _____    ______ ____
ROOT
ATOM      1  C   UNL     1      -0.025  -1.933  -3.593  0.00  0.00    +0.086 C 
ENDROOT
BRANCH   1   2
ATOM      2  C   UNL     1      -0.050  -1.739  -5.110  0.00  0.00    +0.107 C 
BRANCH   2   4
ATOM      3  N   UNL     1      -0.061  -3.161  -7.134  0.00  0.00    -0.279 N 
ATOM      4  C   UNL     1      -0.042  -3.085  -5.789  0.00  0.00    +0.218 C 
ATOM      5  O   UNL     1      -0.019  -4.099  -5.124  0.00  0.00    -0.275 OA
ATOM      6  H   UNL     1      -0.082  -2.241  -7.737  0.00  0.00    +0.155 HD
BRANCH   3  11
ATOM      7  C   UNL     1      -0.076  -4.679  -9.114  0.00  0.00    +0.091 A 
ATOM      8  C   UNL     1      -0.057  -6.087  -9.515  0.00  0.00    -0.021 A 
ATOM      9  C   UNL     1      -0.031  -6.969  -8.500  0.00  0.00    -0.004 A 
ATOM     10  S   UNL     1      -0.023  -5.970  -7.032  0.00  0.00    -0.077 S 
ATOM     11  C   UNL     1      -0.054  -4.399  -7.758  0.00  0.00    +0.086 A 
ATOM     12  C   UNL     1      -0.016  -8.392  -8.990  0.00  0.00    +0.043 C 
ATOM     13  C   UNL     1       0.399  -8.288 -10.474  0.00  0.00    +0.010 C 
ATOM     14  C   UNL     1      -0.068  -6.863 -10.832  0.00  0.00    +0.037 C 
BRANCH   7  15
ATOM     15  C   UNL     1      -0.111  -3.607 -10.111  0.00  0.00    +0.342 C 
ATOM     16  O   UNL     1       0.927  -3.146 -10.545  0.00  0.00    -0.245 OA
BRANCH  15  18
ATOM     17  C   UNL     1      -1.254  -2.068 -11.535  0.00  0.00    +0.280 C 
ATOM     18  O   UNL     1      -1.295  -3.131 -10.547  0.00  0.00    -0.464 OA
ENDBRANCH  15  18
ENDBRANCH   7  15
ENDBRANCH   3  11
ENDBRANCH   2   4
ENDBRANCH   1   2
BRANCH   1  19
ATOM     19  S   UNL     1      -0.035  -0.316  -2.778  0.00  0.00    -0.084 S 
BRANCH  19  20
ATOM     20  C   UNL     1      -0.003  -0.824  -1.091  0.00  0.00    +0.209 A 
ATOM     21  N   UNL     1       0.023  -2.061  -0.650  0.00  0.00    -0.121 NA
ATOM     22  N   UNL     1       0.035  -2.071   0.635  0.00  0.00    -0.127 NA
ATOM     23  C   UNL     1       0.024  -0.841   1.094  0.00  0.00    +0.185 A 
ATOM     24  N   UNL     1       0.002  -0.004   0.002  0.00  0.00    -0.224 N 
BRANCH  23  25
ATOM     25  C   UNL     1       0.032  -0.433   2.514  0.00  0.00    +0.062 A 
ATOM     26  C   UNL     1       0.017   0.920   2.854  0.00  0.00    +0.015 A 
ATOM     27  C   UNL     1       0.024   1.295   4.182  0.00  0.00    +0.001 A 
ATOM     28  C   UNL     1       0.045   0.334   5.178  0.00  0.00    +0.004 A 
ATOM     29  C   UNL     1       0.060  -1.009   4.853  0.00  0.00    +0.046 A 
ATOM     30  C   UNL     1       0.049  -1.402   3.525  0.00  0.00    +0.128 A 
BRANCH  30  31
ATOM     31  O   UNL     1       0.058  -2.722   3.204  0.00  0.00    -0.506 OA
ATOM     32  H   UNL     1       0.072  -3.481   3.999  0.00  0.00    +0.292 HD
ENDBRANCH  30  31
ENDBRANCH  23  25
BRANCH  24  33
ATOM     33  N   UNL     1      -0.016   1.362   0.009  0.00  0.00    -0.295 N 
ATOM     34  H   UNL     1      -0.009   1.907   0.965  0.00  0.00    +0.163 HD
ATOM     35  H   UNL     1      -0.038   1.917  -0.940  0.00  0.00    +0.163 HD
ENDBRANCH  24  33
ENDBRANCH  19  20
ENDBRANCH   1  19
TORSDOF 10
