REMARK  Name = ZINC20834596
REMARK  7 active torsions:
REMARK  status: ('A' for Active; 'I' for Inactive)
REMARK    1  A    between atoms: C_3  and  O_27
REMARK    2  A    between atoms: C_4  and  C_8
REMARK    3  A    between atoms: N_9  and  N_10
REMARK    4  A    between atoms: C_13  and  S_16
REMARK    5  A    between atoms: S_16  and  C_17
REMARK    6  A    between atoms: C_17  and  C_18
REMARK    7  A    between atoms: N_20  and  C_21
REMARK                            x       y       z     vdW  Elec       q    Type
REMARK                         _______ _______ _______ _____ _____    ______ ____
ROOT
ATOM      1  N   UNL     1       9.892   1.321   2.148  0.00  0.00    -0.205 N 
ATOM      2  C   UNL     1       8.567   1.451   1.757  0.00  0.00    +0.232 A 
ATOM      3  N   UNL     1       7.548   0.597   2.075  0.00  0.00    -0.186 NA
ATOM      4  C   UNL     1       6.403   1.074   1.501  0.00  0.00    +0.211 A 
ATOM      5  N   UNL     1       6.703   2.173   0.851  0.00  0.00    -0.144 NA
ATOM      6  N   UNL     1       8.073   2.414   1.018  0.00  0.00    -0.245 N 
ATOM      7  H   UNL     1      10.200   0.469   2.772  0.00  0.00    +0.177 HD
ATOM      8  H   UNL     1       8.728   3.219   0.652  0.00  0.00    +0.192 HD
ENDROOT
BRANCH   1  10
ATOM      9  C   UNL     1      12.077   2.153   2.114  0.00  0.00    +0.142 C 
ATOM     10  N   UNL     1      10.837   2.274   1.748  0.00  0.00    -0.187 NA
BRANCH   9  14
ATOM     11  C   UNL     1      14.943   5.044   0.903  0.00  0.00    +0.019 A 
ATOM     12  C   UNL     1      13.625   5.180   0.509  0.00  0.00    +0.047 A 
ATOM     13  C   UNL     1      12.684   4.240   0.894  0.00  0.00    +0.126 A 
ATOM     14  C   UNL     1      13.072   3.156   1.694  0.00  0.00    +0.037 A 
ATOM     15  C   UNL     1      14.406   3.029   2.085  0.00  0.00    +0.028 A 
ATOM     16  C   UNL     1      15.332   3.972   1.688  0.00  0.00    +0.019 A 
ATOM     17 BR   UNL     1      17.139   3.800   2.219  0.00  0.00    -0.050 Br
BRANCH  13  18
ATOM     18  O   UNL     1      11.390   4.370   0.503  0.00  0.00    -0.506 OA
ATOM     19  H   UNL     1      10.644   3.622   0.810  0.00  0.00    +0.292 HD
ENDBRANCH  13  18
ENDBRANCH   9  14
ENDBRANCH   1  10
BRANCH   4  20
ATOM     20  S   UNL     1       4.806   0.337   1.609  0.00  0.00    -0.075 S 
BRANCH  20  21
ATOM     21  C   UNL     1       3.745   1.447   0.644  0.00  0.00    +0.173 C 
BRANCH  21  22
ATOM     22  C   UNL     1       2.331   0.926   0.654  0.00  0.00    +0.224 C 
ATOM     23  O   UNL     1       2.066  -0.095   1.254  0.00  0.00    -0.275 OA
ATOM     24  N   UNL     1       1.362   1.593  -0.002  0.00  0.00    -0.312 N 
ATOM     25  H   UNL     1       1.602   2.518  -0.546  0.00  0.00    +0.149 HD
BRANCH  24  26
ATOM     26  C   UNL     1      -0.013   1.086   0.008  0.00  0.00    +0.073 C 
ATOM     27  C   UNL     1      -0.729   1.579   1.267  0.00  0.00    +0.022 C 
ATOM     28  C   UNL     1      -2.164   1.050   1.278  0.00  0.00    +0.002 C 
ATOM     29  C   UNL     1      -2.904   1.556   0.038  0.00  0.00    +0.000 C 
ATOM     30  C   UNL     1      -2.188   1.063  -1.221  0.00  0.00    +0.002 C 
ATOM     31  C   UNL     1      -0.753   1.593  -1.232  0.00  0.00    +0.022 C 
ENDBRANCH  24  26
ENDBRANCH  21  22
ENDBRANCH  20  21
ENDBRANCH   4  20
TORSDOF 7
