REMARK  Name = ZINC38688560
REMARK  9 active torsions:
REMARK  status: ('A' for Active; 'I' for Inactive)
REMARK    1  A    between atoms: C_1  and  C_2
REMARK    2  A    between atoms: C_6  and  C_39
REMARK    3  A    between atoms: C_7  and  C_12
REMARK    4  A    between atoms: C_10  and  C_11
REMARK    5  A    between atoms: C_12  and  O_14
REMARK    6  A    between atoms: O_14  and  C_15
REMARK    7  A    between atoms: C_22  and  N_38
REMARK    8  A    between atoms: C_23  and  C_36
REMARK    9  A    between atoms: C_24  and  C_26
REMARK                            x       y       z     vdW  Elec       q    Type
REMARK                         _______ _______ _______ _____ _____    ______ ____
ROOT
ATOM      1  C   UNL     1       0.141  -6.644   4.414  0.00  0.00    +0.136 A 
ATOM      2  C   UNL     1       0.229  -7.791   3.637  0.00  0.00    +0.047 A 
ATOM      3  C   UNL     1       0.285  -9.031   4.242  0.00  0.00    +0.012 A 
ATOM      4  C   UNL     1       0.253  -9.136   5.621  0.00  0.00    +0.008 A 
ATOM      5  C   UNL     1       0.166  -7.994   6.402  0.00  0.00    +0.138 A 
ATOM      6  C   UNL     1       0.116  -6.746   5.795  0.00  0.00    +0.093 A 
ATOM      7  O   UNL     1       0.134  -8.077   7.755  0.00  0.00    -0.441 OA
ATOM      8  C   UNL     1       0.565  -9.192   8.368  0.00  0.00    +0.199 C 
ATOM      9  C   UNL     1       0.673 -10.373   7.715  0.00  0.00    +0.098 C 
ATOM     10  C   UNL     1       0.314 -10.498   6.261  0.00  0.00    +0.098 C 
ENDROOT
BRANCH  10  11
ATOM     11  C   UNL     1      -1.029 -11.170   6.135  0.00  0.00    -0.027 A 
ATOM     12  C   UNL     1      -2.151 -10.547   6.589  0.00  0.00    +0.005 A 
ATOM     13  C   UNL     1      -3.401 -11.152   6.481  0.00  0.00    +0.001 A 
ATOM     14  C   UNL     1      -3.537 -12.384   5.918  0.00  0.00    +0.008 A 
ATOM     15  C   UNL     1      -2.402 -13.058   5.438  0.00  0.00    -0.018 A 
ATOM     16  C   UNL     1      -1.130 -12.440   5.542  0.00  0.00    -0.014 A 
ATOM     17  C   UNL     1       0.004 -13.111   5.056  0.00  0.00    +0.009 A 
ATOM     18  C   UNL     1      -0.132 -14.341   4.489  0.00  0.00    +0.001 A 
ATOM     19  C   UNL     1      -1.383 -14.946   4.380  0.00  0.00    +0.001 A 
ATOM     20  C   UNL     1      -2.502 -14.331   4.851  0.00  0.00    +0.008 A 
ENDBRANCH  10  11
BRANCH   8  21
ATOM     21  N   UNL     1       0.906  -9.132   9.696  0.00  0.00    -0.328 N 
ATOM     22  H   UNL     1       0.834  -8.293  10.178  0.00  0.00    +0.145 HD
ATOM     23  H   UNL     1       1.219  -9.928  10.153  0.00  0.00    +0.145 HD
ENDBRANCH   8  21
BRANCH   9  24
ATOM     24  C   UNL     1       1.140 -11.527   8.424  0.00  0.00    +0.101 C 
ATOM     25  N   UNL     1       1.511 -12.441   8.986  0.00  0.00    -0.191 NA
ENDBRANCH   9  24
BRANCH   1  26
ATOM     26  O   UNL     1       0.086  -5.423   3.820  0.00  0.00    -0.420 OA
BRANCH  26  27
ATOM     27  C   UNL     1       1.206  -4.671   3.812  0.00  0.00    +0.380 C 
ATOM     28  O   UNL     1       2.198  -5.053   4.403  0.00  0.00    -0.241 OA
BRANCH  27  35
ATOM     29  C   UNL     1      -0.297   1.368  -0.205  0.00  0.00    +0.044 C 
ATOM     30  C   UNL     1       0.459   0.379   0.644  0.00  0.00    -0.044 A 
ATOM     31  C   UNL     1       1.777   0.639   0.992  0.00  0.00    +0.004 A 
ATOM     32  C   UNL     1       2.478  -0.246   1.762  0.00  0.00    +0.012 A 
ATOM     33  C   UNL     1       1.862  -1.420   2.201  0.00  0.00    +0.024 A 
ATOM     34  C   UNL     1       2.296  -2.556   3.014  0.00  0.00    +0.010 A 
ATOM     35  C   UNL     1       1.228  -3.393   3.090  0.00  0.00    +0.216 A 
ATOM     36  O   UNL     1       0.190  -2.873   2.402  0.00  0.00    -0.448 OA
ATOM     37  C   UNL     1       0.525  -1.689   1.852  0.00  0.00    +0.139 A 
ATOM     38  C   UNL     1      -0.169  -0.771   1.072  0.00  0.00    -0.005 A 
ATOM     39  C   UNL     1      -1.603  -1.036   0.691  0.00  0.00    +0.048 C 
ATOM     40  C   UNL     1       3.652  -2.758   3.639  0.00  0.00    +0.048 C 
ENDBRANCH  27  35
ENDBRANCH  26  27
ENDBRANCH   1  26
TORSDOF 6
