REMARK  Name = ZINC11935570
REMARK  9 active torsions:
REMARK  status: ('A' for Active; 'I' for Inactive)
REMARK    1  A    between atoms: C_1  and  N_60
REMARK    2  A    between atoms: C_2  and  C_3
REMARK    3  A    between atoms: C_2  and  N_60
REMARK    4  A    between atoms: C_8  and  C_9
REMARK    5  A    between atoms: C_16  and  C_17
REMARK    6  A    between atoms: C_16  and  N_60
REMARK    7  A    between atoms: C_23  and  C_24
REMARK    8  A    between atoms: C_23  and  N_62
REMARK    9  A    between atoms: C_24  and  C_25
REMARK                            x       y       z     vdW  Elec       q    Type
REMARK                         _______ _______ _______ _____ _____    ______ ____
ROOT
ATOM      1  C   UNL     1      -0.013   1.085   0.011  0.00  0.00    -0.077 C 
ENDROOT
BRANCH   1   2
ATOM      2  C   UNL     1      -0.752   1.597  -1.227  0.00  0.00    -0.044 C 
ATOM      3  C   UNL     1      -0.768   3.128  -1.216  0.00  0.00    -0.002 C 
ATOM      4  C   UNL     1      -1.457   3.632  -2.487  0.00  0.00    -0.018 C 
ATOM      5  C   UNL     1      -0.720   3.085  -3.712  0.00  0.00    -0.079 C 
ATOM      6  C   UNL     1      -0.036   1.108  -2.488  0.00  0.00    -0.077 C 
ATOM      7  N   UNL     1      -0.761   1.608  -3.675  0.00  0.00    +0.380 N 
ATOM      8  H   UNL     1      -1.740   1.303  -3.620  0.00  0.00    -0.082 HD
BRANCH   7   9
ATOM      9  C   UNL     1      -0.156   1.056  -4.905  0.00  0.00    -0.074 C 
BRANCH   9  10
ATOM     10  C   UNL     1      -1.052   1.405  -6.095  0.00  0.00    +0.016 C 
BRANCH  10  11
ATOM     11  C   UNL     1      -0.461   0.829  -7.356  0.00  0.00    -0.049 A 
ATOM     12  C   UNL     1       0.425   1.577  -8.107  0.00  0.00    +0.006 A 
ATOM     13  C   UNL     1       0.973   1.049  -9.261  0.00  0.00    +0.038 A 
ATOM     14  C   UNL     1       0.624  -0.227  -9.670  0.00  0.00    +0.123 A 
ATOM     15  C   UNL     1      -0.268  -0.975  -8.919  0.00  0.00    +0.038 A 
ATOM     16  C   UNL     1      -0.809  -0.446  -7.763  0.00  0.00    +0.006 A 
ATOM     17  F   UNL     1       1.155  -0.744 -10.800  0.00  0.00    -0.205 F 
ENDBRANCH  10  11
ENDBRANCH   9  10
ENDBRANCH   7   9
ENDBRANCH   1   2
BRANCH   1  19
ATOM     18  C   UNL     1      -1.477  -0.839   0.142  0.00  0.00    -0.096 C 
ATOM     19  N   UNL     1      -0.073  -0.392   0.028  0.00  0.00    +0.381 N 
ATOM     20  H   UNL     1       0.321  -0.752  -0.850  0.00  0.00    -0.082 HD
BRANCH  19  21
ATOM     21  C   UNL     1       0.718  -0.917   1.160  0.00  0.00    -0.040 C 
BRANCH  21  22
ATOM     22  C   UNL     1       0.823  -2.415   1.027  0.00  0.00    -0.019 A 
ATOM     23  C   UNL     1       0.091  -3.327   1.704  0.00  0.00    +0.107 A 
ATOM     24  N   UNL     1       0.483  -4.555   1.304  0.00  0.00    -0.284 N 
ATOM     25  H   UNL     1       0.116  -5.425   1.634  0.00  0.00    +0.188 HD
ATOM     26  N   UNL     1       1.492  -4.400   0.345  0.00  0.00    -0.174 NA
ATOM     27  C   UNL     1       1.696  -3.112   0.170  0.00  0.00    +0.094 A 
BRANCH  27  28
ATOM     28  C   UNL     1       2.677  -2.502  -0.762  0.00  0.00    +0.005 A 
ATOM     29  C   UNL     1       3.902  -3.125  -0.995  0.00  0.00    +0.010 A 
ATOM     30  C   UNL     1       4.811  -2.554  -1.862  0.00  0.00    +0.003 A 
ATOM     31  C   UNL     1       4.509  -1.365  -2.501  0.00  0.00    +0.038 A 
ATOM     32  C   UNL     1       3.294  -0.741  -2.274  0.00  0.00    +0.124 A 
ATOM     33  C   UNL     1       2.375  -1.307  -1.411  0.00  0.00    +0.048 A 
ATOM     34  F   UNL     1       3.005   0.420  -2.901  0.00  0.00    -0.205 F 
ENDBRANCH  27  28
ENDBRANCH  21  22
ENDBRANCH  19  21
ENDBRANCH   1  19
TORSDOF 8
