REMARK  Name = ZINC10798037
REMARK  8 active torsions:
REMARK  status: ('A' for Active; 'I' for Inactive)
REMARK    1  A    between atoms: C_1  and  C_2
REMARK    2  A    between atoms: C_2  and  C_4
REMARK    3  A    between atoms: C_2  and  O_17
REMARK    4  A    between atoms: N_6  and  C_7
REMARK    5  A    between atoms: C_10  and  S_13
REMARK    6  A    between atoms: S_13  and  N_16
REMARK    7  A    between atoms: O_17  and  C_18
REMARK    8  A    between atoms: C_18  and  C_20
REMARK                            x       y       z     vdW  Elec       q    Type
REMARK                         _______ _______ _______ _____ _____    ______ ____
ROOT
ATOM      1  C   UNL     1      -2.370   7.647  -3.114  0.00  0.00    +0.062 C 
ATOM      2  C   UNL     1      -0.850   7.557  -2.957  0.00  0.00    +0.259 C 
ENDROOT
BRANCH   2   3
ATOM      3  C   UNL     1      -0.236   8.903  -3.244  0.00  0.00    +0.258 C 
ATOM      4  O   UNL     1       0.411   9.469  -2.389  0.00  0.00    -0.271 OA
ATOM      5  N   UNL     1      -0.405   9.477  -4.452  0.00  0.00    -0.282 N 
ATOM      6  H   UNL     1      -0.865   8.996  -5.158  0.00  0.00    +0.155 HD
BRANCH   5   7
ATOM      7  C   UNL     1       0.082  10.768  -4.688  0.00  0.00    +0.034 A 
ATOM      8  C   UNL     1      -0.615  11.633  -5.520  0.00  0.00    +0.025 A 
ATOM      9  C   UNL     1      -0.134  12.909  -5.745  0.00  0.00    +0.030 A 
ATOM     10  C   UNL     1       1.046  13.319  -5.153  0.00  0.00    +0.105 A 
ATOM     11  C   UNL     1       1.745  12.457  -4.328  0.00  0.00    +0.030 A 
ATOM     12  C   UNL     1       1.267  11.183  -4.094  0.00  0.00    +0.025 A 
BRANCH  10  13
ATOM     13  S   UNL     1       1.659  14.944  -5.449  0.00  0.00    +0.056 S 
ATOM     14  O   UNL     1       0.541  15.739  -5.820  0.00  0.00    -0.153 OA
ATOM     15  O   UNL     1       2.494  15.271  -4.346  0.00  0.00    -0.153 OA
BRANCH  13  16
ATOM     16  N   UNL     1       2.642  14.862  -6.779  0.00  0.00    -0.204 NA
ATOM     17  H   UNL     1       2.779  14.013  -7.229  0.00  0.00    +0.144 HD
ATOM     18  H   UNL     1       3.082  15.661  -7.107  0.00  0.00    +0.144 HD
ENDBRANCH  13  16
ENDBRANCH  10  13
ENDBRANCH   5   7
ENDBRANCH   2   3
BRANCH   2  19
ATOM     19  O   UNL     1      -0.527   7.157  -1.599  0.00  0.00    -0.452 OA
BRANCH  19  20
ATOM     20  C   UNL     1      -0.424   5.841  -1.360  0.00  0.00    +0.320 C 
ATOM     21  O   UNL     1      -0.599   5.048  -2.255  0.00  0.00    -0.250 OA
BRANCH  20  22
ATOM     22  C   UNL     1      -0.091   5.350   0.026  0.00  0.00    +0.165 C 
ATOM     23  C   UNL     1      -0.038   3.847   0.021  0.00  0.00    +0.013 A 
ATOM     24  C   UNL     1      -1.219   3.126   0.024  0.00  0.00    +0.008 A 
ATOM     25  C   UNL     1      -1.191   1.745   0.012  0.00  0.00    +0.001 A 
ATOM     26  C   UNL     1       0.019   1.077   0.007  0.00  0.00    +0.004 A 
ATOM     27  C   UNL     1       1.201   1.790   0.005  0.00  0.00    +0.046 A 
ATOM     28  C   UNL     1       1.177   3.181   0.012  0.00  0.00    +0.133 A 
ATOM     29  O   UNL     1       2.347   3.862   0.011  0.00  0.00    -0.455 OA
ATOM     30  C   UNL     1       2.382   5.152   0.423  0.00  0.00    +0.133 A 
ATOM     31  C   UNL     1       1.233   5.925   0.450  0.00  0.00    +0.013 A 
ATOM     32  C   UNL     1       1.297   7.241   0.871  0.00  0.00    +0.008 A 
ATOM     33  C   UNL     1       2.503   7.787   1.266  0.00  0.00    +0.001 A 
ATOM     34  C   UNL     1       3.652   7.018   1.242  0.00  0.00    +0.004 A 
ATOM     35  C   UNL     1       3.594   5.705   0.822  0.00  0.00    +0.046 A 
ENDBRANCH  20  22
ENDBRANCH  19  20
ENDBRANCH   2  19
TORSDOF 7
