REMARK  Name = ZINC20927405
REMARK  11 active torsions:
REMARK  status: ('A' for Active; 'I' for Inactive)
REMARK    1  A    between atoms: C_1  and  C_2
REMARK    2  A    between atoms: C_2  and  C_26
REMARK    3  A    between atoms: N_3  and  N_4
REMARK    4  A    between atoms: N_4  and  C_5
REMARK    5  A    between atoms: C_8  and  N_23
REMARK    6  A    between atoms: C_10  and  S_11
REMARK    7  A    between atoms: S_11  and  N_14
REMARK    8  A    between atoms: N_14  and  C_15
REMARK    9  A    between atoms: C_20  and  O_21
REMARK   10  A    between atoms: O_21  and  C_22
REMARK   11  A    between atoms: C_29  and  O_32
REMARK                            x       y       z     vdW  Elec       q    Type
REMARK                         _______ _______ _______ _____ _____    ______ ____
ROOT
ATOM      1  C   UNL     1       1.664  -1.596  -1.328  0.00  0.00    +0.075 A 
ATOM      2  C   UNL     1       3.004  -1.228  -1.283  0.00  0.00    +0.029 A 
ATOM      3  C   UNL     1       3.358   0.098  -1.432  0.00  0.00    +0.035 A 
ATOM      4  C   UNL     1       2.383   1.059  -1.625  0.00  0.00    +0.128 A 
ATOM      5  C   UNL     1       1.049   0.697  -1.670  0.00  0.00    +0.063 A 
ATOM      6  C   UNL     1       0.687  -0.628  -1.522  0.00  0.00    +0.133 A 
ENDROOT
BRANCH   6   7
ATOM      7  S   UNL     1      -1.013  -1.089  -1.580  0.00  0.00    +0.074 S 
ATOM      8  O   UNL     1      -1.259  -1.880  -0.425  0.00  0.00    -0.150 OA
ATOM      9  O   UNL     1      -1.746   0.095  -1.863  0.00  0.00    -0.150 OA
BRANCH   7  10
ATOM     10  N   UNL     1      -1.205  -2.088  -2.887  0.00  0.00    -0.213 N 
ATOM     11  H   UNL     1      -1.444  -3.151  -2.737  0.00  0.00    +0.174 HD
BRANCH  10  12
ATOM     12  C   UNL     1      -1.062  -1.579  -4.184  0.00  0.00    +0.090 A 
ATOM     13  C   UNL     1      -0.198  -0.521  -4.425  0.00  0.00    +0.028 A 
ATOM     14  C   UNL     1      -0.055  -0.024  -5.706  0.00  0.00    +0.002 A 
ATOM     15  C   UNL     1      -0.780  -0.572  -6.748  0.00  0.00    +0.004 A 
ATOM     16  C   UNL     1      -1.647  -1.623  -6.515  0.00  0.00    +0.047 A 
ATOM     17  C   UNL     1      -1.792  -2.131  -5.234  0.00  0.00    +0.142 A 
BRANCH  17  18
ATOM     18  O   UNL     1      -2.646  -3.164  -5.003  0.00  0.00    -0.493 OA
ATOM     19  C   UNL     1      -3.361  -3.678  -6.128  0.00  0.00    +0.277 C 
ENDBRANCH  17  18
ENDBRANCH  10  12
ENDBRANCH   7  10
ENDBRANCH   6   7
BRANCH   4  20
ATOM     20  N   UNL     1       2.767   2.480  -1.785  0.00  0.00    +0.056 N 
ATOM     21  O   UNL     1       1.909   3.328  -1.955  0.00  0.00    -0.126 OA
ATOM     22  O   UNL     1       3.941   2.802  -1.745  0.00  0.00    -0.126 OA
ENDBRANCH   4  20
BRANCH   1  23
ATOM     23  N   UNL     1       1.302  -2.935  -1.177  0.00  0.00    -0.236 N 
ATOM     24  H   UNL     1       0.239  -3.220  -1.170  0.00  0.00    +0.174 HD
BRANCH  23  27
ATOM     25  C   UNL     1       0.504  -5.562  -0.932  0.00  0.00    +0.068 C 
ATOM     26  C   UNL     1       1.958  -5.170  -0.976  0.00  0.00    +0.063 C 
ATOM     27  N   UNL     1       2.291  -3.917  -1.035  0.00  0.00    -0.187 NA
BRANCH  26  28
ATOM     28  C   UNL     1       3.003  -6.210  -0.951  0.00  0.00    -0.002 A 
ATOM     29  C   UNL     1       2.647  -7.560  -0.882  0.00  0.00    +0.013 A 
ATOM     30  C   UNL     1       3.627  -8.529  -0.865  0.00  0.00    +0.046 A 
ATOM     31  C   UNL     1       4.967  -8.165  -0.905  0.00  0.00    +0.117 A 
ATOM     32  C   UNL     1       5.325  -6.825  -0.968  0.00  0.00    +0.046 A 
ATOM     33  C   UNL     1       4.352  -5.849  -0.991  0.00  0.00    +0.013 A 
BRANCH  31  34
ATOM     34  O   UNL     1       5.930  -9.123  -0.881  0.00  0.00    -0.507 OA
ATOM     35  H   UNL     1       6.991  -8.837  -0.913  0.00  0.00    +0.292 HD
ENDBRANCH  31  34
ENDBRANCH  26  28
ENDBRANCH  23  27
ENDBRANCH   1  23
TORSDOF 9
