REMARK  Name = ZINC21038027
REMARK  7 active torsions:
REMARK  status: ('A' for Active; 'I' for Inactive)
REMARK    1  A    between atoms: C_3  and  C_8
REMARK    2  A    between atoms: N_9  and  N_10
REMARK    3  A    between atoms: C_13  and  S_16
REMARK    4  A    between atoms: S_16  and  C_17
REMARK    5  A    between atoms: C_17  and  C_18
REMARK    6  A    between atoms: C_18  and  C_19
REMARK    7  A    between atoms: N_21  and  C_22
REMARK                            x       y       z     vdW  Elec       q    Type
REMARK                         _______ _______ _______ _____ _____    ______ ____
ROOT
ATOM      1  N   UNL     1       3.597   5.956   0.005  0.00  0.00    -0.205 N 
ATOM      2  C   UNL     1       3.573   7.343   0.010  0.00  0.00    +0.232 A 
ATOM      3  N   UNL     1       4.665   8.166   0.011  0.00  0.00    -0.186 NA
ATOM      4  C   UNL     1       4.220   9.457   0.016  0.00  0.00    +0.210 A 
ATOM      5  N   UNL     1       2.909   9.435   0.018  0.00  0.00    -0.144 NA
ATOM      6  N   UNL     1       2.499   8.095   0.010  0.00  0.00    -0.245 N 
ATOM      7  H   UNL     1       4.559   5.422   0.000  0.00  0.00    +0.177 HD
ATOM      8  H   UNL     1       1.502   7.630   0.003  0.00  0.00    +0.192 HD
ENDROOT
BRANCH   1  10
ATOM      9  C   UNL     1       2.418   3.936  -0.001  0.00  0.00    +0.138 C 
ATOM     10  N   UNL     1       2.396   5.234   0.005  0.00  0.00    -0.188 NA
BRANCH   9  13
ATOM     11  C   UNL     1      -0.011   1.075  -0.006  0.00  0.00    +0.002 A 
ATOM     12  C   UNL     1       1.175   1.780  -0.006  0.00  0.00    +0.009 A 
ATOM     13  C   UNL     1       1.155   3.176  -0.001  0.00  0.00    -0.004 A 
ATOM     14  C   UNL     1      -0.069   3.851   0.004  0.00  0.00    +0.024 A 
ATOM     15  C   UNL     1      -1.248   3.133   0.004  0.00  0.00    +0.018 A 
ATOM     16  C   UNL     1      -1.219   1.749  -0.007  0.00  0.00    +0.015 A 
ATOM     17 BR   UNL     1      -2.906   4.043   0.010  0.00  0.00    -0.050 Br
ENDBRANCH   9  13
ENDBRANCH   1  10
BRANCH   4  18
ATOM     18  S   UNL     1       5.231  10.900   0.018  0.00  0.00    -0.084 S 
BRANCH  18  19
ATOM     19  C   UNL     1       4.042  12.270   0.025  0.00  0.00    +0.086 C 
BRANCH  19  20
ATOM     20  C   UNL     1       4.796  13.601   0.028  0.00  0.00    +0.107 C 
BRANCH  20  21
ATOM     21  C   UNL     1       3.808  14.738   0.034  0.00  0.00    +0.218 C 
ATOM     22  O   UNL     1       2.617  14.507   0.036  0.00  0.00    -0.275 OA
ATOM     23  N   UNL     1       4.247  16.012   0.037  0.00  0.00    -0.285 N 
ATOM     24  H   UNL     1       5.324  16.223   0.112  0.00  0.00    +0.155 HD
BRANCH  23  25
ATOM     25  C   UNL     1       3.332  17.068  -0.055  0.00  0.00    +0.033 A 
ATOM     26  C   UNL     1       3.672  18.224  -0.745  0.00  0.00    +0.025 A 
ATOM     27  C   UNL     1       2.766  19.263  -0.838  0.00  0.00    +0.022 A 
ATOM     28  C   UNL     1       1.524  19.155  -0.236  0.00  0.00    +0.041 A 
ATOM     29  C   UNL     1       1.185  18.006   0.456  0.00  0.00    +0.022 A 
ATOM     30  C   UNL     1       2.086  16.963   0.548  0.00  0.00    +0.025 A 
ATOM     31 CL   UNL     1       0.390  20.465  -0.350  0.00  0.00    -0.084 Cl
ENDBRANCH  23  25
ENDBRANCH  20  21
ENDBRANCH  19  20
ENDBRANCH  18  19
ENDBRANCH   4  18
TORSDOF 7
