REMARK  Name = ZINC05000595
REMARK  7 active torsions:
REMARK  status: ('A' for Active; 'I' for Inactive)
REMARK    1  A    between atoms: C_1  and  C_2
REMARK    2  A    between atoms: C_3  and  C_26
REMARK    3  A    between atoms: C_5  and  N_10
REMARK    4  A    between atoms: C_6  and  C_7
REMARK    5  A    between atoms: C_11  and  C_13
REMARK    6  A    between atoms: C_13  and  N_49
REMARK    7  A    between atoms: C_16  and  C_19
REMARK                            x       y       z     vdW  Elec       q    Type
REMARK                         _______ _______ _______ _____ _____    ______ ____
ROOT
ATOM      1  N   UNL     1       5.261   1.901  -3.003  0.00  0.00    -0.281 N 
ATOM      2  C   UNL     1       4.073   1.436  -2.567  0.00  0.00    +0.201 C 
ATOM      3  O   UNL     1       3.513   0.546  -3.171  0.00  0.00    -0.278 OA
ATOM      4  H   UNL     1       5.709   2.614  -2.521  0.00  0.00    +0.155 HD
ENDROOT
BRANCH   1   9
ATOM      5  C   UNL     1       8.699   1.259  -6.663  0.00  0.00    +0.045 C 
ATOM      6  C   UNL     1       7.414   0.973  -5.929  0.00  0.00    -0.027 A 
ATOM      7  C   UNL     1       6.559   0.025  -6.354  0.00  0.00    -0.008 A 
ATOM      8  S   UNL     1       5.244   0.093  -5.155  0.00  0.00    -0.078 S 
ATOM      9  C   UNL     1       5.842   1.362  -4.141  0.00  0.00    +0.084 A 
ATOM     10  C   UNL     1       7.048   1.705  -4.739  0.00  0.00    +0.068 A 
ATOM     11  C   UNL     1       6.687  -0.880  -7.552  0.00  0.00    +0.052 C 
BRANCH  10  12
ATOM     12  C   UNL     1       7.907   2.759  -4.191  0.00  0.00    +0.244 C 
ATOM     13  O   UNL     1       8.762   2.481  -3.369  0.00  0.00    -0.270 OA
ATOM     14  N   UNL     1       7.750   4.035  -4.595  0.00  0.00    -0.325 N 
ATOM     15  H   UNL     1       7.069   4.256  -5.249  0.00  0.00    +0.145 HD
ATOM     16  H   UNL     1       8.319   4.732  -4.232  0.00  0.00    +0.145 HD
ENDBRANCH  10  12
ENDBRANCH   1   9
BRANCH   2  17
ATOM     17  C   UNL     1       3.442   2.022  -1.331  0.00  0.00    +0.019 C 
BRANCH  17  23
ATOM     18  C   UNL     1       1.416   2.035  -0.001  0.00  0.00    -0.073 C 
ATOM     19  C   UNL     1      -0.018   1.499   0.010  0.00  0.00    +0.017 C 
ATOM     20  C   UNL     1       0.002  -0.004   0.002  0.00  0.00    -0.048 C 
ATOM     21  C   UNL     1       1.070  -0.698  -0.327  0.00  0.00    -0.041 C 
ATOM     22  C   UNL     1       2.372  -0.061  -0.719  0.00  0.00    -0.050 C 
ATOM     23  N   UNL     1       2.146   1.349  -1.086  0.00  0.00    +0.388 N 
ATOM     24  H   UNL     1       1.583   1.386  -1.944  0.00  0.00    -0.081 HD
BRANCH  20  25
ATOM     25  C   UNL     1      -1.228  -0.732   0.379  0.00  0.00    -0.022 A 
ATOM     26  C   UNL     1      -2.374  -0.626  -0.410  0.00  0.00    +0.011 A 
ATOM     27  C   UNL     1      -3.517  -1.312  -0.057  0.00  0.00    +0.039 A 
ATOM     28  C   UNL     1      -3.533  -2.095   1.087  0.00  0.00    +0.123 A 
ATOM     29  C   UNL     1      -2.399  -2.199   1.877  0.00  0.00    +0.039 A 
ATOM     30  C   UNL     1      -1.249  -1.522   1.529  0.00  0.00    +0.011 A 
ATOM     31  F   UNL     1      -4.657  -2.760   1.432  0.00  0.00    -0.205 F 
ENDBRANCH  20  25
ENDBRANCH  17  23
ENDBRANCH   2  17
TORSDOF 5
