REMARK  Name = ZINC12726965
REMARK  8 active torsions:
REMARK  status: ('A' for Active; 'I' for Inactive)
REMARK    1  A    between atoms: C_1  and  N_2
REMARK    2  A    between atoms: N_2  and  C_3
REMARK    3  A    between atoms: N_2  and  C_9
REMARK    4  A    between atoms: C_12  and  C_15
REMARK    5  A    between atoms: C_15  and  N_67
REMARK    6  A    between atoms: C_18  and  C_21
REMARK    7  A    between atoms: C_21  and  C_28
REMARK    8  A    between atoms: C_28  and  C_29
REMARK                            x       y       z     vdW  Elec       q    Type
REMARK                         _______ _______ _______ _____ _____    ______ ____
ROOT
ATOM      1  C   UNL     1       0.303   1.719  -1.816  0.00  0.00    -0.078 C 
ATOM      2  C   UNL     1       0.733   0.713  -0.745  0.00  0.00    -0.013 C 
ATOM      3  C   UNL     1       0.529  -0.709  -1.277  0.00  0.00    +0.018 C 
ATOM      4  C   UNL     1      -0.939  -0.893  -1.669  0.00  0.00    -0.013 C 
ATOM      5  C   UNL     1      -1.320   0.159  -2.712  0.00  0.00    -0.078 C 
ATOM      6  N   UNL     1      -1.125   1.504  -2.131  0.00  0.00    +0.382 N 
ATOM      7  H   UNL     1      -1.671   1.575  -1.264  0.00  0.00    -0.081 HD
ENDROOT
BRANCH   3   8
ATOM      8  C   UNL     1       0.900  -1.720  -0.190  0.00  0.00    +0.119 C 
ATOM      9  C   UNL     1       0.635  -3.135  -0.666  0.00  0.00    +0.244 C 
ATOM     10  O   UNL     1       1.146  -3.698  -1.609  0.00  0.00    -0.273 OA
ATOM     11  N   UNL     1      -0.288  -3.636   0.179  0.00  0.00    -0.238 N 
ATOM     12  C   UNL     1      -0.639  -2.744   1.113  0.00  0.00    +0.307 C 
ATOM     13  O   UNL     1      -1.455  -2.966   1.986  0.00  0.00    -0.252 OA
ATOM     14  N   UNL     1       0.015  -1.573   0.979  0.00  0.00    -0.284 N 
ATOM     15  H   UNL     1      -0.652  -4.533   0.118  0.00  0.00    +0.159 HD
ATOM     16  H   UNL     1      -0.077  -0.787   1.540  0.00  0.00    +0.151 HD
BRANCH   8  17
ATOM     17  C   UNL     1       2.365  -1.556   0.219  0.00  0.00    +0.070 C 
BRANCH  17  18
ATOM     18  C   UNL     1       2.703  -2.562   1.289  0.00  0.00    -0.045 A 
ATOM     19  C   UNL     1       2.540  -2.235   2.622  0.00  0.00    +0.004 A 
ATOM     20  C   UNL     1       2.847  -3.159   3.603  0.00  0.00    +0.000 A 
ATOM     21  C   UNL     1       3.326  -4.407   3.251  0.00  0.00    +0.000 A 
ATOM     22  C   UNL     1       3.493  -4.733   1.918  0.00  0.00    +0.000 A 
ATOM     23  C   UNL     1       3.183  -3.810   0.937  0.00  0.00    +0.004 A 
ENDBRANCH  17  18
ENDBRANCH   8  17
ENDBRANCH   3   8
BRANCH   6  24
ATOM     24  C   UNL     1      -1.594   2.536  -3.078  0.00  0.00    -0.043 C 
BRANCH  24  28
ATOM     25  C   UNL     1      -1.580   6.327  -1.103  0.00  0.00    +0.034 A 
ATOM     26  C   UNL     1      -0.457   5.901  -1.801  0.00  0.00    +0.023 A 
ATOM     27  C   UNL     1      -0.464   4.676  -2.438  0.00  0.00    +0.003 A 
ATOM     28  C   UNL     1      -1.589   3.873  -2.382  0.00  0.00    -0.064 A 
ATOM     29  C   UNL     1      -2.711   4.295  -1.692  0.00  0.00    +0.003 A 
ATOM     30  C   UNL     1      -2.708   5.517  -1.049  0.00  0.00    +0.023 A 
BRANCH  25  32
ATOM     31  C   UNL     1      -0.349   8.365  -0.414  0.00  0.00    +0.135 C 
ATOM     32  N   UNL     1      -1.576   7.566  -0.459  0.00  0.00    -0.303 N 
BRANCH  32  33
ATOM     33  C   UNL     1      -2.743   8.044   0.144  0.00  0.00    +0.034 A 
ATOM     34  C   UNL     1      -3.640   8.811  -0.588  0.00  0.00    +0.023 A 
ATOM     35  C   UNL     1      -4.795   9.277   0.010  0.00  0.00    +0.002 A 
ATOM     36  C   UNL     1      -5.052   8.991   1.338  0.00  0.00    +0.000 A 
ATOM     37  C   UNL     1      -4.158   8.232   2.071  0.00  0.00    +0.002 A 
ATOM     38  C   UNL     1      -3.004   7.758   1.478  0.00  0.00    +0.023 A 
ENDBRANCH  32  33
ENDBRANCH  25  32
ENDBRANCH  24  28
ENDBRANCH   6  24
TORSDOF 7
