REMARK  Name = ZINC21543508
REMARK  7 active torsions:
REMARK  status: ('A' for Active; 'I' for Inactive)
REMARK    1  A    between atoms: C_1  and  C_2
REMARK    2  A    between atoms: C_2  and  C_4
REMARK    3  A    between atoms: C_2  and  O_17
REMARK    4  A    between atoms: N_6  and  C_7
REMARK    5  A    between atoms: O_17  and  C_18
REMARK    6  A    between atoms: C_18  and  C_20
REMARK    7  A    between atoms: C_27  and  C_32
REMARK                            x       y       z     vdW  Elec       q    Type
REMARK                         _______ _______ _______ _____ _____    ______ ____
ROOT
ATOM      1  C   UNL     1       5.631  -4.841   1.045  0.00  0.00    +0.340 C 
ATOM      2  O   UNL     1       6.618  -4.274   1.466  0.00  0.00    -0.245 OA
ENDROOT
BRANCH   1   3
ATOM      3  C   UNL     1       5.445  -6.287   1.297  0.00  0.00    +0.059 A 
ATOM      4  C   UNL     1       4.309  -6.939   0.812  0.00  0.00    +0.016 A 
ATOM      5  C   UNL     1       4.136  -8.286   1.048  0.00  0.00    +0.016 A 
ATOM      6  C   UNL     1       5.097  -8.993   1.769  0.00  0.00    +0.062 A 
ATOM      7  C   UNL     1       6.235  -8.346   2.254  0.00  0.00    -0.029 A 
ATOM      8  C   UNL     1       6.408  -6.999   2.013  0.00  0.00    +0.019 A 
ATOM      9  C   UNL     1       7.278  -9.108   3.029  0.00  0.00    +0.085 C 
ATOM     10  C   UNL     1       6.676 -10.386   3.614  0.00  0.00    +0.211 C 
ATOM     11  O   UNL     1       5.971 -11.111   2.564  0.00  0.00    -0.453 OA
ATOM     12  C   UNL     1       4.917 -10.443   2.032  0.00  0.00    +0.340 C 
ATOM     13  O   UNL     1       3.870 -11.006   1.782  0.00  0.00    -0.245 OA
BRANCH  10  14
ATOM     14  C   UNL     1       7.778 -11.252   4.169  0.00  0.00    -0.007 A 
ATOM     15  C   UNL     1       8.533 -12.039   3.320  0.00  0.00    +0.007 A 
ATOM     16  C   UNL     1       9.547 -12.829   3.829  0.00  0.00    +0.000 A 
ATOM     17  C   UNL     1       9.799 -12.840   5.189  0.00  0.00    +0.000 A 
ATOM     18  C   UNL     1       9.040 -12.057   6.038  0.00  0.00    +0.000 A 
ATOM     19  C   UNL     1       8.029 -11.263   5.529  0.00  0.00    +0.007 A 
ENDBRANCH  10  14
ENDBRANCH   1   3
BRANCH   1  20
ATOM     20  O   UNL     1       4.705  -4.155   0.348  0.00  0.00    -0.449 OA
BRANCH  20  22
ATOM     21  C   UNL     1       5.737  -2.545  -1.159  0.00  0.00    +0.062 C 
ATOM     22  C   UNL     1       4.953  -2.739   0.140  0.00  0.00    +0.259 C 
BRANCH  22  23
ATOM     23  C   UNL     1       3.639  -2.007   0.047  0.00  0.00    +0.258 C 
ATOM     24  O   UNL     1       2.597  -2.628   0.056  0.00  0.00    -0.271 OA
ATOM     25  N   UNL     1       3.621  -0.663  -0.045  0.00  0.00    -0.282 N 
ATOM     26  H   UNL     1       4.565  -0.106  -0.141  0.00  0.00    +0.155 HD
BRANCH  25  27
ATOM     27  C   UNL     1       2.401   0.025  -0.020  0.00  0.00    +0.037 A 
ATOM     28  C   UNL     1       1.346  -0.460   0.740  0.00  0.00    +0.027 A 
ATOM     29  C   UNL     1       0.142   0.217   0.764  0.00  0.00    +0.051 A 
ATOM     30  C   UNL     1      -0.016   1.383   0.030  0.00  0.00    +0.162 A 
ATOM     31  C   UNL     1       1.039   1.873  -0.730  0.00  0.00    +0.164 A 
ATOM     32  C   UNL     1       2.247   1.192  -0.755  0.00  0.00    +0.072 A 
ATOM     33  O   UNL     1       0.906   3.020  -1.450  0.00  0.00    -0.485 OA
ATOM     34  C   UNL     1      -0.430   3.472  -1.699  0.00  0.00    +0.270 C 
ATOM     35  C   UNL     1      -1.216   3.394  -0.384  0.00  0.00    +0.270 C 
ATOM     36  O   UNL     1      -1.213   2.032   0.059  0.00  0.00    -0.485 OA
ENDBRANCH  25  27
ENDBRANCH  22  23
ENDBRANCH  20  22
ENDBRANCH   1  20
TORSDOF 6
