REMARK  Name = ZINC15071007
REMARK  6 active torsions:
REMARK  status: ('A' for Active; 'I' for Inactive)
REMARK    1  A    between atoms: C_4  and  C_7
REMARK    2  A    between atoms: C_7  and  C_13
REMARK    3  A    between atoms: C_13  and  N_14
REMARK    4  A    between atoms: C_15  and  C_17
REMARK    5  A    between atoms: C_25  and  C_26
REMARK    6  A    between atoms: C_25  and  N_72
REMARK                            x       y       z     vdW  Elec       q    Type
REMARK                         _______ _______ _______ _____ _____    ______ ____
ROOT
ATOM      1  C   UNL     1       3.607  -3.147   4.377  0.00  0.00    +0.082 C 
ATOM      2  C   UNL     1       2.759  -3.308   3.113  0.00  0.00    +0.020 C 
ATOM      3  C   UNL     1       3.954  -2.356   3.118  0.00  0.00    -0.021 C 
ATOM      4  C   UNL     1       5.202  -2.773   2.333  0.00  0.00    -0.011 C 
ATOM      5  C   UNL     1       5.126  -2.160   0.931  0.00  0.00    -0.078 C 
ATOM      6  C   UNL     1       3.683  -0.351   1.668  0.00  0.00    -0.078 C 
ATOM      7  C   UNL     1       3.669  -0.851   3.117  0.00  0.00    -0.011 C 
ATOM      8  N   UNL     1       4.988  -0.692   1.059  0.00  0.00    +0.383 N 
ATOM      9  H   UNL     1       5.739  -0.339   1.663  0.00  0.00    -0.081 HD
ENDROOT
BRANCH   1  11
ATOM     10  N   UNL     1       4.256  -5.020   5.857  0.00  0.00    -0.314 N 
ATOM     11  C   UNL     1       4.516  -4.288   4.756  0.00  0.00    +0.217 C 
ATOM     12  O   UNL     1       5.481  -4.548   4.069  0.00  0.00    -0.275 OA
ATOM     13  H   UNL     1       3.484  -4.812   6.407  0.00  0.00    +0.149 HD
BRANCH  10  14
ATOM     14  C   UNL     1       5.140  -6.129   6.225  0.00  0.00    +0.115 C 
BRANCH  14  15
ATOM     15  C   UNL     1       4.697  -6.709   7.570  0.00  0.00    +0.015 C 
ATOM     16  C   UNL     1       5.685  -7.795   8.009  0.00  0.00    +0.041 C 
ATOM     17  C   UNL     1       5.660  -8.939   6.992  0.00  0.00    +0.160 C 
ATOM     18  O   UNL     1       4.330  -9.450   6.885  0.00  0.00    -0.380 OA
ATOM     19  C   UNL     1       3.371  -8.492   6.432  0.00  0.00    +0.160 C 
ATOM     20  C   UNL     1       3.304  -7.330   7.427  0.00  0.00    +0.041 C 
BRANCH  15  24
ATOM     21  C   UNL     1       4.584  -3.602  10.498  0.00  0.00    +0.000 A 
ATOM     22  C   UNL     1       5.743  -3.835   9.783  0.00  0.00    +0.000 A 
ATOM     23  C   UNL     1       5.780  -4.841   8.835  0.00  0.00    +0.004 A 
ATOM     24  C   UNL     1       4.657  -5.613   8.603  0.00  0.00    -0.040 A 
ATOM     25  C   UNL     1       3.496  -5.376   9.315  0.00  0.00    +0.004 A 
ATOM     26  C   UNL     1       3.461  -4.374  10.266  0.00  0.00    +0.000 A 
ENDBRANCH  15  24
ENDBRANCH  14  15
ENDBRANCH  10  14
ENDBRANCH   1  11
BRANCH   8  27
ATOM     27  C   UNL     1       5.104  -0.058  -0.270  0.00  0.00    -0.024 C 
BRANCH  27  28
ATOM     28  C   UNL     1       4.837   1.419  -0.132  0.00  0.00    +0.009 A 
ATOM     29  C   UNL     1       3.661   2.035  -0.365  0.00  0.00    +0.021 A 
ATOM     30  C   UNL     1       3.846   3.410  -0.118  0.00  0.00    +0.020 A 
ATOM     31  C   UNL     1       5.128   3.584   0.261  0.00  0.00    +0.093 A 
ATOM     32  N   UNL     1       5.746   2.365   0.251  0.00  0.00    -0.307 N 
ATOM     33  C   UNL     1       7.082   2.126   0.582  0.00  0.00    +0.138 A 
ATOM     34  C   UNL     1       7.928   3.196   0.846  0.00  0.00    +0.047 A 
ATOM     35  C   UNL     1       9.250   2.945   1.172  0.00  0.00    +0.005 A 
ATOM     36  C   UNL     1       9.680   1.626   1.223  0.00  0.00    +0.020 A 
ATOM     37  C   UNL     1       8.784   0.612   0.949  0.00  0.00    +0.113 A 
ATOM     38  N   UNL     1       7.530   0.882   0.640  0.00  0.00    -0.238 NA
ENDBRANCH  27  28
ENDBRANCH   8  27
TORSDOF 6
