REMARK  Name = ZINC59597486
REMARK  5 active torsions:
REMARK  status: ('A' for Active; 'I' for Inactive)
REMARK    1  A    between atoms: C_6  and  C_11
REMARK    2  A    between atoms: C_11  and  N_12
REMARK    3  A    between atoms: C_14  and  C_21
REMARK    4  A    between atoms: N_22  and  N_23
REMARK    5  A    between atoms: N_26  and  C_27
REMARK                            x       y       z     vdW  Elec       q    Type
REMARK                         _______ _______ _______ _____ _____    ______ ____
ROOT
ATOM      1  N   UNL     1       5.410  -2.917   1.333  0.00  0.00    -0.342 N 
ATOM      2  C   UNL     1       6.263  -2.113   2.030  0.00  0.00    +0.096 A 
ATOM      3  C   UNL     1       6.471  -2.632   3.270  0.00  0.00    +0.020 A 
ATOM      4  C   UNL     1       5.675  -3.869   3.348  0.00  0.00    +0.009 A 
ATOM      5  C   UNL     1       5.028  -3.992   2.107  0.00  0.00    +0.050 A 
ATOM      6  C   UNL     1       4.187  -5.077   1.880  0.00  0.00    +0.026 A 
ATOM      7  C   UNL     1       3.994  -6.016   2.869  0.00  0.00    +0.002 A 
ATOM      8  C   UNL     1       4.631  -5.891   4.096  0.00  0.00    +0.001 A 
ATOM      9  C   UNL     1       5.474  -4.829   4.337  0.00  0.00    +0.010 A 
ENDROOT
BRANCH   3  10
ATOM     10  C   UNL     1       7.326  -2.067   4.328  0.00  0.00    +0.140 C 
ATOM     11  N   UNL     1       7.431  -2.675   5.470  0.00  0.00    -0.186 NA
BRANCH  11  12
ATOM     12  N   UNL     1       8.244  -2.138   6.477  0.00  0.00    -0.191 N 
ATOM     13  C   UNL     1       8.354  -2.768   7.663  0.00  0.00    +0.323 C 
ATOM     14  O   UNL     1       9.059  -2.302   8.537  0.00  0.00    -0.251 OA
ATOM     15  N   UNL     1       7.681  -3.916   7.881  0.00  0.00    -0.268 N 
ATOM     16  H   UNL     1       8.728  -1.312   6.320  0.00  0.00    +0.179 HD
ATOM     17  H   UNL     1       7.066  -4.253   7.210  0.00  0.00    +0.156 HD
BRANCH  15  18
ATOM     18  C   UNL     1       7.869  -4.622   9.075  0.00  0.00    +0.035 A 
ATOM     19  C   UNL     1       7.840  -6.010   9.074  0.00  0.00    +0.024 A 
ATOM     20  C   UNL     1       8.025  -6.704  10.254  0.00  0.00    +0.017 A 
ATOM     21  C   UNL     1       8.241  -6.017  11.435  0.00  0.00    +0.018 A 
ATOM     22  C   UNL     1       8.270  -4.634  11.439  0.00  0.00    +0.017 A 
ATOM     23  C   UNL     1       8.091  -3.935  10.261  0.00  0.00    +0.024 A 
ATOM     24 BR   UNL     1       8.494  -6.971  13.048  0.00  0.00    -0.050 Br
ENDBRANCH  15  18
ENDBRANCH  11  12
ENDBRANCH   3  10
BRANCH   1  25
ATOM     25  C   UNL     1       4.960  -2.670  -0.039  0.00  0.00    +0.157 C 
BRANCH  25  31
ATOM     26  C   UNL     1      -0.054   1.399   0.075  0.00  0.00    +0.001 A 
ATOM     27  C   UNL     1       1.133   2.130   0.062  0.00  0.00    +0.001 A 
ATOM     28  C   UNL     1       2.341   1.504   0.037  0.00  0.00    +0.008 A 
ATOM     29  C   UNL     1       2.397   0.100   0.025  0.00  0.00    -0.018 A 
ATOM     30  C   UNL     1       3.626  -0.581  -0.000  0.00  0.00    +0.014 A 
ATOM     31  C   UNL     1       3.641  -1.942  -0.012  0.00  0.00    -0.027 A 
ATOM     32  C   UNL     1       2.454  -2.673   0.001  0.00  0.00    +0.006 A 
ATOM     33  C   UNL     1       1.246  -2.047   0.026  0.00  0.00    +0.009 A 
ATOM     34  C   UNL     1       1.190  -0.643   0.038  0.00  0.00    -0.018 A 
ATOM     35  C   UNL     1      -0.039   0.039   0.063  0.00  0.00    +0.008 A 
ENDBRANCH  25  31
ENDBRANCH   1  25
TORSDOF 5
