REMARK  Name = ZINC09483326
REMARK  6 active torsions:
REMARK  status: ('A' for Active; 'I' for Inactive)
REMARK    1  A    between atoms: C_1  and  C_2
REMARK    2  A    between atoms: C_2  and  C_29
REMARK    3  A    between atoms: C_6  and  C_21
REMARK    4  A    between atoms: N_8  and  C_16
REMARK    5  A    between atoms: C_16  and  C_17
REMARK    6  A    between atoms: N_19  and  C_20
REMARK                            x       y       z     vdW  Elec       q    Type
REMARK                         _______ _______ _______ _____ _____    ______ ____
ROOT
ATOM      1  C   UNL     1      -2.045   1.235   6.188  0.00  0.00    +0.011 C 
ATOM      2  C   UNL     1      -1.505   2.666   6.194  0.00  0.00    -0.023 C 
ATOM      3  C   UNL     1      -2.062   3.436   4.995  0.00  0.00    +0.058 C 
ATOM      4  C   UNL     1      -1.631   2.769   3.712  0.00  0.00    +0.017 C 
ATOM      5  C   UNL     1      -0.442   2.122   3.607  0.00  0.00    +0.040 C 
ATOM      6  C   UNL     1       0.152   1.438   2.380  0.00  0.00    +0.175 C 
ATOM      7  N   UNL     1      -0.700   1.560   1.217  0.00  0.00    -0.306 N 
ATOM      8  C   UNL     1      -1.964   0.987   1.328  0.00  0.00    +0.052 A 
ATOM      9  C   UNL     1      -2.258  -0.245   0.755  0.00  0.00    +0.025 A 
ATOM     10  C   UNL     1      -3.551  -0.731   0.869  0.00  0.00    +0.002 A 
ATOM     11  C   UNL     1      -4.521  -0.003   1.534  0.00  0.00    +0.002 A 
ATOM     12  C   UNL     1      -4.208   1.218   2.114  0.00  0.00    +0.025 A 
ATOM     13  C   UNL     1      -2.903   1.679   2.006  0.00  0.00    +0.052 A 
ATOM     14  N   UNL     1      -2.482   2.849   2.650  0.00  0.00    -0.316 N 
ATOM     15  C   UNL     1       0.395   2.046   4.744  0.00  0.00    +0.163 C 
ATOM     16  O   UNL     1       1.461   1.470   4.646  0.00  0.00    -0.292 OA
ATOM     17  C   UNL     1       0.022   2.645   6.066  0.00  0.00    +0.086 C 
ATOM     18  C   UNL     1      -1.906   3.366   7.494  0.00  0.00    +0.011 C 
ATOM     19  H   UNL     1      -2.795   3.714   2.342  0.00  0.00    +0.152 HD
ENDROOT
BRANCH   6  20
ATOM     20  C   UNL     1       1.490   2.060   2.072  0.00  0.00    +0.130 A 
ATOM     21  C   UNL     1       2.687   1.574   2.445  0.00  0.00    +0.047 A 
ATOM     22  C   UNL     1       3.664   2.468   1.948  0.00  0.00    +0.041 A 
ATOM     23  C   UNL     1       3.005   3.446   1.302  0.00  0.00    +0.195 A 
ATOM     24  O   UNL     1       1.688   3.191   1.376  0.00  0.00    -0.466 OA
ENDBRANCH   6  20
BRANCH   7  25
ATOM     25  C   UNL     1      -0.013   1.086   0.008  0.00  0.00    +0.201 C 
BRANCH  25  26
ATOM     26  C   UNL     1      -0.742   1.585  -1.213  0.00  0.00    +0.230 C 
ATOM     27  O   UNL     1      -1.736   2.268  -1.088  0.00  0.00    -0.274 OA
ATOM     28  N   UNL     1      -0.288   1.272  -2.443  0.00  0.00    -0.317 N 
ATOM     29  C   UNL     1      -0.997   1.758  -3.630  0.00  0.00    +0.128 C 
ATOM     30  H   UNL     1       0.507   0.726  -2.543  0.00  0.00    +0.148 HD
ENDBRANCH  25  26
ENDBRANCH   7  25
TORSDOF 3
