REMARK  Name = ZINC58988474
REMARK  10 active torsions:
REMARK  status: ('A' for Active; 'I' for Inactive)
REMARK    1  A    between atoms: C_2  and  C_3
REMARK    2  A    between atoms: C_3  and  C_4
REMARK    3  A    between atoms: C_8  and  C_11
REMARK    4  A    between atoms: C_9  and  O_10
REMARK    5  A    between atoms: N_12  and  N_13
REMARK    6  A    between atoms: C_14  and  C_16
REMARK    7  A    between atoms: C_16  and  S_17
REMARK    8  A    between atoms: S_17  and  C_18
REMARK    9  A    between atoms: C_21  and  C_29
REMARK   10  A    between atoms: N_22  and  C_23
REMARK                            x       y       z     vdW  Elec       q    Type
REMARK                         _______ _______ _______ _____ _____    ______ ____
ROOT
ATOM      1  C   UNL     1       2.180  -8.563   0.515  0.00  0.00    +0.174 C 
ENDROOT
BRANCH   1   3
ATOM      2  N   UNL     1       0.876  -6.840  -0.689  0.00  0.00    -0.206 N 
ATOM      3  C   UNL     1       1.583  -7.184   0.406  0.00  0.00    +0.242 C 
ATOM      4  O   UNL     1       1.738  -6.383   1.304  0.00  0.00    -0.273 OA
ATOM      5  H   UNL     1       0.752  -7.480  -1.407  0.00  0.00    +0.177 HD
BRANCH   2   7
ATOM      6  C   UNL     1      -0.360  -5.226  -1.844  0.00  0.00    +0.142 C 
ATOM      7  N   UNL     1       0.321  -5.558  -0.789  0.00  0.00    -0.188 NA
BRANCH   6  12
ATOM      8  C   UNL     1      -1.321  -1.684  -1.024  0.00  0.00    -0.002 A 
ATOM      9  C   UNL     1      -2.044  -1.339  -2.151  0.00  0.00    +0.007 A 
ATOM     10  C   UNL     1      -2.221  -2.253  -3.176  0.00  0.00    +0.001 A 
ATOM     11  C   UNL     1      -1.677  -3.517  -3.083  0.00  0.00    +0.013 A 
ATOM     12  C   UNL     1      -0.944  -3.877  -1.950  0.00  0.00    +0.036 A 
ATOM     13  C   UNL     1      -0.763  -2.947  -0.917  0.00  0.00    +0.129 A 
BRANCH  13  14
ATOM     14  O   UNL     1      -0.048  -3.285   0.187  0.00  0.00    -0.506 OA
ATOM     15  H   UNL     1      -0.578  -3.676   0.895  0.00  0.00    +0.292 HD
ENDBRANCH  13  14
BRANCH   8  16
ATOM     16  C   UNL     1      -1.135  -0.683   0.086  0.00  0.00    +0.065 C 
BRANCH  16  18
ATOM     17  C   UNL     1       0.201   1.346  -0.158  0.00  0.00    +0.004 C 
ATOM     18  C   UNL     1       0.175   0.038  -0.102  0.00  0.00    -0.030 C 
ENDBRANCH  16  18
ENDBRANCH   8  16
ENDBRANCH   6  12
ENDBRANCH   2   7
ENDBRANCH   1   3
BRANCH   1  19
ATOM     19  S   UNL     1       3.064  -8.717   2.092  0.00  0.00    -0.076 S 
BRANCH  19  20
ATOM     20  C   UNL     1       3.696 -10.361   2.067  0.00  0.00    +0.197 A 
ATOM     21  N   UNL     1       3.544 -11.241   1.103  0.00  0.00    -0.122 NA
ATOM     22  N   UNL     1       4.133 -12.341   1.410  0.00  0.00    -0.128 NA
ATOM     23  C   UNL     1       4.699 -12.233   2.590  0.00  0.00    +0.171 A 
ATOM     24  N   UNL     1       4.441 -10.959   3.046  0.00  0.00    -0.270 N 
BRANCH  24  25
ATOM     25  C   UNL     1       4.854 -10.394   4.261  0.00  0.00    +0.051 A 
ATOM     26  C   UNL     1       6.199 -10.130   4.483  0.00  0.00    +0.026 A 
ATOM     27  C   UNL     1       6.603  -9.574   5.681  0.00  0.00    +0.002 A 
ATOM     28  C   UNL     1       5.670  -9.280   6.658  0.00  0.00    +0.000 A 
ATOM     29  C   UNL     1       4.330  -9.542   6.440  0.00  0.00    +0.002 A 
ATOM     30  C   UNL     1       3.919 -10.092   5.242  0.00  0.00    +0.026 A 
ENDBRANCH  24  25
BRANCH  23  31
ATOM     31  C   UNL     1       5.470 -13.280   3.293  0.00  0.00    +0.038 A 
ATOM     32  C   UNL     1       5.705 -13.187   4.670  0.00  0.00    +0.014 A 
ATOM     33  C   UNL     1       6.433 -14.193   5.281  0.00  0.00    +0.020 A 
ATOM     34  C   UNL     1       6.901 -15.248   4.519  0.00  0.00    +0.111 A 
ATOM     35  N   UNL     1       6.666 -15.309   3.222  0.00  0.00    -0.263 NA
ATOM     36  C   UNL     1       5.973 -14.380   2.597  0.00  0.00    +0.122 A 
ENDBRANCH  23  31
ENDBRANCH  19  20
ENDBRANCH   1  19
TORSDOF 10
