REMARK  Name = ZINC36552920
REMARK  10 active torsions:
REMARK  status: ('A' for Active; 'I' for Inactive)
REMARK    1  A    between atoms: C_1  and  C_2
REMARK    2  A    between atoms: C_2  and  C_3
REMARK    3  A    between atoms: C_2  and  C_4
REMARK    4  A    between atoms: C_2  and  N_5
REMARK    5  A    between atoms: C_6  and  C_8
REMARK    6  A    between atoms: C_8  and  C_10
REMARK    7  A    between atoms: C_8  and  N_20
REMARK    8  A    between atoms: C_12  and  N_17
REMARK    9  A    between atoms: N_20  and  C_21
REMARK   10  A    between atoms: C_28  and  C_30
REMARK                            x       y       z     vdW  Elec       q    Type
REMARK                         _______ _______ _______ _____ _____    ______ ____
ROOT
ATOM      1  C   UNL     1       2.706  -0.072  -2.115  0.00  0.00    +0.199 C 
ENDROOT
BRANCH   1   2
ATOM      2  C   UNL     1       1.886  -1.164  -2.751  0.00  0.00    +0.003 A 
ATOM      3  C   UNL     1       2.511  -2.271  -3.294  0.00  0.00    +0.040 A 
ATOM      4  C   UNL     1       1.759  -3.273  -3.878  0.00  0.00    +0.127 A 
ATOM      5  C   UNL     1       0.381  -3.169  -3.919  0.00  0.00    +0.034 A 
ATOM      6  C   UNL     1      -0.245  -2.063  -3.377  0.00  0.00    +0.022 A 
ATOM      7  C   UNL     1       0.507  -1.062  -2.787  0.00  0.00    +0.047 A 
ATOM      8 CL   UNL     1      -0.279   0.324  -2.099  0.00  0.00    -0.083 Cl
BRANCH   4   9
ATOM      9  N   UNL     1       2.429  -4.458  -4.459  0.00  0.00    +0.056 N 
ATOM     10  O   UNL     1       3.634  -4.549  -4.424  0.00  0.00    -0.126 OA
ATOM     11  O   UNL     1       1.771  -5.334  -4.970  0.00  0.00    -0.126 OA
ENDBRANCH   4   9
ENDBRANCH   1   2
BRANCH   1  13
ATOM     12  N   UNL     1       1.533  -0.212   0.058  0.00  0.00    -0.309 N 
ATOM     13  C   UNL     1       2.699  -0.244  -0.618  0.00  0.00    +0.239 C 
ATOM     14  O   UNL     1       3.741  -0.412  -0.022  0.00  0.00    -0.273 OA
ATOM     15  H   UNL     1       0.699  -0.077  -0.419  0.00  0.00    +0.149 HD
BRANCH  12  17
ATOM     16  C   UNL     1       2.359   0.730   2.159  0.00  0.00    +0.031 C 
ATOM     17  C   UNL     1       1.526  -0.380   1.513  0.00  0.00    +0.026 C 
ATOM     18  C   UNL     1       2.124  -1.741   1.873  0.00  0.00    +0.031 C 
ATOM     19  C   UNL     1       0.087  -0.302   2.028  0.00  0.00    +0.031 C 
ENDBRANCH  12  17
ENDBRANCH   1  13
BRANCH   1  20
ATOM     20  N   UNL     1       4.084  -0.145  -2.608  0.00  0.00    -0.254 N 
ATOM     21  C   UNL     1       4.879  -1.168  -2.236  0.00  0.00    +0.241 C 
ATOM     22  O   UNL     1       4.491  -1.969  -1.412  0.00  0.00    -0.273 OA
BRANCH  20  23
ATOM     23  C   UNL     1       4.574   0.845  -3.466  0.00  0.00    +0.039 A 
ATOM     24  C   UNL     1       5.290   1.919  -2.953  0.00  0.00    +0.023 A 
ATOM     25  C   UNL     1       5.772   2.896  -3.801  0.00  0.00    +0.003 A 
ATOM     26  C   UNL     1       5.543   2.806  -5.162  0.00  0.00    +0.020 A 
ATOM     27  C   UNL     1       4.831   1.738  -5.678  0.00  0.00    +0.043 A 
ATOM     28  C   UNL     1       4.351   0.754  -4.834  0.00  0.00    +0.043 A 
ATOM     29 CL   UNL     1       4.545   1.630  -7.387  0.00  0.00    -0.083 Cl
ENDBRANCH  20  23
BRANCH  21  30
ATOM     30  C   UNL     1       6.251  -1.316  -2.843  0.00  0.00    +0.160 C 
ATOM     31  C   UNL     1       6.162  -2.073  -4.186  0.00  0.00    +0.041 C 
ATOM     32  C   UNL     1       6.418  -3.532  -3.744  0.00  0.00    +0.098 C 
ATOM     33  C   UNL     1       7.207  -3.397  -2.460  0.00  0.00    +0.214 C 
ATOM     34  O   UNL     1       7.844  -4.288  -1.940  0.00  0.00    -0.276 OA
ATOM     35  N   UNL     1       7.101  -2.144  -1.980  0.00  0.00    -0.304 N 
ATOM     36  H   UNL     1       7.531  -1.828  -1.169  0.00  0.00    +0.149 HD
ENDBRANCH  21  30
ENDBRANCH   1  20
TORSDOF 7
