REMARK  Name = ZINC11426000
REMARK  8 active torsions:
REMARK  status: ('A' for Active; 'I' for Inactive)
REMARK    1  A    between atoms: C_4  and  S_26
REMARK    2  A    between atoms: C_5  and  N_7
REMARK    3  A    between atoms: C_8  and  C_10
REMARK    4  A    between atoms: C_10  and  S_11
REMARK    5  A    between atoms: S_11  and  C_12
REMARK    6  A    between atoms: C_15  and  C_18
REMARK    7  A    between atoms: N_16  and  N_17
REMARK    8  A    between atoms: S_26  and  C_27
REMARK                            x       y       z     vdW  Elec       q    Type
REMARK                         _______ _______ _______ _____ _____    ______ ____
ROOT
ATOM      1  S   UNL     1      -0.010  -0.314  -2.779  0.00  0.00    -0.075 S 
ENDROOT
BRANCH   1   2
ATOM      2  C   UNL     1       0.036  -0.821  -1.092  0.00  0.00    +0.209 A 
ATOM      3  N   UNL     1       0.065  -2.058  -0.651  0.00  0.00    -0.121 NA
ATOM      4  N   UNL     1       0.088  -2.068   0.634  0.00  0.00    -0.127 NA
ATOM      5  C   UNL     1       0.080  -0.838   1.092  0.00  0.00    +0.183 A 
ATOM      6  N   UNL     1       0.050  -0.001   0.000  0.00  0.00    -0.224 N 
BRANCH   5   7
ATOM      7  C   UNL     1       0.101  -0.428   2.512  0.00  0.00    +0.039 A 
ATOM      8  C   UNL     1       0.096   0.926   2.851  0.00  0.00    +0.014 A 
ATOM      9  C   UNL     1       0.110   1.302   4.178  0.00  0.00    +0.021 A 
ATOM     10  C   UNL     1       0.140   0.339   5.174  0.00  0.00    +0.042 A 
ATOM     11  C   UNL     1       0.151  -1.005   4.845  0.00  0.00    +0.040 A 
ATOM     12  C   UNL     1       0.131  -1.395   3.520  0.00  0.00    +0.053 A 
ATOM     13 CL   UNL     1       0.145  -3.081   3.108  0.00  0.00    -0.083 Cl
ATOM     14 CL   UNL     1       0.165   0.821   6.841  0.00  0.00    -0.083 Cl
ENDBRANCH   5   7
BRANCH   6  15
ATOM     15  N   UNL     1       0.031   1.365   0.007  0.00  0.00    -0.295 N 
ATOM     16  H   UNL     1       0.968   1.739  -0.008  0.00  0.00    +0.163 HD
ATOM     17  H   UNL     1      -0.513   1.723  -0.763  0.00  0.00    +0.163 HD
ENDBRANCH   6  15
ENDBRANCH   1   2
BRANCH   1  18
ATOM     18  C   UNL     1      -0.007  -1.931  -3.593  0.00  0.00    +0.173 C 
BRANCH  18  20
ATOM     19  N   UNL     1      -0.048  -2.814  -5.904  0.00  0.00    -0.284 N 
ATOM     20  C   UNL     1      -0.044  -1.741  -5.088  0.00  0.00    +0.228 C 
ATOM     21  O   UNL     1      -0.070  -0.623  -5.556  0.00  0.00    -0.275 OA
ATOM     22  H   UNL     1       0.038  -3.706  -5.532  0.00  0.00    +0.155 HD
BRANCH  19  27
ATOM     23  C   UNL     1       0.265  -1.370  -9.273  0.00  0.00    +0.002 A 
ATOM     24  C   UNL     1      -0.432  -2.297 -10.027  0.00  0.00    +0.001 A 
ATOM     25  C   UNL     1      -1.004  -3.398  -9.419  0.00  0.00    +0.017 A 
ATOM     26  C   UNL     1      -0.880  -3.576  -8.048  0.00  0.00    +0.034 A 
ATOM     27  C   UNL     1      -0.177  -2.641  -7.288  0.00  0.00    +0.047 A 
ATOM     28  C   UNL     1       0.389  -1.536  -7.907  0.00  0.00    +0.024 A 
BRANCH  26  29
ATOM     29  S   UNL     1      -1.609  -4.979  -7.269  0.00  0.00    -0.054 S 
BRANCH  29  30
ATOM     30  C   UNL     1      -2.394  -5.880  -8.634  0.00  0.00    +0.404 C 
ATOM     31  F   UNL     1      -3.349  -5.061  -9.246  0.00  0.00    -0.197 F 
ATOM     32  F   UNL     1      -1.422  -6.244  -9.572  0.00  0.00    -0.197 F 
ENDBRANCH  29  30
ENDBRANCH  26  29
ENDBRANCH  19  27
ENDBRANCH  18  20
ENDBRANCH   1  18
TORSDOF 8
