REMARK  Name = ZINC39984121
REMARK  8 active torsions:
REMARK  status: ('A' for Active; 'I' for Inactive)
REMARK    1  A    between atoms: C_1  and  C_2
REMARK    2  A    between atoms: N_4  and  C_5
REMARK    3  A    between atoms: C_8  and  S_11
REMARK    4  A    between atoms: S_11  and  N_14
REMARK    5  A    between atoms: C_16  and  N_26
REMARK    6  A    between atoms: N_26  and  C_27
REMARK    7  A    between atoms: C_30  and  S_33
REMARK    8  A    between atoms: S_33  and  C_34
REMARK                            x       y       z     vdW  Elec       q    Type
REMARK                         _______ _______ _______ _____ _____    ______ ____
ROOT
ATOM      1  N   UNL     1      -0.954  -6.905   2.039  0.00  0.00    -0.110 NA
ATOM      2  C   UNL     1      -0.868  -8.168   2.339  0.00  0.00    +0.192 C 
ATOM      3  C   UNL     1      -0.867  -8.614   3.784  0.00  0.00    +0.237 C 
ATOM      4  N   UNL     1      -0.768 -10.057   4.056  0.00  0.00    -0.359 N 
ATOM      5  C   UNL     1      -0.686 -10.877   3.046  0.00  0.00    +0.063 A 
ATOM      6  C   UNL     1      -0.585 -12.328   3.265  0.00  0.00    +0.027 A 
ATOM      7  C   UNL     1      -0.502 -13.146   2.193  0.00  0.00    +0.002 A 
ATOM      8  C   UNL     1      -0.509 -12.646   0.880  0.00  0.00    +0.002 A 
ATOM      9  C   UNL     1      -0.599 -11.327   0.601  0.00  0.00    +0.030 A 
ATOM     10  C   UNL     1      -0.692 -10.377   1.649  0.00  0.00    +0.089 A 
ATOM     11  N   UNL     1      -0.784  -9.094   1.371  0.00  0.00    -0.226 NA
ATOM     12  H   UNL     1      -0.764 -10.390   4.967  0.00  0.00    +0.162 HD
ENDROOT
BRANCH   1  13
ATOM     13  S   UNL     1      -0.960  -6.430   0.453  0.00  0.00    +0.100 S 
ATOM     14  O   UNL     1      -2.163  -6.929  -0.116  0.00  0.00    -0.146 OA
ATOM     15  O   UNL     1       0.321  -6.749  -0.072  0.00  0.00    -0.146 OA
BRANCH  13  19
ATOM     16  C   UNL     1      -1.286  -1.913   0.411  0.00  0.00    +0.033 A 
ATOM     17  C   UNL     1      -0.037  -2.520   0.438  0.00  0.00    +0.025 A 
ATOM     18  C   UNL     1       0.059  -3.898   0.451  0.00  0.00    +0.031 A 
ATOM     19  C   UNL     1      -1.087  -4.672   0.437  0.00  0.00    +0.113 A 
ATOM     20  C   UNL     1      -2.331  -4.070   0.408  0.00  0.00    +0.031 A 
ATOM     21  C   UNL     1      -2.434  -2.693   0.402  0.00  0.00    +0.025 A 
BRANCH  16  25
ATOM     22  C   UNL     1      -2.444   1.597   1.128  0.00  0.00    +0.109 C 
ATOM     23  C   UNL     1      -2.394   0.092   1.053  0.00  0.00    +0.214 C 
ATOM     24  O   UNL     1      -3.261  -0.570   1.582  0.00  0.00    -0.276 OA
ATOM     25  N   UNL     1      -1.386  -0.517   0.398  0.00  0.00    -0.286 N 
ATOM     26  H   UNL     1      -0.730   0.012  -0.083  0.00  0.00    +0.155 HD
ENDBRANCH  16  25
ENDBRANCH  13  19
ENDBRANCH   1  13
BRANCH   3  27
ATOM     27  N   UNL     1       0.255  -7.955   4.455  0.00  0.00    -0.318 N 
ATOM     28  H   UNL     1       1.120  -7.904   4.018  0.00  0.00    +0.148 HD
BRANCH  27  29
ATOM     29  C   UNL     1       0.080  -7.399   5.727  0.00  0.00    +0.029 A 
ATOM     30  C   UNL     1       1.164  -6.849   6.400  0.00  0.00    +0.024 A 
ATOM     31  C   UNL     1       0.992  -6.301   7.655  0.00  0.00    +0.017 A 
ATOM     32  C   UNL     1      -0.266  -6.298   8.245  0.00  0.00    +0.023 A 
ATOM     33  C   UNL     1      -1.349  -6.848   7.573  0.00  0.00    +0.017 A 
ATOM     34  C   UNL     1      -1.178  -7.391   6.315  0.00  0.00    +0.024 A 
BRANCH  32  35
ATOM     35  S   UNL     1      -0.486  -5.598   9.847  0.00  0.00    -0.010 S 
BRANCH  35  36
ATOM     36  C   UNL     1      -2.220  -5.820  10.179  0.00  0.00    +0.138 C 
ATOM     37  N   UNL     1      -3.326  -5.961  10.391  0.00  0.00    -0.183 NA
ENDBRANCH  35  36
ENDBRANCH  32  35
ENDBRANCH  27  29
ENDBRANCH   3  27
TORSDOF 7
