REMARK  Name = ZINC63383531
REMARK  6 active torsions:
REMARK  status: ('A' for Active; 'I' for Inactive)
REMARK    1  A    between atoms: C_1  and  C_2
REMARK    2  A    between atoms: C_2  and  C_3
REMARK    3  A    between atoms: C_3  and  C_4
REMARK    4  A    between atoms: C_4  and  N_5
REMARK    5  A    between atoms: C_10  and  C_28
REMARK    6  A    between atoms: C_28  and  C_29
REMARK                            x       y       z     vdW  Elec       q    Type
REMARK                         _______ _______ _______ _____ _____    ______ ____
ROOT
ATOM      1  N   UNL     1      -2.787  -2.571   0.015  0.00  0.00    -0.242 N 
ATOM      2  C   UNL     1      -3.457  -2.822   1.146  0.00  0.00    +0.227 C 
ATOM      3  O   UNL     1      -3.021  -2.669   2.267  0.00  0.00    -0.275 OA
ATOM      4  C   UNL     1      -4.841  -3.325   0.808  0.00  0.00    +0.107 C 
ATOM      5  C   UNL     1      -4.965  -4.803   1.231  0.00  0.00    +0.072 C 
ATOM      6  N   UNL     1      -4.453  -5.577   0.069  0.00  0.00    -0.295 NA
ATOM      7  C   UNL     1      -4.953  -4.839  -1.106  0.00  0.00    +0.136 C 
ATOM      8  C   UNL     1      -4.850  -3.336  -0.747  0.00  0.00    +0.122 C 
ATOM      9  C   UNL     1      -3.476  -2.815  -1.105  0.00  0.00    +0.228 C 
ATOM     10  O   UNL     1      -3.063  -2.647  -2.233  0.00  0.00    -0.275 OA
ATOM     11  C   UNL     1      -6.366  -5.225  -1.440  0.00  0.00    +0.005 A 
ATOM     12  C   UNL     1      -7.552  -5.176  -0.743  0.00  0.00    +0.008 A 
ATOM     13  C   UNL     1      -8.723  -5.616  -1.334  0.00  0.00    +0.002 A 
ATOM     14  C   UNL     1      -8.699  -6.104  -2.628  0.00  0.00    +0.022 A 
ATOM     15  C   UNL     1      -7.512  -6.155  -3.332  0.00  0.00    +0.062 A 
ATOM     16  C   UNL     1      -6.329  -5.714  -2.742  0.00  0.00    +0.057 A 
ATOM     17  N   UNL     1      -5.024  -5.666  -3.239  0.00  0.00    -0.282 N 
ATOM     18  C   UNL     1      -4.156  -5.165  -2.339  0.00  0.00    +0.243 C 
ATOM     19  O   UNL     1      -2.963  -5.006  -2.494  0.00  0.00    -0.273 OA
ATOM     20 CL   UNL     1      -7.494  -6.771  -4.955  0.00  0.00    -0.082 Cl
ATOM     21  H   UNL     1      -3.444  -5.610   0.073  0.00  0.00    +0.124 HD
ATOM     22  H   UNL     1      -4.772  -5.959  -4.129  0.00  0.00    +0.155 HD
ENDROOT
BRANCH   1  23
ATOM     23  C   UNL     1      -1.413  -2.063   0.004  0.00  0.00    +0.116 C 
BRANCH  23  24
ATOM     24  C   UNL     1      -1.433  -0.534   0.013  0.00  0.00    +0.019 C 
BRANCH  24  26
ATOM     25  C   UNL     1      -0.019   1.526   0.010  0.00  0.00    +0.004 C 
ATOM     26  C   UNL     1       0.002  -0.004   0.002  0.00  0.00    -0.002 C 
ENDBRANCH  24  26
ENDBRANCH  23  24
ENDBRANCH   1  23
BRANCH   5  27
ATOM     27  C   UNL     1      -4.113  -5.075   2.472  0.00  0.00    +0.052 C 
BRANCH  27  28
ATOM     28  C   UNL     1      -4.343  -6.489   2.939  0.00  0.00    -0.040 C 
ATOM     29  C   UNL     1      -3.597  -7.577   2.639  0.00  0.00    -0.001 A 
ATOM     30  C   UNL     1      -2.395  -7.762   1.817  0.00  0.00    +0.010 A 
ATOM     31  C   UNL     1      -1.863  -9.000   1.702  0.00  0.00    +0.001 A 
ATOM     32  C   UNL     1      -2.430 -10.108   2.345  0.00  0.00    +0.002 A 
ATOM     33  C   UNL     1      -3.534 -10.018   3.117  0.00  0.00    +0.026 A 
ATOM     34  C   UNL     1      -4.176  -8.763   3.308  0.00  0.00    +0.043 A 
ATOM     35  N   UNL     1      -5.239  -8.422   3.996  0.00  0.00    -0.380 N 
ATOM     36  C   UNL     1      -5.450  -6.978   3.845  0.00  0.00    +0.144 C 
ATOM     37  H   UNL     1      -5.791  -9.024   4.521  0.00  0.00    +0.160 HD
ENDBRANCH  27  28
ENDBRANCH   5  27
TORSDOF 5
