REMARK  Name = ZINC13644234
REMARK  6 active torsions:
REMARK  status: ('A' for Active; 'I' for Inactive)
REMARK    1  A    between atoms: C_8  and  C_12
REMARK    2  A    between atoms: C_12  and  C_13
REMARK    3  A    between atoms: C_13  and  N_14
REMARK    4  A    between atoms: C_15  and  C_17
REMARK    5  A    between atoms: C_21  and  C_30
REMARK    6  A    between atoms: C_23  and  C_26
REMARK                            x       y       z     vdW  Elec       q    Type
REMARK                         _______ _______ _______ _____ _____    ______ ____
ROOT
ATOM      1  N   UNL     1       7.760   3.722  -1.385  0.00  0.00    -0.310 N 
ATOM      2  C   UNL     1       6.890   2.827  -1.893  0.00  0.00    +0.264 C 
ATOM      3  O   UNL     1       7.213   2.135  -2.839  0.00  0.00    -0.268 OA
ATOM      4  H   UNL     1       7.502   4.274  -0.630  0.00  0.00    +0.149 HD
ENDROOT
BRANCH   2   5
ATOM      5  C   UNL     1       5.542   2.687  -1.301  0.00  0.00    +0.150 A 
ATOM      6  C   UNL     1       4.549   1.801  -1.732  0.00  0.00    +0.083 A 
ATOM      7  C   UNL     1       3.443   1.983  -0.917  0.00  0.00    +0.157 A 
ATOM      8  N   UNL     1       2.235   1.401  -0.890  0.00  0.00    -0.232 NA
ATOM      9  C   UNL     1       1.338   1.754  -0.001  0.00  0.00    +0.049 A 
ATOM     10  C   UNL     1       1.628   2.756   0.938  0.00  0.00    +0.056 A 
ATOM     11  C   UNL     1       2.846   3.348   0.926  0.00  0.00    +0.149 A 
ATOM     12  N   UNL     1       3.764   2.962  -0.010  0.00  0.00    -0.209 N 
ATOM     13  N   UNL     1       5.074   3.379  -0.274  0.00  0.00    -0.160 NA
BRANCH  11  14
ATOM     14  C   UNL     1       3.183   4.421   1.928  0.00  0.00    +0.434 C 
ATOM     15  F   UNL     1       2.828   5.671   1.410  0.00  0.00    -0.164 F 
ATOM     16  F   UNL     1       2.478   4.190   3.114  0.00  0.00    -0.164 F 
ATOM     17  F   UNL     1       4.557   4.399   2.192  0.00  0.00    -0.164 F 
ENDBRANCH  11  14
BRANCH   9  18
ATOM     18  C   UNL     1      -0.013   1.086   0.008  0.00  0.00    +0.038 C 
ATOM     19  C   UNL     1      -1.136   1.773   0.788  0.00  0.00    +0.010 C 
ATOM     20  C   UNL     1      -1.150   1.781  -0.743  0.00  0.00    +0.010 C 
ENDBRANCH   9  18
ENDBRANCH   2   5
BRANCH   1  21
ATOM     21  C   UNL     1       9.095   3.860  -1.972  0.00  0.00    +0.109 C 
BRANCH  21  22
ATOM     22  C   UNL     1       9.876   4.935  -1.214  0.00  0.00    +0.056 C 
BRANCH  22  30
ATOM     23  C   UNL     1      12.917   7.216  -5.033  0.00  0.00    +0.022 A 
ATOM     24  C   UNL     1      13.635   6.383  -4.203  0.00  0.00    +0.027 A 
ATOM     25  C   UNL     1      12.994   5.718  -3.164  0.00  0.00    +0.047 A 
ATOM     26  C   UNL     1      11.611   5.899  -2.975  0.00  0.00    +0.004 A 
ATOM     27  C   UNL     1      10.898   6.750  -3.821  0.00  0.00    +0.030 A 
ATOM     28  C   UNL     1      11.553   7.400  -4.844  0.00  0.00    +0.042 A 
ATOM     29 CL   UNL     1      10.669   8.455  -5.903  0.00  0.00    -0.084 Cl
ATOM     30  C   UNL     1      11.250   5.078  -1.817  0.00  0.00    -0.021 A 
ATOM     31  C   UNL     1      12.372   4.472  -1.400  0.00  0.00    +0.087 A 
ATOM     32  N   UNL     1      13.425   4.842  -2.192  0.00  0.00    -0.360 N 
ATOM     33  H   UNL     1      14.338   4.533  -2.085  0.00  0.00    +0.165 HD
ENDBRANCH  22  30
ENDBRANCH  21  22
ENDBRANCH   1  21
TORSDOF 6
