REMARK  Name = ZINC65074854
REMARK  9 active torsions:
REMARK  status: ('A' for Active; 'I' for Inactive)
REMARK    1  A    between atoms: C_1  and  C_2
REMARK    2  A    between atoms: C_2  and  C_3
REMARK    3  A    between atoms: C_2  and  C_4
REMARK    4  A    between atoms: C_7  and  S_10
REMARK    5  A    between atoms: S_10  and  N_13
REMARK    6  A    between atoms: N_24  and  C_25
REMARK    7  A    between atoms: C_25  and  C_26
REMARK    8  A    between atoms: C_30  and  O_32
REMARK    9  A    between atoms: O_32  and  C_33
REMARK                            x       y       z     vdW  Elec       q    Type
REMARK                         _______ _______ _______ _____ _____    ______ ____
ROOT
ATOM      1  N   UNL     1       3.955  -0.808  -5.364  0.00  0.00    -0.176 NA
ATOM      2  C   UNL     1       3.610   0.304  -6.259  0.00  0.00    +0.111 C 
ATOM      3  C   UNL     1       4.617   0.341  -7.412  0.00  0.00    +0.047 C 
ATOM      4  C   UNL     1       6.037   0.413  -6.842  0.00  0.00    +0.075 C 
ATOM      5  C   UNL     1       6.311  -0.836  -6.001  0.00  0.00    +0.047 C 
ATOM      6  C   UNL     1       5.321  -0.884  -4.827  0.00  0.00    +0.111 C 
ATOM      7  C   UNL     1       7.027   0.488  -7.969  0.00  0.00    +0.089 C 
ATOM      8  N   UNL     1       7.622   1.566  -8.318  0.00  0.00    -0.374 N 
ATOM      9  C   UNL     1       7.420   2.853  -7.660  0.00  0.00    +0.129 C 
ATOM     10  C   UNL     1       6.139   2.821  -6.824  0.00  0.00    +0.102 C 
ATOM     11  N   UNL     1       6.156   1.607  -5.991  0.00  0.00    -0.303 NA
ATOM     12  N   UNL     1       7.310  -0.660  -8.660  0.00  0.00    -0.329 N 
ATOM     13  H   UNL     1       5.422   1.632  -5.299  0.00  0.00    +0.123 HD
ATOM     14  H   UNL     1       6.874  -1.492  -8.417  0.00  0.00    +0.147 HD
ATOM     15  H   UNL     1       8.242   1.525  -9.062  0.00  0.00    +0.161 HD
ENDROOT
BRANCH   1  16
ATOM     16  S   UNL     1       2.826  -1.950  -4.962  0.00  0.00    +0.061 S 
ATOM     17  O   UNL     1       3.544  -3.118  -4.589  0.00  0.00    -0.153 OA
ATOM     18  O   UNL     1       1.860  -1.951  -6.005  0.00  0.00    -0.153 OA
BRANCH  16  22
ATOM     19  C   UNL     1       0.707  -0.490  -1.238  0.00  0.00    -0.045 A 
ATOM     20  C   UNL     1       0.222  -0.151  -2.487  0.00  0.00    +0.006 A 
ATOM     21  C   UNL     1       0.869  -0.597  -3.624  0.00  0.00    +0.029 A 
ATOM     22  C   UNL     1       2.002  -1.381  -3.513  0.00  0.00    +0.105 A 
ATOM     23  C   UNL     1       2.488  -1.720  -2.263  0.00  0.00    +0.029 A 
ATOM     24  C   UNL     1       1.843  -1.270  -1.126  0.00  0.00    +0.006 A 
BRANCH  19  26
ATOM     25  C   UNL     1      -0.019   1.526   0.010  0.00  0.00    +0.012 C 
ATOM     26  C   UNL     1       0.002  -0.004   0.002  0.00  0.00    +0.013 C 
ATOM     27  C   UNL     1      -1.433  -0.534   0.013  0.00  0.00    +0.012 C 
ENDBRANCH  19  26
ENDBRANCH  16  22
ENDBRANCH   1  16
BRANCH  12  28
ATOM     28  C   UNL     1       8.270  -0.632  -9.766  0.00  0.00    +0.138 C 
BRANCH  28  29
ATOM     29  C   UNL     1       8.400  -2.014 -10.354  0.00  0.00    -0.027 A 
ATOM     30  C   UNL     1       9.345  -2.891  -9.854  0.00  0.00    +0.005 A 
ATOM     31  C   UNL     1       9.466  -4.159 -10.391  0.00  0.00    +0.004 A 
ATOM     32  C   UNL     1       8.644  -4.553 -11.429  0.00  0.00    +0.045 A 
ATOM     33  C   UNL     1       7.695  -3.675 -11.932  0.00  0.00    +0.120 A 
ATOM     34  C   UNL     1       7.571  -2.405 -11.388  0.00  0.00    +0.050 A 
BRANCH  33  35
ATOM     35  O   UNL     1       6.885  -4.060 -12.953  0.00  0.00    -0.495 OA
ATOM     36  C   UNL     1       7.066  -5.384 -13.460  0.00  0.00    +0.277 C 
ENDBRANCH  33  35
ENDBRANCH  28  29
ENDBRANCH  12  28
TORSDOF 6
