REMARK  Name = ZINC14468033
REMARK  7 active torsions:
REMARK  status: ('A' for Active; 'I' for Inactive)
REMARK    1  A    between atoms: C_1  and  O_2
REMARK    2  A    between atoms: O_2  and  C_3
REMARK    3  A    between atoms: C_3  and  C_4
REMARK    4  A    between atoms: C_4  and  N_5
REMARK    5  A    between atoms: C_6  and  C_8
REMARK    6  A    between atoms: C_21  and  C_24
REMARK    7  A    between atoms: C_29  and  O_30
REMARK                            x       y       z     vdW  Elec       q    Type
REMARK                         _______ _______ _______ _____ _____    ______ ____
ROOT
ATOM      1  C   UNL     1       4.817   0.587   1.930  0.00  0.00    +0.037 A 
ATOM      2  C   UNL     1       5.086   0.574   0.558  0.00  0.00    +0.015 A 
ATOM      3  C   UNL     1       4.656   1.617  -0.228  0.00  0.00    +0.024 A 
ATOM      4  C   UNL     1       3.957   2.680   0.339  0.00  0.00    +0.031 A 
ATOM      5  C   UNL     1       3.686   2.704   1.702  0.00  0.00    -0.019 A 
ATOM      6  C   UNL     1       4.118   1.654   2.493  0.00  0.00    +0.019 A 
ATOM      7  C   UNL     1       2.942   3.829   2.351  0.00  0.00    +0.049 C 
ATOM      8  C   UNL     1       1.526   3.429   2.691  0.00  0.00    -0.023 C 
ATOM      9  C   UNL     1       0.709   4.444   2.509  0.00  0.00    -0.030 C 
ATOM     10  C   UNL     1       1.475   5.661   2.029  0.00  0.00    +0.033 C 
ATOM     11  C   UNL     1       2.776   5.054   1.427  0.00  0.00    +0.029 C 
ATOM     12  C   UNL     1       2.447   4.590   0.005  0.00  0.00    +0.109 C 
ATOM     13  N   UNL     1       3.529   3.725  -0.477  0.00  0.00    -0.336 N 
ATOM     14  H   UNL     1       3.937   3.876  -1.344  0.00  0.00    +0.147 HD
ENDROOT
BRANCH  12  15
ATOM     15  C   UNL     1       1.151   3.821   0.012  0.00  0.00    +0.017 A 
ATOM     16  C   UNL     1       1.159   2.455   0.222  0.00  0.00    +0.029 A 
ATOM     17  C   UNL     1      -0.030   1.748   0.230  0.00  0.00    +0.043 A 
ATOM     18  C   UNL     1      -1.229   2.406   0.021  0.00  0.00    +0.043 A 
ATOM     19  C   UNL     1      -1.242   3.772  -0.184  0.00  0.00    +0.084 A 
ATOM     20  C   UNL     1      -0.049   4.483  -0.191  0.00  0.00    +0.140 A 
ATOM     21 CL   UNL     1      -2.748   4.599  -0.438  0.00  0.00    -0.080 Cl
ATOM     22 CL   UNL     1      -0.017   0.032   0.494  0.00  0.00    -0.083 Cl
BRANCH  20  23
ATOM     23  O   UNL     1      -0.059   5.827  -0.398  0.00  0.00    -0.505 OA
ATOM     24  H   UNL     1       0.012   6.083  -1.327  0.00  0.00    +0.292 HD
ENDBRANCH  20  23
ENDBRANCH  12  15
BRANCH   1  26
ATOM     25  N   UNL     1       5.950  -1.559   2.238  0.00  0.00    -0.309 N 
ATOM     26  C   UNL     1       5.274  -0.527   2.782  0.00  0.00    +0.244 C 
ATOM     27  O   UNL     1       5.040  -0.516   3.976  0.00  0.00    -0.270 OA
ATOM     28  H   UNL     1       6.137  -1.568   1.286  0.00  0.00    +0.149 HD
BRANCH  25  29
ATOM     29  C   UNL     1       6.404  -2.665   3.085  0.00  0.00    +0.132 C 
BRANCH  29  30
ATOM     30  C   UNL     1       7.140  -3.696   2.226  0.00  0.00    +0.178 C 
BRANCH  30  32
ATOM     31  C   UNL     1       9.097  -3.994   0.875  0.00  0.00    +0.194 C 
ATOM     32  O   UNL     1       8.332  -3.111   1.697  0.00  0.00    -0.381 OA
ENDBRANCH  30  32
ENDBRANCH  29  30
ENDBRANCH  25  29
ENDBRANCH   1  26
TORSDOF 6
