REMARK  Name = ZINC40036361
REMARK  11 active torsions:
REMARK  status: ('A' for Active; 'I' for Inactive)
REMARK    1  A    between atoms: C_1  and  C_2
REMARK    2  A    between atoms: C_2  and  C_3
REMARK    3  A    between atoms: C_3  and  C_4
REMARK    4  A    between atoms: C_4  and  C_39
REMARK    5  A    between atoms: N_16  and  C_32
REMARK    6  A    between atoms: N_19  and  N_20
REMARK    7  A    between atoms: C_21  and  C_22
REMARK    8  A    between atoms: C_23  and  C_24
REMARK    9  A    between atoms: C_29  and  O_30
REMARK   10  A    between atoms: O_30  and  C_31
REMARK   11  A    between atoms: C_35  and  C_38
REMARK                            x       y       z     vdW  Elec       q    Type
REMARK                         _______ _______ _______ _____ _____    ______ ____
ROOT
ATOM      1  C   UNL     1       0.989  -2.913  -1.500  0.00  0.00    +0.004 C 
ATOM      2  C   UNL     1       1.473  -3.270  -2.903  0.00  0.00    +0.047 C 
ATOM      3  C   UNL     1       0.691  -2.513  -3.942  0.00  0.00    -0.037 A 
ATOM      4  C   UNL     1       1.305  -2.072  -5.096  0.00  0.00    +0.004 A 
ATOM      5  C   UNL     1       0.577  -1.380  -6.048  0.00  0.00    +0.000 A 
ATOM      6  C   UNL     1      -0.768  -1.125  -5.851  0.00  0.00    +0.001 A 
ATOM      7  C   UNL     1      -1.395  -1.558  -4.700  0.00  0.00    +0.010 A 
ATOM      8  C   UNL     1      -0.666  -2.253  -3.739  0.00  0.00    +0.004 A 
ATOM      9  C   UNL     1      -1.307  -2.723  -2.490  0.00  0.00    +0.084 A 
ATOM     10  C   UNL     1      -0.505  -3.047  -1.405  0.00  0.00    +0.050 A 
ATOM     11  C   UNL     1      -1.112  -3.498  -0.227  0.00  0.00    +0.264 A 
ATOM     12  O   UNL     1      -0.439  -3.795   0.747  0.00  0.00    -0.267 OA
ATOM     13  N   UNL     1      -2.459  -3.598  -0.191  0.00  0.00    -0.248 N 
ATOM     14  C   UNL     1      -3.202  -3.261  -1.284  0.00  0.00    +0.223 A 
ATOM     15  N   UNL     1      -2.636  -2.838  -2.396  0.00  0.00    -0.214 NA
ATOM     16  N   UNL     1      -4.567  -3.366  -1.225  0.00  0.00    -0.206 N 
ATOM     17  C   UNL     1       1.645  -3.852  -0.486  0.00  0.00    +0.017 C 
ATOM     18  H   UNL     1      -5.000  -3.604  -0.390  0.00  0.00    +0.177 HD
ENDROOT
BRANCH  13  19
ATOM     19  C   UNL     1      -3.094  -4.050   0.972  0.00  0.00    +0.053 A 
ATOM     20  C   UNL     1      -3.363  -5.402   1.138  0.00  0.00    +0.026 A 
ATOM     21  C   UNL     1      -3.990  -5.845   2.287  0.00  0.00    +0.005 A 
ATOM     22  C   UNL     1      -4.350  -4.943   3.271  0.00  0.00    -0.050 A 
ATOM     23  C   UNL     1      -4.084  -3.595   3.109  0.00  0.00    +0.005 A 
ATOM     24  C   UNL     1      -3.452  -3.147   1.965  0.00  0.00    +0.026 A 
ATOM     25  C   UNL     1      -5.034  -5.429   4.523  0.00  0.00    +0.044 C 
ENDBRANCH  13  19
BRANCH  16  26
ATOM     26  N   UNL     1      -5.338  -3.128  -2.370  0.00  0.00    -0.188 NA
ATOM     27  C   UNL     1      -6.636  -3.228  -2.314  0.00  0.00    +0.130 C 
BRANCH  27  28
ATOM     28  C   UNL     1      -7.416  -2.988  -3.473  0.00  0.00    +0.022 C 
ATOM     29  C   UNL     1      -8.760  -3.091  -3.415  0.00  0.00    +0.013 C 
BRANCH  29  30
ATOM     30  C   UNL     1      -9.570  -2.842  -4.617  0.00  0.00    +0.017 A 
ATOM     31  C   UNL     1      -8.951  -2.504  -5.824  0.00  0.00    +0.011 A 
ATOM     32  C   UNL     1      -9.716  -2.273  -6.947  0.00  0.00    +0.001 A 
ATOM     33  C   UNL     1     -11.096  -2.374  -6.886  0.00  0.00    +0.004 A 
ATOM     34  C   UNL     1     -11.720  -2.707  -5.699  0.00  0.00    +0.046 A 
ATOM     35  C   UNL     1     -10.968  -2.949  -4.561  0.00  0.00    +0.127 A 
BRANCH  35  36
ATOM     36  O   UNL     1     -11.581  -3.282  -3.396  0.00  0.00    -0.495 OA
ATOM     37  C   UNL     1     -13.007  -3.371  -3.415  0.00  0.00    +0.277 C 
ENDBRANCH  35  36
ENDBRANCH  29  30
ENDBRANCH  27  28
ENDBRANCH  16  26
BRANCH   1  38
ATOM     38  C   UNL     1       1.387  -1.470  -1.182  0.00  0.00    +0.011 C 
BRANCH  38  40
ATOM     39  C   UNL     1       1.326   0.327   0.553  0.00  0.00    +0.004 C 
ATOM     40  C   UNL     1       0.929  -1.116   0.235  0.00  0.00    -0.003 C 
ENDBRANCH  38  40
ENDBRANCH   1  38
TORSDOF 7
