REMARK  Name = ZINC60343278
REMARK  8 active torsions:
REMARK  status: ('A' for Active; 'I' for Inactive)
REMARK    1  A    between atoms: C_1  and  C_2
REMARK    2  A    between atoms: C_2  and  O_3
REMARK    3  A    between atoms: O_3  and  C_4
REMARK    4  A    between atoms: C_4  and  C_6
REMARK    5  A    between atoms: C_12  and  C_16
REMARK    6  A    between atoms: C_16  and  N_17
REMARK    7  A    between atoms: N_17  and  C_18
REMARK    8  A    between atoms: C_18  and  C_24
REMARK                            x       y       z     vdW  Elec       q    Type
REMARK                         _______ _______ _______ _____ _____    ______ ____
ROOT
ATOM      1  C   UNL     1       1.009  -7.405   1.995  0.00  0.00    -0.025 C 
ENDROOT
BRANCH   1   8
ATOM      2  C   UNL     1       1.607  -2.547   2.771  0.00  0.00    +0.123 A 
ATOM      3  C   UNL     1       2.123  -1.891   3.906  0.00  0.00    +0.152 A 
ATOM      4  N   UNL     1       2.457  -2.789   4.793  0.00  0.00    -0.169 NA
ATOM      5  N   UNL     1       2.182  -4.066   4.293  0.00  0.00    -0.177 N 
ATOM      6  C   UNL     1       1.649  -3.929   3.043  0.00  0.00    +0.174 A 
ATOM      7  N   UNL     1       1.286  -4.998   2.333  0.00  0.00    -0.234 NA
ATOM      8  C   UNL     1       1.428  -6.215   2.818  0.00  0.00    +0.032 A 
ATOM      9  C   UNL     1       1.964  -6.404   4.090  0.00  0.00    +0.093 A 
ATOM     10  C   UNL     1       2.347  -5.315   4.824  0.00  0.00    +0.275 A 
ATOM     11  O   UNL     1       2.868  -5.470   6.062  0.00  0.00    -0.266 OA
BRANCH   2  12
ATOM     12  C   UNL     1       1.116  -1.915   1.547  0.00  0.00    +0.344 C 
ATOM     13  O   UNL     1       0.688  -2.600   0.637  0.00  0.00    -0.245 OA
BRANCH  12  14
ATOM     14  O   UNL     1       1.137  -0.571   1.426  0.00  0.00    -0.461 OA
BRANCH  14  16
ATOM     15  C   UNL     1       0.745   1.504   0.252  0.00  0.00    +0.048 C 
ATOM     16  C   UNL     1       0.642  -0.021   0.204  0.00  0.00    +0.229 C 
ENDBRANCH  14  16
ENDBRANCH  12  14
ENDBRANCH   2  12
ENDBRANCH   1   8
BRANCH   1  17
ATOM     17  N   UNL     1       0.480  -6.946   0.704  0.00  0.00    +0.389 N 
ATOM     18  H   UNL     1      -0.368  -6.419   0.856  0.00  0.00    -0.084 HD
ATOM     19  H   UNL     1       1.163  -6.359   0.250  0.00  0.00    -0.084 HD
BRANCH  17  20
ATOM     20  C   UNL     1       0.188  -8.107  -0.147  0.00  0.00    -0.042 C 
ATOM     21  C   UNL     1      -0.413  -7.631  -1.471  0.00  0.00    -0.008 C 
ATOM     22  C   UNL     1      -1.707  -6.862  -1.196  0.00  0.00    -0.001 C 
ATOM     23  C   UNL     1      -2.704  -7.780  -0.484  0.00  0.00    -0.000 C 
ATOM     24  C   UNL     1      -2.102  -8.256   0.839  0.00  0.00    -0.001 C 
ATOM     25  C   UNL     1      -0.808  -9.024   0.565  0.00  0.00    -0.008 C 
BRANCH  20  26
ATOM     26  C   UNL     1       1.463  -8.864  -0.418  0.00  0.00    -0.058 A 
ATOM     27  C   UNL     1       1.421 -10.223  -0.665  0.00  0.00    +0.004 A 
ATOM     28  C   UNL     1       2.589 -10.918  -0.913  0.00  0.00    +0.020 A 
ATOM     29  C   UNL     1       3.802 -10.252  -0.915  0.00  0.00    +0.041 A 
ATOM     30  C   UNL     1       3.844  -8.892  -0.667  0.00  0.00    +0.020 A 
ATOM     31  C   UNL     1       2.674  -8.197  -0.425  0.00  0.00    +0.004 A 
ATOM     32 CL   UNL     1       5.271 -11.124  -1.226  0.00  0.00    -0.084 Cl
ENDBRANCH  20  26
ENDBRANCH  17  20
ENDBRANCH   1  17
TORSDOF 7
