REMARK  Name = ZINC31053978
REMARK  9 active torsions:
REMARK  status: ('A' for Active; 'I' for Inactive)
REMARK    1  A    between atoms: C_1  and  C_2
REMARK    2  A    between atoms: C_2  and  C_4
REMARK    3  A    between atoms: C_2  and  N_14
REMARK    4  A    between atoms: C_7  and  S_10
REMARK    5  A    between atoms: S_10  and  C_13
REMARK    6  A    between atoms: C_15  and  C_17
REMARK    7  A    between atoms: N_22  and  C_24
REMARK    8  A    between atoms: C_24  and  C_25
REMARK    9  A    between atoms: C_27  and  C_30
REMARK                            x       y       z     vdW  Elec       q    Type
REMARK                         _______ _______ _______ _____ _____    ______ ____
ROOT
ATOM      1  C   UNL     1      -4.706   6.116   6.117  0.00  0.00    +0.058 C 
ATOM      2  C   UNL     1      -4.396   7.041   4.936  0.00  0.00    +0.009 C 
ATOM      3  C   UNL     1      -5.505   8.088   4.814  0.00  0.00    -0.018 C 
ATOM      4  C   UNL     1      -5.613   8.867   6.127  0.00  0.00    -0.078 C 
ATOM      5  N   UNL     1      -5.911   7.939   7.224  0.00  0.00    +0.386 N 
ATOM      6  C   UNL     1      -4.837   6.952   7.392  0.00  0.00    -0.065 C 
ATOM      7  H   UNL     1      -6.829   7.392   6.962  0.00  0.00    -0.081 HD
ENDROOT
BRANCH   1   9
ATOM      8  N   UNL     1      -3.287   4.273   5.277  0.00  0.00    -0.309 N 
ATOM      9  C   UNL     1      -3.588   5.119   6.282  0.00  0.00    +0.215 C 
ATOM     10  O   UNL     1      -2.961   5.077   7.319  0.00  0.00    -0.276 OA
ATOM     11  H   UNL     1      -3.856   4.311   4.337  0.00  0.00    +0.149 HD
BRANCH   8  13
ATOM     12  C   UNL     1      -2.734   2.050   6.136  0.00  0.00    +0.033 C 
ATOM     13  C   UNL     1      -2.200   3.303   5.437  0.00  0.00    +0.100 C 
BRANCH  13  14
ATOM     14  C   UNL     1      -1.657   2.929   4.082  0.00  0.00    -0.027 A 
ATOM     15  C   UNL     1      -0.295   2.771   3.904  0.00  0.00    +0.007 A 
ATOM     16  C   UNL     1       0.204   2.429   2.661  0.00  0.00    +0.027 A 
ATOM     17  C   UNL     1      -0.659   2.245   1.596  0.00  0.00    +0.088 A 
ATOM     18  C   UNL     1      -2.020   2.409   1.774  0.00  0.00    +0.027 A 
ATOM     19  C   UNL     1      -2.519   2.746   3.018  0.00  0.00    +0.007 A 
BRANCH  17  20
ATOM     20  S   UNL     1      -0.022   1.810   0.012  0.00  0.00    -0.006 S 
ATOM     21  O   UNL     1       1.305   2.317   0.002  0.00  0.00    -0.170 OA
ATOM     22  O   UNL     1      -0.989   2.291  -0.912  0.00  0.00    -0.170 OA
ATOM     23  C   UNL     1       0.002  -0.004   0.002  0.00  0.00    +0.200 C 
ENDBRANCH  17  20
ENDBRANCH  13  14
ENDBRANCH   8  13
ENDBRANCH   1   9
BRANCH   5  24
ATOM     24  C   UNL     1      -6.159   8.666   8.477  0.00  0.00    +0.022 C 
BRANCH  24  25
ATOM     25  C   UNL     1      -7.420   9.481   8.344  0.00  0.00    +0.211 A 
ATOM     26  N   UNL     1      -8.634   9.088   8.636  0.00  0.00    -0.193 NA
ATOM     27  C   UNL     1      -9.434  10.143   8.361  0.00  0.00    +0.202 A 
ATOM     28  N   UNL     1      -8.665  11.105   7.921  0.00  0.00    -0.056 NA
ATOM     29  O   UNL     1      -7.508  10.742   7.910  0.00  0.00    -0.340 OA
BRANCH  27  30
ATOM     30  C   UNL     1     -10.908  10.198   8.525  0.00  0.00    +0.024 A 
ATOM     31  C   UNL     1     -11.600   9.087   9.002  0.00  0.00    +0.012 A 
ATOM     32  C   UNL     1     -12.970   9.144   9.157  0.00  0.00    +0.002 A 
ATOM     33  C   UNL     1     -13.658  10.300   8.832  0.00  0.00    +0.020 A 
ATOM     34  C   UNL     1     -12.976  11.405   8.354  0.00  0.00    +0.042 A 
ATOM     35  C   UNL     1     -11.604  11.360   8.199  0.00  0.00    +0.031 A 
ATOM     36 CL   UNL     1     -13.847  12.851   7.948  0.00  0.00    -0.084 Cl
ENDBRANCH  27  30
ENDBRANCH  24  25
ENDBRANCH   5  24
TORSDOF 7
