REMARK  Name = ZINC11998523
REMARK  3 active torsions:
REMARK  status: ('A' for Active; 'I' for Inactive)
REMARK    1  A    between atoms: C_11  and  C_16
REMARK    2  A    between atoms: C_25  and  C_27
REMARK    3  A    between atoms: N_32  and  C_35
REMARK                            x       y       z     vdW  Elec       q    Type
REMARK                         _______ _______ _______ _____ _____    ______ ____
ROOT
ATOM      1  C   UNL     1      -9.506   9.837  -4.532  0.00  0.00    +0.224 C 
ATOM      2  O   UNL     1     -10.565   9.512  -5.026  0.00  0.00    -0.275 OA
ATOM      3  N   UNL     1      -8.593   8.897  -4.217  0.00  0.00    -0.301 N 
ATOM      4  C   UNL     1      -8.836   7.486  -4.545  0.00  0.00    +0.108 C 
ATOM      5  C   UNL     1      -8.754   6.658  -3.257  0.00  0.00    +0.026 C 
ATOM      6  C   UNL     1      -7.443   6.994  -2.538  0.00  0.00    -0.015 C 
ATOM      7  C   UNL     1      -7.231   8.480  -2.234  0.00  0.00    +0.026 C 
ATOM      8  C   UNL     1      -7.344   9.272  -3.543  0.00  0.00    +0.108 C 
ATOM      9  C   UNL     1      -6.211   6.157  -2.882  0.00  0.00    +0.021 C 
ATOM     10  C   UNL     1      -6.905   5.978  -1.530  0.00  0.00    +0.082 C 
ENDROOT
BRANCH   1  21
ATOM     11  C   UNL     1     -14.069  14.889  -4.480  0.00  0.00    +0.001 A 
ATOM     12  C   UNL     1     -14.640  13.883  -3.717  0.00  0.00    +0.002 A 
ATOM     13  C   UNL     1     -13.941  12.746  -3.350  0.00  0.00    +0.026 A 
ATOM     14  C   UNL     1     -12.618  12.653  -3.780  0.00  0.00    +0.047 A 
ATOM     15  C   UNL     1     -12.038  13.687  -4.558  0.00  0.00    +0.003 A 
ATOM     16  C   UNL     1     -12.770  14.823  -4.918  0.00  0.00    +0.010 A 
ATOM     17  C   UNL     1     -10.677  13.270  -4.824  0.00  0.00    -0.018 A 
ATOM     18  C   UNL     1     -10.504  12.071  -4.228  0.00  0.00    +0.032 A 
ATOM     19  N   UNL     1     -11.663  11.695  -3.599  0.00  0.00    -0.357 N 
ATOM     20  H   UNL     1     -11.785  10.872  -3.101  0.00  0.00    +0.166 HD
ATOM     21  C   UNL     1      -9.211  11.291  -4.271  0.00  0.00    +0.122 C 
ATOM     22  C   UNL     1      -8.340  11.851  -5.400  0.00  0.00    +0.019 C 
ATOM     23  C   UNL     1      -8.251  13.374  -5.269  0.00  0.00    +0.006 C 
ATOM     24  C   UNL     1      -9.611  13.993  -5.609  0.00  0.00    +0.037 C 
ENDBRANCH   1  21
BRANCH  10  25
ATOM     25  C   UNL     1      -6.202   6.515  -0.310  0.00  0.00    +0.219 C 
ATOM     26  O   UNL     1      -5.111   7.034  -0.418  0.00  0.00    -0.275 OA
ATOM     27  N   UNL     1      -6.785   6.418   0.901  0.00  0.00    -0.298 N 
ATOM     28  C   UNL     1      -6.115   6.935   2.104  0.00  0.00    +0.126 C 
ATOM     29  C   UNL     1      -6.107   5.832   3.168  0.00  0.00    +0.125 C 
ATOM     30  N   UNL     1      -7.478   5.349   3.379  0.00  0.00    -0.314 N 
ATOM     31  C   UNL     1      -8.020   4.735   2.160  0.00  0.00    +0.125 C 
ATOM     32  C   UNL     1      -8.107   5.793   1.055  0.00  0.00    +0.126 C 
BRANCH  30  33
ATOM     33  C   UNL     1      -7.535   4.465   4.450  0.00  0.00    +0.099 A 
ATOM     34  C   UNL     1      -8.752   3.891   4.806  0.00  0.00    +0.042 A 
ATOM     35  C   UNL     1      -8.796   3.017   5.877  0.00  0.00    +0.005 A 
ATOM     36  C   UNL     1      -7.615   2.736   6.552  0.00  0.00    +0.018 A 
ATOM     37  C   UNL     1      -6.442   3.337   6.141  0.00  0.00    +0.084 A 
ATOM     38  N   UNL     1      -6.363   4.205   5.097  0.00  0.00    -0.350 N 
ATOM     39  H   UNL     1      -5.476   4.637   4.814  0.00  0.00    +0.166 HD
ENDBRANCH  30  33
ENDBRANCH  10  25
TORSDOF 3
