REMARK  Name = ZINC40825220
REMARK  9 active torsions:
REMARK  status: ('A' for Active; 'I' for Inactive)
REMARK    1  A    between atoms: C_1  and  C_2
REMARK    2  A    between atoms: C_6  and  C_7
REMARK    3  A    between atoms: N_9  and  C_10
REMARK    4  A    between atoms: C_13  and  N_16
REMARK    5  A    between atoms: N_17  and  C_18
REMARK    6  A    between atoms: N_28  and  N_29
REMARK    7  A    between atoms: N_29  and  C_30
REMARK    8  A    between atoms: C_30  and  N_32
REMARK    9  A    between atoms: N_32  and  C_33
REMARK                            x       y       z     vdW  Elec       q    Type
REMARK                         _______ _______ _______ _____ _____    ______ ____
ROOT
ATOM      1  C   UNL     1       0.766   1.734   0.118  0.00  0.00    +0.048 C 
ATOM      2  C   UNL     1       0.625   0.236   0.201  0.00  0.00    +0.009 A 
ATOM      3  C   UNL     1       0.292  -0.635  -0.843  0.00  0.00    +0.042 A 
ATOM      4  C   UNL     1       0.273  -1.909  -0.326  0.00  0.00    +0.115 A 
ATOM      5  O   UNL     1       0.581  -1.834   0.967  0.00  0.00    -0.454 OA
ATOM      6  C   UNL     1       0.802  -0.544   1.309  0.00  0.00    +0.193 A 
ATOM      7  C   UNL     1      -0.053  -3.126  -1.155  0.00  0.00    +0.075 C 
ATOM      8  C   UNL     1      -0.824  -2.697  -2.407  0.00  0.00    +0.014 C 
ATOM      9  C   UNL     1      -0.065  -1.599  -3.159  0.00  0.00    +0.058 C 
ATOM     10  C   UNL     1      -0.004  -0.366  -2.268  0.00  0.00    +0.070 C 
ATOM     11  N   UNL     1      -0.197   0.833  -2.724  0.00  0.00    -0.185 NA
ENDROOT
BRANCH   6  12
ATOM     12  C   UNL     1       1.168  -0.064   2.646  0.00  0.00    +0.284 C 
ATOM     13  O   UNL     1       1.341   1.125   2.839  0.00  0.00    -0.266 OA
ATOM     14  N   UNL     1       1.313  -0.940   3.660  0.00  0.00    -0.279 N 
ATOM     15  H   UNL     1       1.115  -1.879   3.522  0.00  0.00    +0.155 HD
BRANCH  14  16
ATOM     16  C   UNL     1       1.747  -0.494   4.909  0.00  0.00    +0.034 A 
ATOM     17  C   UNL     1       1.358   0.758   5.373  0.00  0.00    +0.025 A 
ATOM     18  C   UNL     1       1.784   1.201   6.605  0.00  0.00    +0.031 A 
ATOM     19  C   UNL     1       2.610   0.390   7.390  0.00  0.00    +0.086 A 
ATOM     20  C   UNL     1       2.999  -0.869   6.920  0.00  0.00    +0.031 A 
ATOM     21  C   UNL     1       2.564  -1.307   5.689  0.00  0.00    +0.025 A 
BRANCH  19  22
ATOM     22  N   UNL     1       3.035   0.825   8.612  0.00  0.00    -0.149 NA
ATOM     23  N   UNL     1       3.796   0.076   9.335  0.00  0.00    -0.149 NA
BRANCH  23  24
ATOM     24  C   UNL     1       4.222   0.512  10.558  0.00  0.00    +0.086 A 
ATOM     25  C   UNL     1       3.831   1.767  11.031  0.00  0.00    +0.029 A 
ATOM     26  C   UNL     1       4.264   2.200  12.267  0.00  0.00    +0.002 A 
ATOM     27  C   UNL     1       5.085   1.396  13.037  0.00  0.00    +0.000 A 
ATOM     28  C   UNL     1       5.478   0.152  12.575  0.00  0.00    +0.002 A 
ATOM     29  C   UNL     1       5.047  -0.297  11.344  0.00  0.00    +0.029 A 
ENDBRANCH  23  24
ENDBRANCH  19  22
ENDBRANCH  14  16
ENDBRANCH   6  12
BRANCH  11  30
ATOM     30  N   UNL     1      -0.473   1.029  -4.084  0.00  0.00    -0.218 N 
ATOM     31  H   UNL     1      -0.520   0.268  -4.684  0.00  0.00    +0.176 HD
BRANCH  30  32
ATOM     32  C   UNL     1      -0.674   2.274  -4.558  0.00  0.00    +0.154 C 
ATOM     33  S   UNL     1      -1.012   2.514  -6.219  0.00  0.00    -0.017 S 
BRANCH  32  34
ATOM     34  N   UNL     1      -0.609   3.331  -3.724  0.00  0.00    -0.296 N 
ATOM     35  H   UNL     1      -0.337   3.205  -2.802  0.00  0.00    +0.154 HD
BRANCH  34  36
ATOM     36  C   UNL     1      -0.933   4.610  -4.189  0.00  0.00    +0.033 A 
ATOM     37  C   UNL     1      -2.019   4.787  -5.037  0.00  0.00    +0.023 A 
ATOM     38  C   UNL     1      -2.337   6.051  -5.494  0.00  0.00    +0.002 A 
ATOM     39  C   UNL     1      -1.576   7.139  -5.109  0.00  0.00    +0.000 A 
ATOM     40  C   UNL     1      -0.494   6.966  -4.264  0.00  0.00    +0.002 A 
ATOM     41  C   UNL     1      -0.174   5.705  -3.799  0.00  0.00    +0.023 A 
ENDBRANCH  34  36
ENDBRANCH  32  34
ENDBRANCH  30  32
ENDBRANCH  11  30
TORSDOF 8
