REMARK  Name = ZINC39635174
REMARK  7 active torsions:
REMARK  status: ('A' for Active; 'I' for Inactive)
REMARK    1  A    between atoms: C_1  and  O_2
REMARK    2  A    between atoms: O_2  and  C_3
REMARK    3  A    between atoms: C_6  and  C_9
REMARK    4  A    between atoms: C_9  and  C_10
REMARK    5  A    between atoms: C_10  and  N_11
REMARK    6  A    between atoms: C_12  and  C_14
REMARK    7  A    between atoms: C_25  and  C_27
REMARK                            x       y       z     vdW  Elec       q    Type
REMARK                         _______ _______ _______ _____ _____    ______ ____
ROOT
ATOM      1  C   UNL     1       2.244  -4.478   8.810  0.00  0.00    +0.100 C 
ATOM      2  C   UNL     1       3.417  -3.611   9.322  0.00  0.00    +0.121 C 
ATOM      3  N   UNL     1       2.846  -2.836  10.448  0.00  0.00    -0.296 N 
ATOM      4  C   UNL     1       1.958  -3.797  11.145  0.00  0.00    +0.115 C 
ATOM      5  C   UNL     1       1.290  -4.600  10.011  0.00  0.00    -0.004 C 
ATOM      6  C   UNL     1      -0.069  -3.998   9.668  0.00  0.00    -0.010 C 
ATOM      7  C   UNL     1      -1.017  -4.182  10.857  0.00  0.00    -0.082 C 
ATOM      8  N   UNL     1      -1.155  -5.612  11.158  0.00  0.00    +0.379 N 
ATOM      9  C   UNL     1       0.140  -6.162  11.576  0.00  0.00    -0.082 C 
ATOM     10  C   UNL     1       1.137  -6.062  10.418  0.00  0.00    -0.010 C 
ATOM     11  C   UNL     1       3.081  -1.547  10.767  0.00  0.00    +0.252 C 
ATOM     12  O   UNL     1       2.532  -1.050  11.731  0.00  0.00    -0.270 OA
ATOM     13  H   UNL     1      -1.826  -5.734  11.902  0.00  0.00    -0.086 HD
ATOM     14  H   UNL     1      -1.476  -6.098  10.335  0.00  0.00    -0.086 HD
ENDROOT
BRANCH  11  15
ATOM     15  C   UNL     1       4.005  -0.741   9.947  0.00  0.00    +0.108 A 
ATOM     16  C   UNL     1       3.522  -0.010   8.856  0.00  0.00    +0.138 A 
ATOM     17  C   UNL     1       4.394   0.743   8.093  0.00  0.00    +0.041 A 
ATOM     18  C   UNL     1       5.742   0.775   8.404  0.00  0.00    +0.026 A 
ATOM     19  C   UNL     1       6.229   0.055   9.481  0.00  0.00    +0.077 A 
ATOM     20  C   UNL     1       5.368  -0.699  10.259  0.00  0.00    +0.156 A 
ATOM     21  F   UNL     1       5.844  -1.398  11.313  0.00  0.00    -0.203 F 
ATOM     22 CL   UNL     1       7.922   0.103   9.861  0.00  0.00    -0.081 Cl
ATOM     23  F   UNL     1       2.207  -0.040   8.549  0.00  0.00    -0.205 F 
ENDBRANCH  11  15
BRANCH   1  25
ATOM     24  N   UNL     1       0.926  -4.532   6.718  0.00  0.00    -0.315 N 
ATOM     25  C   UNL     1       1.552  -3.796   7.658  0.00  0.00    +0.218 C 
ATOM     26  O   UNL     1       1.559  -2.586   7.576  0.00  0.00    -0.275 OA
ATOM     27  H   UNL     1       0.921  -5.500   6.783  0.00  0.00    +0.149 HD
BRANCH  24  28
ATOM     28  C   UNL     1       0.254  -3.870   5.597  0.00  0.00    +0.109 C 
BRANCH  28  29
ATOM     29  C   UNL     1      -0.372  -4.925   4.682  0.00  0.00    +0.054 C 
BRANCH  29  33
ATOM     30  C   UNL     1      -2.333  -2.993   1.414  0.00  0.00    +0.120 A 
ATOM     31  C   UNL     1      -0.999  -3.356   1.307  0.00  0.00    +0.046 A 
ATOM     32  C   UNL     1      -0.367  -3.980   2.365  0.00  0.00    +0.007 A 
ATOM     33  C   UNL     1      -1.063  -4.243   3.530  0.00  0.00    -0.046 A 
ATOM     34  C   UNL     1      -2.394  -3.883   3.639  0.00  0.00    +0.007 A 
ATOM     35  C   UNL     1      -3.029  -3.253   2.586  0.00  0.00    +0.046 A 
BRANCH  30  37
ATOM     36  C   UNL     1      -2.179  -2.143  -0.801  0.00  0.00    +0.277 C 
ATOM     37  O   UNL     1      -2.957  -2.379   0.374  0.00  0.00    -0.495 OA
ENDBRANCH  30  37
ENDBRANCH  29  33
ENDBRANCH  28  29
ENDBRANCH  24  28
ENDBRANCH   1  25
TORSDOF 6
