REMARK  Name = ZINC01051544
REMARK  8 active torsions:
REMARK  status: ('A' for Active; 'I' for Inactive)
REMARK    1  A    between atoms: C_1  and  O_2
REMARK    2  A    between atoms: O_2  and  C_3
REMARK    3  A    between atoms: C_6  and  N_22
REMARK    4  A    between atoms: C_8  and  N_9
REMARK    5  A    between atoms: N_9  and  S_10
REMARK    6  A    between atoms: S_10  and  C_13
REMARK    7  A    between atoms: C_16  and  O_20
REMARK    8  A    between atoms: O_20  and  C_21
REMARK                            x       y       z     vdW  Elec       q    Type
REMARK                         _______ _______ _______ _____ _____    ______ ____
ROOT
ATOM      1  N   UNL     1      -4.907   1.188   0.031  0.00  0.00    -0.213 N 
ATOM      2  H   UNL     1      -5.652   1.509  -0.501  0.00  0.00    +0.174 HD
ENDROOT
BRANCH   1   8
ATOM      3  C   UNL     1      -3.899   3.371   0.303  0.00  0.00    +0.142 A 
ATOM      4  C   UNL     1      -2.771   4.157   0.469  0.00  0.00    +0.050 A 
ATOM      5  C   UNL     1      -1.521   3.568   0.539  0.00  0.00    +0.036 A 
ATOM      6  C   UNL     1      -1.393   2.196   0.431  0.00  0.00    +0.128 A 
ATOM      7  C   UNL     1      -2.513   1.404   0.265  0.00  0.00    +0.061 A 
ATOM      8  C   UNL     1      -3.771   1.987   0.200  0.00  0.00    +0.092 A 
BRANCH   6   9
ATOM      9  N   UNL     1      -0.052   1.573   0.500  0.00  0.00    +0.056 N 
ATOM     10  O   UNL     1       0.062   0.363   0.411  0.00  0.00    -0.126 OA
ATOM     11  O   UNL     1       0.937   2.269   0.642  0.00  0.00    -0.126 OA
ENDBRANCH   6   9
BRANCH   3  13
ATOM     12  C   UNL     1      -5.184   5.371   0.352  0.00  0.00    +0.277 C 
ATOM     13  O   UNL     1      -5.129   3.948   0.240  0.00  0.00    -0.493 OA
ENDBRANCH   3  13
ENDBRANCH   1   8
BRANCH   1  14
ATOM     14  S   UNL     1      -4.980  -0.307   0.740  0.00  0.00    +0.072 S 
ATOM     15  O   UNL     1      -6.289  -0.807   0.500  0.00  0.00    -0.150 OA
ATOM     16  O   UNL     1      -3.812  -1.006   0.335  0.00  0.00    -0.150 OA
BRANCH  14  17
ATOM     17  C   UNL     1      -4.845  -0.066   2.480  0.00  0.00    +0.110 A 
ATOM     18  C   UNL     1      -3.600  -0.073   3.083  0.00  0.00    +0.032 A 
ATOM     19  C   UNL     1      -3.491   0.121   4.447  0.00  0.00    +0.048 A 
ATOM     20  C   UNL     1      -4.632   0.312   5.213  0.00  0.00    +0.133 A 
ATOM     21  C   UNL     1      -5.880   0.313   4.606  0.00  0.00    +0.057 A 
ATOM     22  C   UNL     1      -5.983   0.125   3.241  0.00  0.00    +0.046 A 
ATOM     23  I   UNL     1      -7.605   0.601   5.759  0.00  0.00    -0.040 I 
BRANCH  20  24
ATOM     24  O   UNL     1      -4.527   0.497   6.555  0.00  0.00    -0.494 OA
ATOM     25  C   UNL     1      -3.210   0.484   7.111  0.00  0.00    +0.277 C 
ENDBRANCH  20  24
ENDBRANCH  14  17
ENDBRANCH   1  14
TORSDOF 6
