REMARK  Name = ZINC06723866
REMARK  3 active torsions:
REMARK  status: ('A' for Active; 'I' for Inactive)
REMARK    1  A    between atoms: C_5  and  N_7
REMARK    2  A    between atoms: C_13  and  C_16
REMARK    3  A    between atoms: C_16  and  C_17
REMARK                            x       y       z     vdW  Elec       q    Type
REMARK                         _______ _______ _______ _____ _____    ______ ____
ROOT
ATOM      1  N   UNL     1       3.561  -0.466  -0.034  0.00  0.00    -0.282 N 
ATOM      2  C   UNL     1       2.338   0.141   0.070  0.00  0.00    +0.220 A 
ATOM      3  N   UNL     1       1.228  -0.611   0.308  0.00  0.00    -0.292 N 
ATOM      4  H   UNL     1       1.295  -1.604   0.408  0.00  0.00    +0.172 HD
ATOM      5  C   UNL     1       0.032   0.014   0.406  0.00  0.00    +0.275 A 
ATOM      6  O   UNL     1      -0.990  -0.617   0.618  0.00  0.00    -0.266 OA
ATOM      7  C   UNL     1      -0.000   1.418   0.256  0.00  0.00    +0.132 A 
ATOM      8  N   UNL     1       1.117   2.067   0.028  0.00  0.00    -0.145 NA
ATOM      9  N   UNL     1       2.243   1.453  -0.061  0.00  0.00    -0.114 NA
ATOM     10  H   UNL     1       3.624  -1.433  -0.030  0.00  0.00    +0.155 HD
ENDROOT
BRANCH   1  15
ATOM     11  C   UNL     1       5.927   2.325   0.342  0.00  0.00    +0.002 A 
ATOM     12  C   UNL     1       7.012   1.847  -0.369  0.00  0.00    +0.003 A 
ATOM     13  C   UNL     1       6.956   0.603  -0.971  0.00  0.00    +0.040 A 
ATOM     14  C   UNL     1       5.813  -0.167  -0.862  0.00  0.00    +0.144 A 
ATOM     15  C   UNL     1       4.720   0.311  -0.147  0.00  0.00    +0.069 A 
ATOM     16  C   UNL     1       4.780   1.563   0.450  0.00  0.00    +0.026 A 
ATOM     17  F   UNL     1       5.758  -1.383  -1.449  0.00  0.00    -0.204 F 
ENDBRANCH   1  15
BRANCH   7  18
ATOM     18  C   UNL     1      -1.307   2.163   0.350  0.00  0.00    +0.098 C 
BRANCH  18  19
ATOM     19  C   UNL     1      -1.060   3.637   0.155  0.00  0.00    -0.041 A 
ATOM     20  C   UNL     1      -0.792   4.444   1.246  0.00  0.00    +0.005 A 
ATOM     21  C   UNL     1      -0.560   5.794   1.066  0.00  0.00    +0.020 A 
ATOM     22  C   UNL     1      -0.606   6.341  -0.204  0.00  0.00    +0.041 A 
ATOM     23  C   UNL     1      -0.879   5.534  -1.294  0.00  0.00    +0.020 A 
ATOM     24  C   UNL     1      -1.105   4.183  -1.114  0.00  0.00    +0.005 A 
ATOM     25 CL   UNL     1      -0.321   8.039  -0.429  0.00  0.00    -0.084 Cl
ENDBRANCH  18  19
ENDBRANCH   7  18
TORSDOF 3
