REMARK  Name = ZINC08758477
REMARK  10 active torsions:
REMARK  status: ('A' for Active; 'I' for Inactive)
REMARK    1  A    between atoms: C_1  and  C_2
REMARK    2  A    between atoms: C_4  and  C_37
REMARK    3  A    between atoms: N_10  and  C_11
REMARK    4  A    between atoms: C_11  and  C_13
REMARK    5  A    between atoms: C_14  and  C_15
REMARK    6  A    between atoms: N_22  and  C_23
REMARK    7  A    between atoms: C_23  and  C_24
REMARK    8  A    between atoms: C_24  and  C_25
REMARK    9  A    between atoms: C_33  and  O_35
REMARK   10  A    between atoms: O_35  and  C_36
REMARK                            x       y       z     vdW  Elec       q    Type
REMARK                         _______ _______ _______ _____ _____    ______ ____
ROOT
ATOM      1  C   UNL     1      -3.180  12.196  -5.826  0.00  0.00    +0.066 C 
ATOM      2  C   UNL     1      -3.790  11.078  -5.020  0.00  0.00    +0.044 A 
ATOM      3  C   UNL     1      -4.879  10.374  -5.508  0.00  0.00    +0.046 A 
ATOM      4  C   UNL     1      -5.409   9.353  -4.734  0.00  0.00    +0.044 A 
ATOM      5  N   UNL     1      -4.862   9.084  -3.560  0.00  0.00    -0.217 NA
ATOM      6  C   UNL     1      -3.821   9.776  -3.123  0.00  0.00    +0.231 A 
ATOM      7  N   UNL     1      -3.295  10.761  -3.835  0.00  0.00    -0.217 NA
ATOM      8  N   UNL     1      -3.272   9.466  -1.886  0.00  0.00    -0.297 N 
ATOM      9  C   UNL     1      -2.264  10.236  -1.372  0.00  0.00    +0.196 C 
ATOM     10  N   UNL     1      -1.886  11.335  -2.001  0.00  0.00    -0.143 NA
ATOM     11  N   UNL     1      -1.650   9.868  -0.211  0.00  0.00    -0.357 N 
ATOM     12  C   UNL     1      -6.593   8.560  -5.224  0.00  0.00    +0.066 C 
ATOM     13  H   UNL     1      -3.648   8.602  -1.318  0.00  0.00    +0.171 HD
ATOM     14  H   UNL     1      -0.907  10.535   0.253  0.00  0.00    +0.162 HD
ENDROOT
BRANCH  10  15
ATOM     15  C   UNL     1      -0.707  11.907  -1.705  0.00  0.00    +0.263 C 
ATOM     16  O   UNL     1       0.073  11.343  -0.956  0.00  0.00    -0.269 OA
BRANCH  15  17
ATOM     17  C   UNL     1      -0.357  13.210  -2.283  0.00  0.00    +0.070 C 
ATOM     18  C   UNL     1       0.825  13.783  -1.985  0.00  0.00    +0.013 C 
BRANCH  18  19
ATOM     19  C   UNL     1       1.176  15.091  -2.564  0.00  0.00    -0.025 A 
ATOM     20  C   UNL     1       0.286  15.737  -3.428  0.00  0.00    +0.009 A 
ATOM     21  C   UNL     1       0.619  16.964  -3.963  0.00  0.00    +0.020 A 
ATOM     22  C   UNL     1       1.835  17.550  -3.655  0.00  0.00    +0.041 A 
ATOM     23  C   UNL     1       2.724  16.913  -2.804  0.00  0.00    +0.020 A 
ATOM     24  C   UNL     1       2.402  15.688  -2.258  0.00  0.00    +0.009 A 
ATOM     25 CL   UNL     1       2.249  19.092  -4.338  0.00  0.00    -0.084 Cl
ENDBRANCH  18  19
ENDBRANCH  15  17
ENDBRANCH  10  15
BRANCH  11  26
ATOM     26  C   UNL     1      -1.978   8.587   0.419  0.00  0.00    +0.120 C 
BRANCH  26  27
ATOM     27  C   UNL     1      -1.247   8.474   1.758  0.00  0.00    +0.058 C 
BRANCH  27  28
ATOM     28  C   UNL     1      -1.489   7.109   2.349  0.00  0.00    -0.021 A 
ATOM     29  C   UNL     1      -2.384   6.798   3.299  0.00  0.00    +0.087 A 
ATOM     30  N   UNL     1      -2.317   5.460   3.583  0.00  0.00    -0.360 N 
ATOM     31  H   UNL     1      -2.983   5.025   4.343  0.00  0.00    +0.165 HD
ATOM     32  C   UNL     1      -1.353   4.863   2.802  0.00  0.00    +0.050 A 
ATOM     33  C   UNL     1      -0.792   5.869   1.994  0.00  0.00    +0.003 A 
ATOM     34  C   UNL     1       0.224   5.554   1.090  0.00  0.00    +0.014 A 
ATOM     35  C   UNL     1       0.671   4.267   0.992  0.00  0.00    +0.046 A 
ATOM     36  C   UNL     1       0.120   3.265   1.788  0.00  0.00    +0.122 A 
ATOM     37  C   UNL     1      -0.890   3.557   2.685  0.00  0.00    +0.071 A 
BRANCH  36  38
ATOM     38  O   UNL     1       0.577   1.990   1.678  0.00  0.00    -0.495 OA
ATOM     39  C   UNL     1       1.618   1.753   0.728  0.00  0.00    +0.277 C 
ENDBRANCH  36  38
ENDBRANCH  27  28
ENDBRANCH  26  27
ENDBRANCH  11  26
TORSDOF 7
