REMARK  Name = ZINC48867346
REMARK  5 active torsions:
REMARK  status: ('A' for Active; 'I' for Inactive)
REMARK    1  A    between atoms: C_1  and  C_2
REMARK    2  A    between atoms: C_3  and  C_9
REMARK    3  A    between atoms: C_7  and  N_8
REMARK    4  A    between atoms: N_13  and  C_14
REMARK    5  A    between atoms: C_14  and  C_15
REMARK                            x       y       z     vdW  Elec       q    Type
REMARK                         _______ _______ _______ _____ _____    ______ ____
ROOT
ATOM      1  C   UNL     1      -0.024   0.158  -2.638  0.00  0.00    +0.183 A 
ATOM      2  N   UNL     1      -0.104   1.449  -2.880  0.00  0.00    -0.108 NA
ATOM      3  N   UNL     1      -0.045   1.674  -4.143  0.00  0.00    -0.023 NA
ATOM      4  N   UNL     1       0.074   0.566  -4.792  0.00  0.00    -0.043 NA
ATOM      5  N   UNL     1       0.099  -0.465  -3.836  0.00  0.00    -0.221 N 
ENDROOT
BRANCH   1   8
ATOM      6  C   UNL     1      -2.098   0.863  -0.749  0.00  0.00    +0.046 C 
ATOM      7  C   UNL     1      -1.050  -0.159  -0.391  0.00  0.00    -0.019 A 
ATOM      8  C   UNL     1      -0.055  -0.492  -1.308  0.00  0.00    +0.025 A 
ATOM      9  C   UNL     1       0.912  -1.439  -0.969  0.00  0.00    +0.012 A 
ATOM     10  C   UNL     1       0.881  -2.044   0.271  0.00  0.00    +0.002 A 
ATOM     11  C   UNL     1      -0.106  -1.715   1.181  0.00  0.00    +0.023 A 
ATOM     12  C   UNL     1      -1.070  -0.767   0.855  0.00  0.00    +0.028 A 
BRANCH  12  13
ATOM     13  N   UNL     1      -2.062  -0.433   1.780  0.00  0.00    -0.358 N 
ATOM     14  H   UNL     1      -2.736   0.225   1.552  0.00  0.00    +0.142 HD
ATOM     15  H   UNL     1      -2.075  -0.859   2.652  0.00  0.00    +0.142 HD
ENDBRANCH  12  13
ENDBRANCH   1   8
BRANCH   5  16
ATOM     16  C   UNL     1       0.226  -1.903  -4.083  0.00  0.00    +0.183 C 
BRANCH  16  17
ATOM     17  C   UNL     1      -1.133  -2.484  -4.379  0.00  0.00    -0.012 A 
ATOM     18  C   UNL     1      -1.882  -3.045  -3.361  0.00  0.00    +0.006 A 
ATOM     19  C   UNL     1      -3.128  -3.577  -3.632  0.00  0.00    +0.000 A 
ATOM     20  C   UNL     1      -3.626  -3.550  -4.922  0.00  0.00    +0.001 A 
ATOM     21  C   UNL     1      -2.878  -2.990  -5.940  0.00  0.00    +0.015 A 
ATOM     22  C   UNL     1      -1.633  -2.452  -5.668  0.00  0.00    +0.023 A 
ATOM     23 BR   UNL     1      -0.612  -1.679  -7.059  0.00  0.00    -0.050 Br
ENDBRANCH  16  17
ENDBRANCH   5  16
TORSDOF 4
