REMARK  Name = ZINC39666101
REMARK  9 active torsions:
REMARK  status: ('A' for Active; 'I' for Inactive)
REMARK    1  A    between atoms: C_1  and  C_2
REMARK    2  A    between atoms: C_5  and  O_8
REMARK    3  A    between atoms: O_8  and  C_9
REMARK    4  A    between atoms: C_9  and  C_11
REMARK    5  A    between atoms: C_9  and  C_12
REMARK    6  A    between atoms: C_12  and  N_13
REMARK    7  A    between atoms: C_14  and  C_16
REMARK    8  A    between atoms: C_27  and  C_29
REMARK    9  A    between atoms: C_33  and  C_36
REMARK                            x       y       z     vdW  Elec       q    Type
REMARK                         _______ _______ _______ _____ _____    ______ ____
ROOT
ATOM      1  C   UNL     1      -4.028  -6.702   0.465  0.00  0.00    +0.100 C 
ATOM      2  C   UNL     1      -4.659  -5.803   1.552  0.00  0.00    +0.121 C 
ATOM      3  N   UNL     1      -6.045  -6.307   1.696  0.00  0.00    -0.296 N 
ATOM      4  C   UNL     1      -5.914  -7.780   1.594  0.00  0.00    +0.115 C 
ATOM      5  C   UNL     1      -4.854  -7.999   0.497  0.00  0.00    -0.004 C 
ATOM      6  C   UNL     1      -3.963  -9.185   0.854  0.00  0.00    -0.010 C 
ATOM      7  C   UNL     1      -4.794 -10.470   0.822  0.00  0.00    -0.082 C 
ATOM      8  N   UNL     1      -5.369 -10.650  -0.517  0.00  0.00    +0.379 N 
ATOM      9  C   UNL     1      -6.297  -9.553  -0.815  0.00  0.00    -0.082 C 
ATOM     10  C   UNL     1      -5.529  -8.228  -0.852  0.00  0.00    -0.010 C 
ATOM     11  C   UNL     1      -7.170  -5.588   1.878  0.00  0.00    +0.252 C 
ATOM     12  O   UNL     1      -8.242  -6.152   1.980  0.00  0.00    -0.270 OA
ATOM     13  H   UNL     1      -4.628 -10.658  -1.202  0.00  0.00    -0.086 HD
ATOM     14  H   UNL     1      -5.866 -11.528  -0.553  0.00  0.00    -0.086 HD
ENDROOT
BRANCH  11  15
ATOM     15  C   UNL     1      -7.101  -4.116   1.954  0.00  0.00    +0.107 A 
ATOM     16  C   UNL     1      -7.224  -3.345   0.792  0.00  0.00    +0.138 A 
ATOM     17  C   UNL     1      -7.159  -1.967   0.873  0.00  0.00    +0.039 A 
ATOM     18  C   UNL     1      -6.973  -1.350   2.096  0.00  0.00    +0.009 A 
ATOM     19  C   UNL     1      -6.850  -2.104   3.249  0.00  0.00    -0.014 A 
ATOM     20  C   UNL     1      -6.918  -3.483   3.188  0.00  0.00    +0.141 A 
ATOM     21  F   UNL     1      -6.804  -4.218   4.316  0.00  0.00    -0.204 F 
ATOM     22  C   UNL     1      -6.646  -1.419   4.576  0.00  0.00    +0.047 C 
ATOM     23  F   UNL     1      -7.406  -3.947  -0.404  0.00  0.00    -0.205 F 
ENDBRANCH  11  15
BRANCH   1  25
ATOM     24  N   UNL     1      -1.707  -7.249  -0.194  0.00  0.00    -0.312 N 
ATOM     25  C   UNL     1      -2.586  -6.990   0.794  0.00  0.00    +0.218 C 
ATOM     26  O   UNL     1      -2.216  -6.990   1.950  0.00  0.00    -0.275 OA
ATOM     27  H   UNL     1      -2.003  -7.250  -1.118  0.00  0.00    +0.149 HD
BRANCH  24  28
ATOM     28  C   UNL     1      -0.305  -7.530   0.126  0.00  0.00    +0.148 C 
BRANCH  28  29
ATOM     29  C   UNL     1       0.471  -7.788  -1.166  0.00  0.00    +0.187 C 
ATOM     30  C   UNL     1       1.935  -8.080  -0.832  0.00  0.00    +0.053 C 
BRANCH  29  31
ATOM     31  O   UNL     1      -0.095  -8.909  -1.847  0.00  0.00    -0.488 OA
BRANCH  31  36
ATOM     32  C   UNL     1       0.722  -9.204  -7.412  0.00  0.00    +0.044 C 
ATOM     33  C   UNL     1       0.503  -9.125  -5.923  0.00  0.00    -0.050 A 
ATOM     34  C   UNL     1       1.121  -8.131  -5.186  0.00  0.00    +0.007 A 
ATOM     35  C   UNL     1       0.922  -8.057  -3.821  0.00  0.00    +0.046 A 
ATOM     36  C   UNL     1       0.102  -8.980  -3.190  0.00  0.00    +0.121 A 
ATOM     37  C   UNL     1      -0.518  -9.976  -3.931  0.00  0.00    +0.046 A 
ATOM     38  C   UNL     1      -0.320 -10.043  -5.297  0.00  0.00    +0.007 A 
ENDBRANCH  31  36
ENDBRANCH  29  31
ENDBRANCH  28  29
ENDBRANCH  24  28
ENDBRANCH   1  25
TORSDOF 6
