REMARK  Name = ZINC39280297
REMARK  9 active torsions:
REMARK  status: ('A' for Active; 'I' for Inactive)
REMARK    1  A    between atoms: C_1  and  C_2
REMARK    2  A    between atoms: C_2  and  O_3
REMARK    3  A    between atoms: O_3  and  C_4
REMARK    4  A    between atoms: N_6  and  C_7
REMARK    5  A    between atoms: C_7  and  C_9
REMARK    6  A    between atoms: C_7  and  C_19
REMARK    7  A    between atoms: C_9  and  C_10
REMARK    8  A    between atoms: N_21  and  C_22
REMARK    9  A    between atoms: C_28  and  C_32
REMARK                            x       y       z     vdW  Elec       q    Type
REMARK                         _______ _______ _______ _____ _____    ______ ____
ROOT
ATOM      1  C   UNL     1       1.509  -3.748  -2.597  0.00  0.00    +0.166 C 
ENDROOT
BRANCH   1   4
ATOM      2  C   UNL     1       0.776  -1.798  -1.335  0.00  0.00    +0.401 C 
ATOM      3  O   UNL     1       0.312  -2.549  -0.500  0.00  0.00    -0.226 OA
ATOM      4  N   UNL     1       1.395  -2.298  -2.422  0.00  0.00    -0.270 N 
ATOM      5  H   UNL     1       1.765  -1.699  -3.088  0.00  0.00    +0.153 HD
BRANCH   2   6
ATOM      6  O   UNL     1       0.671  -0.465  -1.174  0.00  0.00    -0.451 OA
BRANCH   6   8
ATOM      7  C   UNL     1      -0.019   1.526   0.010  0.00  0.00    +0.048 C 
ATOM      8  C   UNL     1       0.002  -0.004   0.002  0.00  0.00    +0.230 C 
ENDBRANCH   6   8
ENDBRANCH   2   6
ENDBRANCH   1   4
BRANCH   1   9
ATOM      9  C   UNL     1       2.275  -4.335  -1.439  0.00  0.00    +0.236 C 
ATOM     10  O   UNL     1       2.371  -3.717  -0.400  0.00  0.00    -0.274 OA
ATOM     11  N   UNL     1       2.852  -5.547  -1.558  0.00  0.00    -0.287 N 
ATOM     12  H   UNL     1       2.775  -6.042  -2.390  0.00  0.00    +0.151 HD
BRANCH  11  13
ATOM     13  C   UNL     1       3.596  -6.118  -0.433  0.00  0.00    +0.224 C 
ATOM     14  N   UNL     1       4.366  -7.297  -0.852  0.00  0.00    -0.316 N 
ATOM     15  C   UNL     1       4.051  -8.518  -0.257  0.00  0.00    +0.043 A 
ATOM     16  C   UNL     1       4.677  -9.747  -0.530  0.00  0.00    +0.024 A 
ATOM     17  C   UNL     1       4.292 -10.901   0.113  0.00  0.00    +0.005 A 
ATOM     18  C   UNL     1       3.275 -10.891   1.050  0.00  0.00    -0.049 A 
ATOM     19  C   UNL     1       2.641  -9.694   1.339  0.00  0.00    +0.020 A 
ATOM     20  C   UNL     1       3.028  -8.540   0.696  0.00  0.00    +0.032 A 
ATOM     21  S   UNL     1       2.458  -6.858   0.805  0.00  0.00    -0.082 S 
ATOM     22  C   UNL     1       2.863 -12.162   1.745  0.00  0.00    +0.044 C 
ATOM     23  H   UNL     1       5.068  -7.229  -1.518  0.00  0.00    +0.149 HD
ENDBRANCH  11  13
ENDBRANCH   1   9
BRANCH   1  24
ATOM     24  C   UNL     1       0.111  -4.367  -2.650  0.00  0.00    +0.069 C 
BRANCH  24  25
ATOM     25  C   UNL     1      -0.611  -3.873  -3.877  0.00  0.00    -0.020 A 
ATOM     26  C   UNL     1      -0.522  -4.436  -5.227  0.00  0.00    +0.003 A 
ATOM     27  C   UNL     1       0.179  -5.505  -5.788  0.00  0.00    +0.010 A 
ATOM     28  C   UNL     1       0.044  -5.782  -7.119  0.00  0.00    +0.001 A 
ATOM     29  C   UNL     1      -0.786  -5.008  -7.919  0.00  0.00    +0.002 A 
ATOM     30  C   UNL     1      -1.488  -3.948  -7.386  0.00  0.00    +0.026 A 
ATOM     31  C   UNL     1      -1.365  -3.649  -6.033  0.00  0.00    +0.047 A 
ATOM     32  N   UNL     1      -1.917  -2.684  -5.221  0.00  0.00    -0.360 N 
ATOM     33  C   UNL     1      -1.461  -2.836  -3.940  0.00  0.00    +0.087 A 
ATOM     34  H   UNL     1      -2.540  -2.000  -5.513  0.00  0.00    +0.165 HD
ENDBRANCH  24  25
ENDBRANCH   1  24
TORSDOF 7
