REMARK  Name = ZINC28520381
REMARK  6 active torsions:
REMARK  status: ('A' for Active; 'I' for Inactive)
REMARK    1  A    between atoms: C_6  and  C_7
REMARK    2  A    between atoms: C_7  and  C_8
REMARK    3  A    between atoms: N_13  and  C_15
REMARK    4  A    between atoms: C_15  and  C_16
REMARK    5  A    between atoms: C_22  and  N_24
REMARK    6  A    between atoms: N_27  and  C_28
REMARK                            x       y       z     vdW  Elec       q    Type
REMARK                         _______ _______ _______ _____ _____    ______ ____
ROOT
ATOM      1  C   UNL     1      -1.352  -2.031  -0.230  0.00  0.00    -0.007 C 
ATOM      2  C   UNL     1      -0.899  -2.183  -1.684  0.00  0.00    +0.003 C 
ATOM      3  C   UNL     1      -0.897  -3.665  -2.065  0.00  0.00    +0.000 C 
ATOM      4  C   UNL     1      -2.309  -4.233  -1.910  0.00  0.00    +0.002 C 
ATOM      5  C   UNL     1      -2.762  -4.081  -0.456  0.00  0.00    +0.022 C 
ATOM      6  C   UNL     1      -2.764  -2.600  -0.074  0.00  0.00    +0.076 C 
ENDROOT
BRANCH   6   7
ATOM      7  N   UNL     1      -3.198  -2.454   1.317  0.00  0.00    -0.296 N 
ATOM      8  C   UNL     1      -4.512  -2.399   1.611  0.00  0.00    +0.301 C 
ATOM      9  O   UNL     1      -5.338  -2.469   0.721  0.00  0.00    -0.253 OA
ATOM     10  N   UNL     1      -4.912  -2.265   2.891  0.00  0.00    -0.278 N 
ATOM     11  H   UNL     1      -2.451  -2.391   2.123  0.00  0.00    +0.151 HD
ATOM     12  H   UNL     1      -4.165  -2.202   3.696  0.00  0.00    +0.152 HD
BRANCH  10  13
ATOM     13  C   UNL     1      -6.340  -2.204   3.210  0.00  0.00    +0.183 C 
ATOM     14  C   UNL     1      -6.629  -3.083   4.402  0.00  0.00    +0.015 C 
ATOM     15  C   UNL     1      -6.595  -2.567   5.630  0.00  0.00    +0.000 C 
ATOM     16  C   UNL     1      -6.283  -1.145   5.821  0.00  0.00    +0.015 C 
ATOM     17  C   UNL     1      -6.352  -0.308   4.771  0.00  0.00    +0.069 C 
ATOM     18  N   UNL     1      -6.713  -0.822   3.535  0.00  0.00    -0.329 N 
ATOM     19  H   UNL     1      -7.268  -0.216   2.804  0.00  0.00    +0.148 HD
ENDBRANCH  10  13
ENDBRANCH   6   7
BRANCH   1  20
ATOM     20  C   UNL     1      -1.354  -0.550   0.152  0.00  0.00    -0.074 C 
BRANCH  20  25
ATOM     21  C   UNL     1       2.323  -0.182   0.877  0.00  0.00    -0.023 C 
ATOM     22  C   UNL     1       2.386   1.343   0.994  0.00  0.00    +0.000 C 
ATOM     23  C   UNL     1       1.441   1.966  -0.036  0.00  0.00    -0.018 C 
ATOM     24  C   UNL     1       0.023   1.441   0.196  0.00  0.00    -0.079 C 
ATOM     25  N   UNL     1       0.015  -0.022   0.072  0.00  0.00    +0.380 N 
ATOM     26  C   UNL     1       0.879  -0.645   1.083  0.00  0.00    -0.075 C 
ATOM     27  H   UNL     1       0.420  -0.277  -0.918  0.00  0.00    -0.082 HD
BRANCH  21  28
ATOM     28  C   UNL     1       3.219  -0.814   1.944  0.00  0.00    +0.037 C 
BRANCH  28  34
ATOM     29  C   UNL     1       5.431  -1.278   0.869  0.00  0.00    +0.006 A 
ATOM     30  C   UNL     1       6.749  -0.949   0.611  0.00  0.00    +0.038 A 
ATOM     31  C   UNL     1       7.296   0.198   1.163  0.00  0.00    +0.123 A 
ATOM     32  C   UNL     1       6.521   1.016   1.967  0.00  0.00    +0.038 A 
ATOM     33  C   UNL     1       5.202   0.688   2.219  0.00  0.00    +0.006 A 
ATOM     34  C   UNL     1       4.657  -0.457   1.668  0.00  0.00    -0.047 A 
ATOM     35  F   UNL     1       8.585   0.518   0.915  0.00  0.00    -0.205 F 
ENDBRANCH  28  34
ENDBRANCH  21  28
ENDBRANCH  20  25
ENDBRANCH   1  20
TORSDOF 6
