REMARK  Name = ZINC63375245
REMARK  3 active torsions:
REMARK  status: ('A' for Active; 'I' for Inactive)
REMARK    1  A    between atoms: C_4  and  N_7
REMARK    2  A    between atoms: C_12  and  C_30
REMARK    3  A    between atoms: C_30  and  C_31
REMARK                            x       y       z     vdW  Elec       q    Type
REMARK                         _______ _______ _______ _____ _____    ______ ____
ROOT
ATOM      1  N   UNL     1       3.624  -0.652  -0.037  0.00  0.00    -0.210 N 
ATOM      2  C   UNL     1       4.801  -0.025  -0.139  0.00  0.00    +0.232 C 
ATOM      3  O   UNL     1       4.950   1.175  -0.224  0.00  0.00    -0.274 OA
ATOM      4  C   UNL     1       5.917  -1.045  -0.129  0.00  0.00    +0.107 C 
ATOM      5  C   UNL     1       6.581  -1.080  -1.522  0.00  0.00    +0.072 C 
ATOM      6  N   UNL     1       6.710  -2.526  -1.847  0.00  0.00    -0.295 NA
ATOM      7  C   UNL     1       5.465  -3.124  -1.331  0.00  0.00    +0.136 C 
ATOM      8  C   UNL     1       5.164  -2.398   0.004  0.00  0.00    +0.123 C 
ATOM      9  C   UNL     1       3.710  -1.984   0.053  0.00  0.00    +0.233 C 
ATOM     10  O   UNL     1       2.769  -2.742   0.154  0.00  0.00    -0.274 OA
ATOM     11  C   UNL     1       5.610  -4.605  -1.125  0.00  0.00    +0.005 A 
ATOM     12  C   UNL     1       6.452  -5.377  -0.357  0.00  0.00    +0.027 A 
ATOM     13  C   UNL     1       6.341  -6.757  -0.379  0.00  0.00    +0.041 A 
ATOM     14  C   UNL     1       5.381  -7.357  -1.176  0.00  0.00    +0.022 A 
ATOM     15  C   UNL     1       4.535  -6.587  -1.946  0.00  0.00    +0.025 A 
ATOM     16  C   UNL     1       4.641  -5.198  -1.929  0.00  0.00    +0.039 A 
ATOM     17  N   UNL     1       3.912  -4.218  -2.609  0.00  0.00    -0.283 N 
ATOM     18  C   UNL     1       4.335  -2.974  -2.313  0.00  0.00    +0.243 C 
ATOM     19  O   UNL     1       3.892  -1.935  -2.754  0.00  0.00    -0.273 OA
ATOM     20 CL   UNL     1       7.402  -7.732   0.588  0.00  0.00    -0.084 Cl
ATOM     21  H   UNL     1       6.793  -2.667  -2.842  0.00  0.00    +0.124 HD
ATOM     22  H   UNL     1       3.187  -4.412  -3.223  0.00  0.00    +0.155 HD
ENDROOT
BRANCH   1  26
ATOM     23  C   UNL     1      -0.016   1.380   0.011  0.00  0.00    +0.000 A 
ATOM     24  C   UNL     1       0.419   0.717   1.144  0.00  0.00    +0.002 A 
ATOM     25  C   UNL     1       1.625   0.043   1.131  0.00  0.00    +0.024 A 
ATOM     26  C   UNL     1       2.399   0.031  -0.021  0.00  0.00    +0.044 A 
ATOM     27  C   UNL     1       1.959   0.697  -1.157  0.00  0.00    +0.024 A 
ATOM     28  C   UNL     1       0.753   1.370  -1.138  0.00  0.00    +0.002 A 
ENDBRANCH   1  26
BRANCH   5  29
ATOM     29  C   UNL     1       7.960  -0.419  -1.472  0.00  0.00    +0.052 C 
BRANCH  29  30
ATOM     30  C   UNL     1       8.538  -0.355  -2.862  0.00  0.00    -0.040 C 
ATOM     31  C   UNL     1       8.475   0.688  -3.721  0.00  0.00    -0.001 A 
ATOM     32  C   UNL     1       7.871   2.022  -3.623  0.00  0.00    +0.010 A 
ATOM     33  C   UNL     1       7.973   2.868  -4.674  0.00  0.00    +0.001 A 
ATOM     34  C   UNL     1       8.639   2.502  -5.852  0.00  0.00    +0.002 A 
ATOM     35  C   UNL     1       9.218   1.294  -6.017  0.00  0.00    +0.026 A 
ATOM     36  C   UNL     1       9.172   0.326  -4.976  0.00  0.00    +0.043 A 
ATOM     37  N   UNL     1       9.648  -0.892  -4.896  0.00  0.00    -0.380 N 
ATOM     38  C   UNL     1       9.311  -1.440  -3.577  0.00  0.00    +0.144 C 
ATOM     39  H   UNL     1      10.144  -1.353  -5.590  0.00  0.00    +0.160 HD
ENDBRANCH  29  30
ENDBRANCH   5  29
TORSDOF 3
