REMARK  Name = ZINC01380874
REMARK  7 active torsions:
REMARK  status: ('A' for Active; 'I' for Inactive)
REMARK    1  A    between atoms: C_1  and  C_2
REMARK    2  A    between atoms: C_2  and  C_3
REMARK    3  A    between atoms: C_8  and  N_9
REMARK    4  A    between atoms: C_10  and  C_33
REMARK    5  A    between atoms: C_18  and  C_24
REMARK    6  A    between atoms: N_26  and  C_27
REMARK    7  A    between atoms: N_35  and  C_36
REMARK                            x       y       z     vdW  Elec       q    Type
REMARK                         _______ _______ _______ _____ _____    ______ ____
ROOT
ATOM      1  N   UNL     1      -1.350  -0.723  -2.565  0.00  0.00    -0.256 N 
ATOM      2  C   UNL     1      -0.731  -1.478  -3.682  0.00  0.00    +0.203 C 
ATOM      3  C   UNL     1      -0.687  -0.489  -4.805  0.00  0.00    +0.127 C 
ATOM      4  C   UNL     1       0.299  -0.518  -5.918  0.00  0.00    +0.009 C 
ATOM      5  C   UNL     1      -0.186   0.371  -6.794  0.00  0.00    +0.004 C 
ATOM      6  C   UNL     1      -1.500   0.909  -6.217  0.00  0.00    +0.155 C 
ATOM      7  O   UNL     1      -1.962  -0.272  -5.466  0.00  0.00    -0.358 OA
ATOM      8  C   UNL     1      -1.122   1.868  -5.043  0.00  0.00    +0.123 C 
ATOM      9  C   UNL     1      -0.482   0.868  -4.036  0.00  0.00    +0.128 C 
ATOM     10  C   UNL     1      -1.290   0.613  -2.794  0.00  0.00    +0.228 C 
ATOM     11  O   UNL     1      -1.805   1.467  -2.104  0.00  0.00    -0.275 OA
ENDROOT
BRANCH   1  17
ATOM     12  C   UNL     1      -3.293  -1.527  -1.377  0.00  0.00    -0.026 A 
ATOM     13  C   UNL     1      -3.854  -2.112  -0.258  0.00  0.00    +0.005 A 
ATOM     14  C   UNL     1      -3.054  -2.476   0.809  0.00  0.00    +0.000 A 
ATOM     15  C   UNL     1      -1.689  -2.256   0.760  0.00  0.00    +0.002 A 
ATOM     16  C   UNL     1      -1.122  -1.673  -0.355  0.00  0.00    +0.024 A 
ATOM     17  C   UNL     1      -1.922  -1.310  -1.431  0.00  0.00    +0.040 A 
BRANCH  12  19
ATOM     18  C   UNL     1      -4.201  -2.268  -3.562  0.00  0.00    +0.009 C 
ATOM     19  C   UNL     1      -4.166  -1.131  -2.539  0.00  0.00    +0.033 C 
ENDBRANCH  12  19
ENDBRANCH   1  17
BRANCH   8  20
ATOM     20  C   UNL     1      -0.137   2.914  -5.497  0.00  0.00    +0.224 C 
ATOM     21  O   UNL     1       0.962   2.974  -4.988  0.00  0.00    -0.275 OA
ATOM     22  N   UNL     1      -0.477   3.784  -6.469  0.00  0.00    -0.285 N 
ATOM     23  H   UNL     1      -1.379   3.782  -6.827  0.00  0.00    +0.155 HD
BRANCH  22  24
ATOM     24  C   UNL     1       0.469   4.689  -6.961  0.00  0.00    +0.033 A 
ATOM     25  C   UNL     1       0.471   5.031  -8.307  0.00  0.00    +0.023 A 
ATOM     26  C   UNL     1       1.407   5.924  -8.790  0.00  0.00    +0.002 A 
ATOM     27  C   UNL     1       2.341   6.478  -7.935  0.00  0.00    +0.000 A 
ATOM     28  C   UNL     1       2.343   6.140  -6.595  0.00  0.00    +0.002 A 
ATOM     29  C   UNL     1       1.406   5.251  -6.104  0.00  0.00    +0.023 A 
ENDBRANCH  22  24
ENDBRANCH   8  20
BRANCH   2  30
ATOM     30  C   UNL     1       0.659  -1.924  -3.312  0.00  0.00    +0.237 C 
ATOM     31  O   UNL     1       1.292  -1.310  -2.478  0.00  0.00    -0.274 OA
ATOM     32  N   UNL     1       1.200  -3.006  -3.906  0.00  0.00    -0.311 N 
ATOM     33  H   UNL     1       0.695  -3.497  -4.573  0.00  0.00    +0.149 HD
BRANCH  32  34
ATOM     34  C   UNL     1       2.553  -3.440  -3.546  0.00  0.00    +0.073 C 
ATOM     35  C   UNL     1       3.576  -2.657  -4.371  0.00  0.00    +0.022 C 
ATOM     36  C   UNL     1       4.988  -3.110  -3.995  0.00  0.00    +0.002 C 
ATOM     37  C   UNL     1       5.138  -4.606  -4.284  0.00  0.00    +0.000 C 
ATOM     38  C   UNL     1       4.114  -5.389  -3.459  0.00  0.00    +0.002 C 
ATOM     39  C   UNL     1       2.702  -4.935  -3.835  0.00  0.00    +0.022 C 
ENDBRANCH  32  34
ENDBRANCH   2  30
TORSDOF 6
