REMARK  Name = ZINC12570810
REMARK  9 active torsions:
REMARK  status: ('A' for Active; 'I' for Inactive)
REMARK    1  A    between atoms: C_3  and  O_9
REMARK    2  A    between atoms: O_9  and  C_10
REMARK    3  A    between atoms: C_10  and  C_11
REMARK    4  A    between atoms: C_11  and  C_12
REMARK    5  A    between atoms: C_12  and  C_13
REMARK    6  A    between atoms: N_15  and  N_16
REMARK    7  A    between atoms: N_16  and  C_17
REMARK    8  A    between atoms: C_17  and  N_19
REMARK    9  A    between atoms: C_20  and  C_22
REMARK                            x       y       z     vdW  Elec       q    Type
REMARK                         _______ _______ _______ _____ _____    ______ ____
ROOT
ATOM      1  C   UNL     1       5.077  -2.953  -0.065  0.00  0.00    +0.229 C 
ATOM      2  O   UNL     1       6.028  -2.200  -0.070  0.00  0.00    -0.274 OA
ATOM      3  N   UNL     1       5.273  -4.286  -0.074  0.00  0.00    -0.235 N 
ATOM      4  H   UNL     1       4.513  -4.888  -0.070  0.00  0.00    +0.173 HD
ENDROOT
BRANCH   3   5
ATOM      5  N   UNL     1       6.575  -4.803  -0.090  0.00  0.00    -0.246 N 
ATOM      6  H   UNL     1       7.336  -4.201  -0.094  0.00  0.00    +0.172 HD
BRANCH   5   7
ATOM      7  C   UNL     1       6.771  -6.136  -0.100  0.00  0.00    +0.153 C 
ATOM      8  S   UNL     1       8.363  -6.767  -0.119  0.00  0.00    -0.017 S 
BRANCH   7   9
ATOM      9  N   UNL     1       5.715  -6.973  -0.094  0.00  0.00    -0.260 N 
ATOM     10  C   UNL     1       5.911  -8.306  -0.104  0.00  0.00    +0.285 C 
ATOM     11  O   UNL     1       7.042  -8.755  -0.117  0.00  0.00    -0.266 OA
ATOM     12  H   UNL     1       4.813  -6.615  -0.083  0.00  0.00    +0.157 HD
BRANCH  10  13
ATOM     13  C   UNL     1       4.763  -9.215  -0.098  0.00  0.00    +0.191 A 
ATOM     14  C   UNL     1       4.819 -10.581  -0.106  0.00  0.00    +0.056 A 
ATOM     15  C   UNL     1       3.494 -11.040  -0.096  0.00  0.00    +0.058 A 
ATOM     16  C   UNL     1       2.695  -9.948  -0.082  0.00  0.00    +0.171 A 
ATOM     17  O   UNL     1       3.463  -8.851  -0.077  0.00  0.00    -0.444 OA
ATOM     18 BR   UNL     1       0.804  -9.969  -0.064  0.00  0.00    -0.008 Br
ENDBRANCH  10  13
ENDBRANCH   7   9
ENDBRANCH   5   7
ENDBRANCH   3   5
BRANCH   1  19
ATOM     19  C   UNL     1       3.676  -2.397  -0.048  0.00  0.00    +0.100 C 
BRANCH  19  20
ATOM     20  C   UNL     1       3.734  -0.869  -0.040  0.00  0.00    +0.050 C 
BRANCH  20  21
ATOM     21  C   UNL     1       2.312  -0.305  -0.023  0.00  0.00    +0.229 C 
BRANCH  21  22
ATOM     22  O   UNL     1       2.366   1.123  -0.015  0.00  0.00    -0.490 OA
BRANCH  22  25
ATOM     23  C   UNL     1      -1.218   1.751   0.017  0.00  0.00    +0.023 A 
ATOM     24  C   UNL     1      -0.013   1.076   0.008  0.00  0.00    +0.048 A 
ATOM     25  C   UNL     1       1.179   1.786   0.000  0.00  0.00    +0.139 A 
ATOM     26  C   UNL     1       1.157   3.174   0.008  0.00  0.00    +0.084 A 
ATOM     27  C   UNL     1      -0.051   3.845   0.023  0.00  0.00    +0.043 A 
ATOM     28  C   UNL     1      -1.238   3.134   0.030  0.00  0.00    +0.043 A 
ATOM     29 CL   UNL     1      -2.755   3.979   0.048  0.00  0.00    -0.083 Cl
ATOM     30 CL   UNL     1       2.646   4.066  -0.002  0.00  0.00    -0.080 Cl
ENDBRANCH  22  25
ENDBRANCH  21  22
ENDBRANCH  20  21
ENDBRANCH  19  20
ENDBRANCH   1  19
TORSDOF 9
