REMARK  Name = ZINC44590400
REMARK  6 active torsions:
REMARK  status: ('A' for Active; 'I' for Inactive)
REMARK    1  A    between atoms: C_1  and  N_2
REMARK    2  A    between atoms: C_11  and  C_25
REMARK    3  A    between atoms: C_13  and  C_21
REMARK    4  A    between atoms: C_13  and  C_23
REMARK    5  A    between atoms: C_14  and  N_20
REMARK    6  A    between atoms: C_15  and  C_18
REMARK                            x       y       z     vdW  Elec       q    Type
REMARK                         _______ _______ _______ _____ _____    ______ ____
ROOT
ATOM      1  C   UNL     1      -0.765   1.605   0.322  0.00  0.00    +0.105 C 
ATOM      2  N   UNL     1      -0.856   0.164   0.287  0.00  0.00    -0.295 NA
ATOM      3  C   UNL     1      -2.208  -0.380   0.571  0.00  0.00    +0.080 C 
ATOM      4  C   UNL     1      -1.975  -1.902   0.726  0.00  0.00    +0.024 C 
ATOM      5  C   UNL     1      -0.440  -2.055   0.843  0.00  0.00    +0.021 C 
ATOM      6  C   UNL     1       0.020  -0.600   1.193  0.00  0.00    +0.065 C 
ATOM      7  C   UNL     1      -0.324  -0.415   2.659  0.00  0.00    +0.047 C 
ATOM      8  C   UNL     1       0.723   0.320   3.469  0.00  0.00    +0.068 C 
ATOM      9  C   UNL     1       0.373   0.272   4.959  0.00  0.00    +0.188 C 
ATOM     10  C   UNL     1      -1.048   0.671   5.206  0.00  0.00    +0.054 C 
ATOM     11  C   UNL     1      -2.019   0.644   4.254  0.00  0.00    +0.074 C 
ATOM     12  C   UNL     1      -1.695   0.154   2.896  0.00  0.00    -0.026 C 
ATOM     13  C   UNL     1      -2.596   0.187   1.925  0.00  0.00    -0.003 C 
ENDROOT
BRANCH   8  14
ATOM     14  C   UNL     1       0.867   1.762   3.054  0.00  0.00    -0.039 A 
ATOM     15  C   UNL     1       2.008   2.180   2.394  0.00  0.00    +0.005 A 
ATOM     16  C   UNL     1       2.141   3.502   2.013  0.00  0.00    +0.022 A 
ATOM     17  C   UNL     1       1.133   4.407   2.291  0.00  0.00    +0.059 A 
ATOM     18  C   UNL     1      -0.010   3.988   2.952  0.00  0.00    +0.060 A 
ATOM     19  C   UNL     1      -0.144   2.664   3.328  0.00  0.00    +0.025 A 
ATOM     20 CL   UNL     1      -1.276   5.123   3.303  0.00  0.00    -0.082 Cl
ATOM     21 CL   UNL     1       1.300   6.068   1.813  0.00  0.00    -0.082 Cl
ENDBRANCH   8  14
BRANCH  10  22
ATOM     22  N   UNL     1      -1.393   1.087   6.462  0.00  0.00    -0.358 N 
ATOM     23  H   UNL     1      -0.724   1.117   7.163  0.00  0.00    +0.142 HD
ATOM     24  H   UNL     1      -2.307   1.352   6.651  0.00  0.00    +0.142 HD
ENDBRANCH  10  22
BRANCH  11  25
ATOM     25  C   UNL     1      -3.340   1.088   4.592  0.00  0.00    +0.101 C 
ATOM     26  N   UNL     1      -4.386   1.440   4.860  0.00  0.00    -0.191 NA
ENDBRANCH  11  25
BRANCH   9  27
ATOM     27  C   UNL     1       1.256   1.213   5.674  0.00  0.00    +0.091 C 
ATOM     28  N   UNL     1       1.936   1.938   6.225  0.00  0.00    -0.194 NA
ENDBRANCH   9  27
BRANCH   9  29
ATOM     29  C   UNL     1       0.607  -1.080   5.484  0.00  0.00    +0.091 C 
ATOM     30  N   UNL     1       0.788  -2.125   5.891  0.00  0.00    -0.194 NA
ENDBRANCH   9  29
TORSDOF 5
