REMARK  Name = ZINC32615907
REMARK  6 active torsions:
REMARK  status: ('A' for Active; 'I' for Inactive)
REMARK    1  A    between atoms: C_1  and  C_2
REMARK    2  A    between atoms: C_5  and  N_19
REMARK    3  A    between atoms: C_9  and  C_12
REMARK    4  A    between atoms: C_20  and  C_22
REMARK    5  A    between atoms: C_22  and  C_23
REMARK    6  A    between atoms: C_26  and  N_29
REMARK                            x       y       z     vdW  Elec       q    Type
REMARK                         _______ _______ _______ _____ _____    ______ ____
ROOT
ATOM      1  C   UNL     1       1.139   8.385   5.672  0.00  0.00    +0.086 C 
ATOM      2  C   UNL     1       1.147   7.169   4.782  0.00  0.00    +0.114 A 
ATOM      3  N   UNL     1       1.168   5.929   5.188  0.00  0.00    -0.239 NA
ATOM      4  C   UNL     1       1.169   5.110   4.126  0.00  0.00    +0.155 A 
ATOM      5  C   UNL     1       1.147   5.870   3.006  0.00  0.00    +0.131 A 
ATOM      6  N   UNL     1       1.139   7.181   3.418  0.00  0.00    -0.263 N 
ATOM      7  C   UNL     1       1.122   8.308   2.599  0.00  0.00    +0.181 A 
ATOM      8  N   UNL     1       1.114   9.578   2.944  0.00  0.00    -0.222 NA
ATOM      9  C   UNL     1       1.098  10.539   2.032  0.00  0.00    +0.080 A 
ATOM     10  C   UNL     1       1.091  10.172   0.714  0.00  0.00    +0.077 A 
ATOM     11  S   UNL     1       1.115   8.392   0.865  0.00  0.00    -0.057 S 
ENDROOT
BRANCH   9  12
ATOM     12  C   UNL     1       1.089  11.968   2.427  0.00  0.00    +0.001 A 
ATOM     13  C   UNL     1       1.078  12.963   1.451  0.00  0.00    +0.013 A 
ATOM     14  C   UNL     1       1.066  14.292   1.824  0.00  0.00    +0.039 A 
ATOM     15  C   UNL     1       1.073  14.637   3.166  0.00  0.00    +0.123 A 
ATOM     16  C   UNL     1       1.088  13.652   4.139  0.00  0.00    +0.039 A 
ATOM     17  C   UNL     1       1.096  12.321   3.776  0.00  0.00    +0.013 A 
ATOM     18  F   UNL     1       1.066  15.940   3.526  0.00  0.00    -0.205 F 
ENDBRANCH   9  12
BRANCH   5  19
ATOM     19  N   UNL     1       1.141   5.411   1.686  0.00  0.00    -0.270 N 
ATOM     20  C   UNL     1       1.157   4.087   1.433  0.00  0.00    +0.223 C 
ATOM     21  O   UNL     1       1.176   3.295   2.351  0.00  0.00    -0.275 OA
ATOM     22  H   UNL     1       1.124   6.130   0.854  0.00  0.00    +0.156 HD
BRANCH  20  23
ATOM     23  C   UNL     1       1.151   3.592   0.010  0.00  0.00    +0.131 C 
BRANCH  23  24
ATOM     24  C   UNL     1       1.171   2.086   0.002  0.00  0.00    -0.038 A 
ATOM     25  C   UNL     1      -0.017   1.378   0.010  0.00  0.00    +0.006 A 
ATOM     26  C   UNL     1       0.002  -0.004   0.002  0.00  0.00    +0.033 A 
ATOM     27  C   UNL     1       1.208  -0.679  -0.014  0.00  0.00    +0.126 A 
ATOM     28  C   UNL     1       2.396   0.029  -0.021  0.00  0.00    +0.033 A 
ATOM     29  C   UNL     1       2.377   1.411  -0.014  0.00  0.00    +0.006 A 
BRANCH  27  30
ATOM     30  N   UNL     1       1.228  -2.159  -0.022  0.00  0.00    +0.056 N 
ATOM     31  O   UNL     1       0.182  -2.782  -0.015  0.00  0.00    -0.126 OA
ATOM     32  O   UNL     1       2.291  -2.753  -0.036  0.00  0.00    -0.126 OA
ENDBRANCH  27  30
ENDBRANCH  23  24
ENDBRANCH  20  23
ENDBRANCH   5  19
TORSDOF 5
