REMARK  Name = ZINC06587182
REMARK  8 active torsions:
REMARK  status: ('A' for Active; 'I' for Inactive)
REMARK    1  A    between atoms: C_3  and  S_21
REMARK    2  A    between atoms: C_6  and  C_7
REMARK    3  A    between atoms: C_7  and  N_41
REMARK    4  A    between atoms: C_8  and  C_9
REMARK    5  A    between atoms: C_8  and  N_41
REMARK    6  A    between atoms: N_11  and  C_12
REMARK    7  A    between atoms: C_12  and  C_13
REMARK    8  A    between atoms: S_21  and  N_24
REMARK                            x       y       z     vdW  Elec       q    Type
REMARK                         _______ _______ _______ _____ _____    ______ ____
ROOT
ATOM      1  N   UNL     1      -4.243   4.635   2.983  0.00  0.00    +0.387 N 
ATOM      2  H   UNL     1      -4.205   5.399   2.298  0.00  0.00    -0.085 HD
ATOM      3  H   UNL     1      -4.994   3.983   2.728  0.00  0.00    -0.085 HD
ENDROOT
BRANCH   1   4
ATOM      4  C   UNL     1      -4.516   5.193   4.321  0.00  0.00    -0.046 C 
BRANCH   4  10
ATOM      5  C   UNL     1      -5.878   7.265   3.978  0.00  0.00    +0.003 A 
ATOM      6  C   UNL     1      -7.089   7.930   3.947  0.00  0.00    +0.029 A 
ATOM      7  C   UNL     1      -8.258   7.252   4.240  0.00  0.00    +0.105 A 
ATOM      8  C   UNL     1      -8.216   5.908   4.560  0.00  0.00    +0.029 A 
ATOM      9  C   UNL     1      -7.005   5.242   4.586  0.00  0.00    +0.003 A 
ATOM     10  C   UNL     1      -5.836   5.920   4.292  0.00  0.00    -0.064 A 
BRANCH   7  11
ATOM     11  S   UNL     1      -9.802   8.101   4.205  0.00  0.00    +0.056 S 
ATOM     12  O   UNL     1      -9.630   9.220   3.346  0.00  0.00    -0.153 OA
ATOM     13  O   UNL     1     -10.802   7.117   3.983  0.00  0.00    -0.153 OA
BRANCH  11  14
ATOM     14  N   UNL     1     -10.062   8.706   5.725  0.00  0.00    -0.204 NA
ATOM     15  H   UNL     1      -9.409   8.555   6.426  0.00  0.00    +0.144 HD
ATOM     16  H   UNL     1     -10.867   9.212   5.914  0.00  0.00    +0.144 HD
ENDBRANCH  11  14
ENDBRANCH   7  11
ENDBRANCH   4  10
ENDBRANCH   1   4
BRANCH   1  17
ATOM     17  C   UNL     1      -2.954   3.917   2.982  0.00  0.00    +0.015 C 
BRANCH  17  18
ATOM     18  C   UNL     1      -2.702   3.358   1.605  0.00  0.00    +0.196 C 
ATOM     19  O   UNL     1      -3.510   3.539   0.720  0.00  0.00    -0.278 OA
ATOM     20  N   UNL     1      -1.577   2.657   1.358  0.00  0.00    -0.313 N 
ATOM     21  H   UNL     1      -0.931   2.512   2.067  0.00  0.00    +0.149 HD
BRANCH  20  22
ATOM     22  C   UNL     1      -1.332   2.114   0.020  0.00  0.00    +0.141 C 
BRANCH  22  23
ATOM     23  C   UNL     1      -0.017   1.378   0.010  0.00  0.00    -0.012 A 
ATOM     24  C   UNL     1       0.002  -0.004   0.002  0.00  0.00    +0.008 A 
ATOM     25  C   UNL     1       1.208  -0.679  -0.013  0.00  0.00    +0.020 A 
ATOM     26  C   UNL     1       2.397   0.028  -0.021  0.00  0.00    +0.042 A 
ATOM     27  C   UNL     1       2.379   1.411  -0.013  0.00  0.00    +0.040 A 
ATOM     28  C   UNL     1       1.172   2.086   0.002  0.00  0.00    +0.047 A 
ATOM     29 CL   UNL     1       1.148   3.822   0.012  0.00  0.00    -0.083 Cl
ATOM     30 CL   UNL     1       3.912  -0.820  -0.039  0.00  0.00    -0.083 Cl
ENDBRANCH  22  23
ENDBRANCH  20  22
ENDBRANCH  17  18
ENDBRANCH   1  17
TORSDOF 8
