REMARK  Name = ZINC36610177
REMARK  12 active torsions:
REMARK  status: ('A' for Active; 'I' for Inactive)
REMARK    1  A    between atoms: C_1  and  C_2
REMARK    2  A    between atoms: C_3  and  C_4
REMARK    3  A    between atoms: C_4  and  C_6
REMARK    4  A    between atoms: C_4  and  N_20
REMARK    5  A    between atoms: N_8  and  C_9
REMARK    6  A    between atoms: C_9  and  S_10
REMARK    7  A    between atoms: S_10  and  C_13
REMARK    8  A    between atoms: C_16  and  C_19
REMARK    9  A    between atoms: N_20  and  C_21
REMARK   10  A    between atoms: C_27  and  C_29
REMARK   11  A    between atoms: C_30  and  O_36
REMARK   12  A    between atoms: C_34  and  O_35
REMARK                            x       y       z     vdW  Elec       q    Type
REMARK                         _______ _______ _______ _____ _____    ______ ____
ROOT
ATOM      1  C   UNL     1       0.424  -1.923  -0.973  0.00  0.00    +0.190 C 
ENDROOT
BRANCH   1   2
ATOM      2  C   UNL     1       1.926  -2.005  -1.069  0.00  0.00    +0.239 C 
ATOM      3  O   UNL     1       2.553  -2.634  -0.243  0.00  0.00    -0.273 OA
ATOM      4  N   UNL     1       2.572  -1.377  -2.071  0.00  0.00    -0.294 N 
ATOM      5  H   UNL     1       2.071  -0.873  -2.731  0.00  0.00    +0.150 HD
BRANCH   4   6
ATOM      6  C   UNL     1       4.032  -1.456  -2.164  0.00  0.00    +0.278 C 
BRANCH   6   7
ATOM      7  S   UNL     1       4.495  -2.802  -3.289  0.00  0.00    +0.013 S 
ATOM      8  O   UNL     1       5.907  -2.851  -3.439  0.00  0.00    -0.168 OA
ATOM      9  O   UNL     1       3.759  -3.977  -2.975  0.00  0.00    -0.168 OA
BRANCH   7  10
ATOM     10  C   UNL     1       3.892  -2.302  -4.867  0.00  0.00    +0.090 A 
ATOM     11  C   UNL     1       2.612  -2.646  -5.259  0.00  0.00    +0.027 A 
ATOM     12  C   UNL     1       2.139  -2.253  -6.497  0.00  0.00    +0.005 A 
ATOM     13  C   UNL     1       2.946  -1.515  -7.343  0.00  0.00    -0.050 A 
ATOM     14  C   UNL     1       4.226  -1.170  -6.950  0.00  0.00    +0.005 A 
ATOM     15  C   UNL     1       4.697  -1.560  -5.711  0.00  0.00    +0.027 A 
ATOM     16  C   UNL     1       2.431  -1.088  -8.693  0.00  0.00    +0.044 C 
ENDBRANCH   7  10
ENDBRANCH   6   7
ENDBRANCH   4   6
ENDBRANCH   1   2
BRANCH   1  19
ATOM     17  C   UNL     1      -1.077   1.345   0.373  0.00  0.00    +0.035 C 
ATOM     18  C   UNL     1      -0.660  -0.096   0.230  0.00  0.00    -0.032 C 
ATOM     19  C   UNL     1       0.007  -0.482  -0.830  0.00  0.00    +0.000 C 
ENDBRANCH   1  19
BRANCH   1  20
ATOM     20  N   UNL     1      -0.032  -2.683   0.194  0.00  0.00    -0.252 N 
ATOM     21  C   UNL     1      -0.876  -3.721   0.034  0.00  0.00    +0.259 C 
ATOM     22  O   UNL     1      -1.259  -4.028  -1.079  0.00  0.00    -0.269 OA
BRANCH  20  23
ATOM     23  C   UNL     1       0.407  -2.329   1.474  0.00  0.00    +0.038 A 
ATOM     24  C   UNL     1       1.603  -1.640   1.633  0.00  0.00    +0.023 A 
ATOM     25  C   UNL     1       2.034  -1.293   2.899  0.00  0.00    +0.002 A 
ATOM     26  C   UNL     1       1.277  -1.631   4.006  0.00  0.00    +0.000 A 
ATOM     27  C   UNL     1       0.087  -2.317   3.850  0.00  0.00    +0.002 A 
ATOM     28  C   UNL     1      -0.353  -2.662   2.587  0.00  0.00    +0.023 A 
ENDBRANCH  20  23
BRANCH  21  29
ATOM     29  C   UNL     1      -1.335  -4.484   1.206  0.00  0.00    +0.120 A 
ATOM     30  C   UNL     1      -2.583  -4.210   1.783  0.00  0.00    +0.133 A 
ATOM     31  C   UNL     1      -3.005  -4.935   2.886  0.00  0.00    +0.046 A 
ATOM     32  C   UNL     1      -2.200  -5.925   3.418  0.00  0.00    +0.007 A 
ATOM     33  C   UNL     1      -0.967  -6.203   2.858  0.00  0.00    +0.046 A 
ATOM     34  C   UNL     1      -0.528  -5.494   1.751  0.00  0.00    +0.133 A 
BRANCH  34  35
ATOM     35  O   UNL     1       0.680  -5.773   1.200  0.00  0.00    -0.506 OA
ATOM     36  H   UNL     1       1.410  -5.261   1.574  0.00  0.00    +0.292 HD
ENDBRANCH  34  35
BRANCH  30  37
ATOM     37  O   UNL     1      -3.375  -3.240   1.263  0.00  0.00    -0.506 OA
ATOM     38  H   UNL     1      -3.982  -3.552   0.578  0.00  0.00    +0.292 HD
ENDBRANCH  30  37
ENDBRANCH  21  29
ENDBRANCH   1  20
TORSDOF 10
