REMARK  Name = ZINC06753331
REMARK  4 active torsions:
REMARK  status: ('A' for Active; 'I' for Inactive)
REMARK    1  A    between atoms: C_1  and  O_2
REMARK    2  A    between atoms: O_2  and  C_3
REMARK    3  A    between atoms: C_6  and  C_9
REMARK    4  A    between atoms: C_12  and  C_20
REMARK                            x       y       z     vdW  Elec       q    Type
REMARK                         _______ _______ _______ _____ _____    ______ ____
ROOT
ATOM      1  C   UNL     1       1.167   1.842   0.001  0.00  0.00    +0.138 C 
ATOM      2  C   UNL     1       0.639   3.251   0.013  0.00  0.00    +0.035 A 
ATOM      3  C   UNL     1       0.930   4.621   0.018  0.00  0.00    +0.105 A 
ATOM      4  N   UNL     1      -0.221   5.267   0.032  0.00  0.00    -0.172 NA
ATOM      5  N   UNL     1      -1.206   4.442   0.036  0.00  0.00    -0.272 N 
ATOM      6  H   UNL     1      -2.172   4.701   0.047  0.00  0.00    +0.189 HD
ATOM      7  C   UNL     1      -0.739   3.158   0.025  0.00  0.00    +0.126 A 
ATOM      8  C   UNL     1      -1.112   1.739   0.016  0.00  0.00    +0.263 C 
ATOM      9  O   UNL     1      -2.254   1.321   0.019  0.00  0.00    -0.269 OA
ATOM     10  N   UNL     1      -0.011   0.966   0.007  0.00  0.00    -0.299 N 
ATOM     11  H   UNL     1       0.002  -0.004   0.002  0.00  0.00    +0.150 HD
ENDROOT
BRANCH   1  15
ATOM     12  C   UNL     1       3.546   1.134   3.479  0.00  0.00    +0.120 A 
ATOM     13  C   UNL     1       4.157   1.381   2.258  0.00  0.00    +0.046 A 
ATOM     14  C   UNL     1       3.386   1.610   1.135  0.00  0.00    +0.009 A 
ATOM     15  C   UNL     1       2.006   1.593   1.228  0.00  0.00    -0.022 A 
ATOM     16  C   UNL     1       1.395   1.353   2.444  0.00  0.00    +0.009 A 
ATOM     17  C   UNL     1       2.162   1.118   3.569  0.00  0.00    +0.046 A 
BRANCH  12  19
ATOM     18  C   UNL     1       3.607   0.662   5.809  0.00  0.00    +0.277 C 
ATOM     19  O   UNL     1       4.303   0.909   4.585  0.00  0.00    -0.495 OA
ENDBRANCH  12  19
ENDBRANCH   1  15
BRANCH   3  20
ATOM     20  C   UNL     1       2.278   5.231   0.009  0.00  0.00    +0.040 A 
ATOM     21  C   UNL     1       2.700   6.380  -0.603  0.00  0.00    +0.018 A 
ATOM     22  C   UNL     1       4.019   6.757  -0.467  0.00  0.00    +0.008 A 
ATOM     23  C   UNL     1       4.859   5.974   0.258  0.00  0.00    +0.046 A 
ATOM     24  S   UNL     1       3.778   4.655   0.787  0.00  0.00    -0.095 S 
ENDBRANCH   3  20
TORSDOF 3
