REMARK  Name = ZINC12475896
REMARK  10 active torsions:
REMARK  status: ('A' for Active; 'I' for Inactive)
REMARK    1  A    between atoms: C_1  and  C_2
REMARK    2  A    between atoms: C_5  and  C_7
REMARK    3  A    between atoms: C_7  and  C_9
REMARK    4  A    between atoms: C_7  and  N_18
REMARK    5  A    between atoms: N_11  and  C_12
REMARK    6  A    between atoms: N_18  and  C_19
REMARK    7  A    between atoms: C_24  and  O_25
REMARK    8  A    between atoms: O_25  and  C_26
REMARK    9  A    between atoms: C_27  and  C_29
REMARK   10  A    between atoms: C_29  and  C_30
REMARK                            x       y       z     vdW  Elec       q    Type
REMARK                         _______ _______ _______ _____ _____    ______ ____
ROOT
ATOM      1  N   UNL     1      -1.973   2.549   3.429  0.00  0.00    -0.249 N 
ATOM      2  C   UNL     1      -3.247   2.124   3.313  0.00  0.00    +0.225 C 
ATOM      3  O   UNL     1      -3.716   1.377   4.146  0.00  0.00    -0.275 OA
ENDROOT
BRANCH   1   4
ATOM      4  C   UNL     1      -1.432   3.412   2.466  0.00  0.00    +0.079 A 
ATOM      5  C   UNL     1      -1.533   4.786   2.629  0.00  0.00    +0.027 A 
ATOM      6  C   UNL     1      -1.004   5.635   1.676  0.00  0.00    +0.002 A 
ATOM      7  C   UNL     1      -0.368   5.119   0.562  0.00  0.00    +0.004 A 
ATOM      8  C   UNL     1      -0.259   3.751   0.395  0.00  0.00    +0.047 A 
ATOM      9  C   UNL     1      -0.787   2.893   1.346  0.00  0.00    +0.141 A 
BRANCH   9  10
ATOM     10  O   UNL     1      -0.682   1.547   1.184  0.00  0.00    -0.493 OA
ATOM     11  C   UNL     1      -0.013   1.086   0.008  0.00  0.00    +0.277 C 
ENDBRANCH   9  10
ENDBRANCH   1   4
BRANCH   1  12
ATOM     12  C   UNL     1      -1.155   2.108   4.561  0.00  0.00    +0.233 C 
BRANCH  12  17
ATOM     13  C   UNL     1       2.825   0.859   1.725  0.00  0.00    +0.086 C 
ATOM     14  C   UNL     1       1.786   0.827   2.816  0.00  0.00    +0.102 A 
ATOM     15  C   UNL     1       1.703  -0.090   3.796  0.00  0.00    +0.045 A 
ATOM     16  C   UNL     1       0.590   0.263   4.594  0.00  0.00    +0.047 A 
ATOM     17  C   UNL     1       0.055   1.370   4.049  0.00  0.00    +0.135 A 
ATOM     18  O   UNL     1       0.785   1.709   2.974  0.00  0.00    -0.462 OA
ENDBRANCH  12  17
BRANCH  12  19
ATOM     19  C   UNL     1      -0.711   3.309   5.357  0.00  0.00    +0.242 C 
ATOM     20  O   UNL     1      -1.045   4.422   5.012  0.00  0.00    -0.273 OA
ATOM     21  N   UNL     1       0.058   3.145   6.452  0.00  0.00    -0.311 N 
ATOM     22  H   UNL     1       0.326   2.254   6.727  0.00  0.00    +0.149 HD
BRANCH  21  23
ATOM     23  C   UNL     1       0.490   4.312   7.225  0.00  0.00    +0.073 C 
ATOM     24  C   UNL     1       1.758   4.896   6.601  0.00  0.00    +0.022 C 
ATOM     25  C   UNL     1       2.209   6.115   7.410  0.00  0.00    +0.002 C 
ATOM     26  C   UNL     1       2.498   5.692   8.851  0.00  0.00    +0.000 C 
ATOM     27  C   UNL     1       1.229   5.108   9.475  0.00  0.00    +0.002 C 
ATOM     28  C   UNL     1       0.778   3.889   8.667  0.00  0.00    +0.022 C 
ENDBRANCH  21  23
ENDBRANCH  12  19
ENDBRANCH   1  12
BRANCH   2  29
ATOM     29  C   UNL     1      -4.089   2.577   2.148  0.00  0.00    +0.133 C 
BRANCH  29  30
ATOM     30  C   UNL     1      -5.462   1.964   2.252  0.00  0.00    -0.014 A 
ATOM     31  C   UNL     1      -5.882   0.839   1.652  0.00  0.00    +0.087 A 
ATOM     32  N   UNL     1      -7.187   0.594   1.982  0.00  0.00    -0.360 N 
ATOM     33  H   UNL     1      -7.708  -0.164   1.672  0.00  0.00    +0.165 HD
ATOM     34  C   UNL     1      -7.654   1.585   2.817  0.00  0.00    +0.047 A 
ATOM     35  C   UNL     1      -6.593   2.486   3.023  0.00  0.00    +0.003 A 
ATOM     36  C   UNL     1      -6.778   3.604   3.838  0.00  0.00    +0.010 A 
ATOM     37  C   UNL     1      -7.990   3.817   4.433  0.00  0.00    +0.001 A 
ATOM     38  C   UNL     1      -9.039   2.931   4.233  0.00  0.00    +0.002 A 
ATOM     39  C   UNL     1      -8.878   1.821   3.432  0.00  0.00    +0.026 A 
ENDBRANCH  29  30
ENDBRANCH   2  29
TORSDOF 8
