REMARK  Name = ZINC16423988
REMARK  9 active torsions:
REMARK  status: ('A' for Active; 'I' for Inactive)
REMARK    1  A    between atoms: C_1  and  C_2
REMARK    2  A    between atoms: C_5  and  S_8
REMARK    3  A    between atoms: S_8  and  C_9
REMARK    4  A    between atoms: C_12  and  N_30
REMARK    5  A    between atoms: C_14  and  C_15
REMARK    6  A    between atoms: C_15  and  N_16
REMARK    7  A    between atoms: N_16  and  C_17
REMARK    8  A    between atoms: N_20  and  C_23
REMARK    9  A    between atoms: C_23  and  C_24
REMARK                            x       y       z     vdW  Elec       q    Type
REMARK                         _______ _______ _______ _____ _____    ______ ____
ROOT
ATOM      1  C   UNL     1       0.225  -4.966   1.677  0.00  0.00    +0.017 A 
ATOM      2  C   UNL     1       0.191  -3.977   2.654  0.00  0.00    +0.017 A 
ATOM      3  C   UNL     1       0.319  -4.320   3.985  0.00  0.00    +0.034 A 
ATOM      4  C   UNL     1       0.481  -5.646   4.347  0.00  0.00    +0.127 A 
ATOM      5  C   UNL     1       0.515  -6.631   3.378  0.00  0.00    +0.038 A 
ATOM      6  C   UNL     1       0.382  -6.296   2.045  0.00  0.00    -0.018 A 
ENDROOT
BRANCH   4   7
ATOM      7  N   UNL     1       0.618  -6.009   5.776  0.00  0.00    +0.056 N 
ATOM      8  O   UNL     1       0.589  -5.148   6.624  0.00  0.00    -0.126 OA
ATOM      9  O   UNL     1       0.759  -7.167   6.094  0.00  0.00    -0.126 OA
ENDBRANCH   4   7
BRANCH   1  10
ATOM     10  S   UNL     1       0.062  -4.533  -0.023  0.00  0.00    -0.089 S 
BRANCH  10  15
ATOM     11  C   UNL     1      -0.002   1.503   0.004  0.00  0.00    +0.044 C 
ATOM     12  C   UNL     1       0.014  -0.004  -0.002  0.00  0.00    -0.050 A 
ATOM     13  C   UNL     1       1.220  -0.681  -0.014  0.00  0.00    +0.004 A 
ATOM     14  C   UNL     1       1.238  -2.062  -0.021  0.00  0.00    +0.015 A 
ATOM     15  C   UNL     1       0.043  -2.771  -0.014  0.00  0.00    +0.013 A 
ATOM     16  C   UNL     1      -1.167  -2.087  -0.002  0.00  0.00    +0.015 A 
ATOM     17  C   UNL     1      -1.177  -0.706   0.010  0.00  0.00    +0.004 A 
ENDBRANCH  10  15
ENDBRANCH   1  10
BRANCH   6  18
ATOM     18  C   UNL     1       0.413  -7.372   0.990  0.00  0.00    +0.117 C 
BRANCH  18  19
ATOM     19  N   UNL     1       1.749  -7.421   0.381  0.00  0.00    -0.309 NA
ATOM     20  H   UNL     1       2.009  -6.521   0.006  0.00  0.00    +0.123 HD
BRANCH  19  21
ATOM     21  C   UNL     1       1.817  -8.461  -0.655  0.00  0.00    +0.050 C 
ATOM     22  C   UNL     1       1.314  -7.893  -1.985  0.00  0.00    -0.000 C 
ATOM     23  C   UNL     1       1.461  -8.956  -3.076  0.00  0.00    -0.077 C 
ATOM     24  N   UNL     1       2.873  -9.335  -3.207  0.00  0.00    +0.382 N 
ATOM     25  C   UNL     1       3.343  -9.946  -1.958  0.00  0.00    -0.077 C 
ATOM     26  C   UNL     1       3.268  -8.921  -0.824  0.00  0.00    -0.000 C 
ATOM     27  H   UNL     1       3.424  -8.513  -3.406  0.00  0.00    -0.081 HD
BRANCH  24  28
ATOM     28  C   UNL     1       3.020 -10.297  -4.308  0.00  0.00    -0.043 C 
BRANCH  28  29
ATOM     29  C   UNL     1       4.482 -10.593  -4.524  0.00  0.00    -0.064 A 
ATOM     30  C   UNL     1       5.222  -9.821  -5.400  0.00  0.00    +0.002 A 
ATOM     31  C   UNL     1       6.562 -10.093  -5.598  0.00  0.00    +0.000 A 
ATOM     32  C   UNL     1       7.164 -11.136  -4.920  0.00  0.00    +0.000 A 
ATOM     33  C   UNL     1       6.425 -11.908  -4.043  0.00  0.00    +0.000 A 
ATOM     34  C   UNL     1       5.085 -11.633  -3.841  0.00  0.00    +0.002 A 
ENDBRANCH  28  29
ENDBRANCH  24  28
ENDBRANCH  19  21
ENDBRANCH  18  19
ENDBRANCH   6  18
TORSDOF 8
