REMARK  Name = ZINC21762276
REMARK  8 active torsions:
REMARK  status: ('A' for Active; 'I' for Inactive)
REMARK    1  A    between atoms: C_1  and  C_2
REMARK    2  A    between atoms: C_2  and  C_3
REMARK    3  A    between atoms: C_2  and  C_4
REMARK    4  A    between atoms: C_4  and  C_6
REMARK    5  A    between atoms: C_4  and  N_17
REMARK    6  A    between atoms: C_18  and  C_20
REMARK    7  A    between atoms: C_20  and  S_21
REMARK    8  A    between atoms: S_21  and  C_22
REMARK                            x       y       z     vdW  Elec       q    Type
REMARK                         _______ _______ _______ _____ _____    ______ ____
ROOT
ATOM      1  N   UNL     1      -1.982   6.146   0.045  0.00  0.00    -0.308 N 
ATOM      2  C   UNL     1      -2.172   4.812   0.038  0.00  0.00    +0.224 C 
ATOM      3  O   UNL     1      -3.297   4.359   0.041  0.00  0.00    -0.275 OA
ATOM      4  H   UNL     1      -0.962   6.557   0.042  0.00  0.00    +0.149 HD
ENDROOT
BRANCH   1   5
ATOM      5  C   UNL     1      -3.136   7.050   0.055  0.00  0.00    +0.106 C 
BRANCH   5   6
ATOM      6  C   UNL     1      -2.734   8.370   0.661  0.00  0.00    -0.023 A 
ATOM      7  C   UNL     1      -1.500   8.918   0.364  0.00  0.00    +0.009 A 
ATOM      8  C   UNL     1      -1.124  10.129   0.916  0.00  0.00    +0.050 A 
ATOM      9  C   UNL     1      -1.990  10.792   1.770  0.00  0.00    +0.162 A 
ATOM     10  C   UNL     1      -3.229  10.243   2.067  0.00  0.00    +0.162 A 
ATOM     11  C   UNL     1      -3.604   9.033   1.508  0.00  0.00    +0.055 A 
ATOM     12  O   UNL     1      -4.075  10.904   2.910  0.00  0.00    -0.488 OA
ATOM     13  C   UNL     1      -4.620  12.128   2.413  0.00  0.00    +0.232 C 
ATOM     14  C   UNL     1      -3.659  13.282   2.653  0.00  0.00    +0.082 C 
ATOM     15  C   UNL     1      -2.364  13.129   1.872  0.00  0.00    +0.232 C 
ATOM     16  O   UNL     1      -1.632  11.987   2.323  0.00  0.00    -0.488 OA
ENDBRANCH   5   6
BRANCH   5  18
ATOM     17  C   UNL     1      -4.029   5.933  -1.994  0.00  0.00    +0.009 C 
ATOM     18  C   UNL     1      -3.621   7.273  -1.379  0.00  0.00    +0.008 C 
ATOM     19  C   UNL     1      -4.826   8.217  -1.368  0.00  0.00    +0.009 C 
ENDBRANCH   5  18
ENDBRANCH   1   5
BRANCH   2  20
ATOM     20  C   UNL     1      -0.985   3.883   0.028  0.00  0.00    +0.173 C 
BRANCH  20  21
ATOM     21  S   UNL     1      -1.563   2.167   0.021  0.00  0.00    -0.077 S 
BRANCH  21  22
ATOM     22  C   UNL     1      -0.016   1.324   0.009  0.00  0.00    +0.191 A 
ATOM     23  N   UNL     1       0.002  -0.004   0.002  0.00  0.00    -0.207 NA
ATOM     24  C   UNL     1       1.131  -0.691  -0.012  0.00  0.00    +0.129 A 
ATOM     25  C   UNL     1       2.372   0.007  -0.021  0.00  0.00    +0.047 A 
ATOM     26  C   UNL     1       3.728  -0.514  -0.036  0.00  0.00    +0.021 A 
ATOM     27  C   UNL     1       4.759   0.344  -0.041  0.00  0.00    +0.048 A 
ATOM     28  S   UNL     1       3.970   1.943  -0.025  0.00  0.00    -0.077 S 
ATOM     29  C   UNL     1       2.277   1.415  -0.012  0.00  0.00    +0.114 A 
ATOM     30  N   UNL     1       1.109   2.027   0.002  0.00  0.00    -0.215 NA
ATOM     31  N   UNL     1       1.108  -2.074  -0.020  0.00  0.00    -0.343 N 
ATOM     32  H   UNL     1       2.051  -2.640  -0.032  0.00  0.00    +0.144 HD
ATOM     33  H   UNL     1       0.146  -2.607  -0.014  0.00  0.00    +0.144 HD
ENDBRANCH  21  22
ENDBRANCH  20  21
ENDBRANCH   2  20
TORSDOF 6
