REMARK  Name = ZINC24775684
REMARK  9 active torsions:
REMARK  status: ('A' for Active; 'I' for Inactive)
REMARK    1  A    between atoms: C_1  and  C_2
REMARK    2  A    between atoms: C_2  and  N_3
REMARK    3  A    between atoms: C_7  and  C_30
REMARK    4  A    between atoms: C_8  and  C_29
REMARK    5  A    between atoms: C_12  and  S_13
REMARK    6  A    between atoms: S_13  and  C_14
REMARK    7  A    between atoms: C_14  and  C_15
REMARK    8  A    between atoms: N_20  and  C_21
REMARK    9  A    between atoms: C_26  and  C_27
REMARK                            x       y       z     vdW  Elec       q    Type
REMARK                         _______ _______ _______ _____ _____    ______ ____
ROOT
ATOM      1  C   UNL     1       1.277   2.116  -0.031  0.00  0.00    +0.173 C 
ENDROOT
BRANCH   1   2
ATOM      2  C   UNL     1      -0.018   1.344  -0.012  0.00  0.00    +0.231 C 
ATOM      3  O   UNL     1      -1.076   1.935   0.001  0.00  0.00    -0.274 OA
ATOM      4  N   UNL     1       0.001  -0.004  -0.013  0.00  0.00    -0.239 N 
ATOM      5  C   UNL     1      -1.156  -0.694   0.004  0.00  0.00    +0.310 C 
ATOM      6  O   UNL     1      -2.217  -0.101   0.021  0.00  0.00    -0.252 OA
ATOM      7  N   UNL     1      -1.137  -2.041   0.002  0.00  0.00    -0.268 N 
ATOM      8  H   UNL     1       0.961  -0.540  -0.029  0.00  0.00    +0.159 HD
ATOM      9  H   UNL     1      -0.181  -2.578  -0.088  0.00  0.00    +0.156 HD
BRANCH   7  10
ATOM     10  C   UNL     1      -2.329  -2.755   0.115  0.00  0.00    +0.052 A 
ATOM     11  C   UNL     1      -3.493  -2.265  -0.462  0.00  0.00    +0.024 A 
ATOM     12  C   UNL     1      -4.672  -2.976  -0.353  0.00  0.00    +0.002 A 
ATOM     13  C   UNL     1      -4.706  -4.176   0.339  0.00  0.00    +0.001 A 
ATOM     14  C   UNL     1      -3.561  -4.675   0.923  0.00  0.00    +0.021 A 
ATOM     15  C   UNL     1      -2.360  -3.970   0.817  0.00  0.00    +0.073 A 
BRANCH  15  16
ATOM     16  C   UNL     1      -1.168  -4.483   1.421  0.00  0.00    +0.101 C 
ATOM     17  N   UNL     1      -0.222  -4.890   1.900  0.00  0.00    -0.191 NA
ENDBRANCH  15  16
ENDBRANCH   7  10
ENDBRANCH   1   2
BRANCH   1  18
ATOM     18  S   UNL     1       0.921   3.890  -0.023  0.00  0.00    -0.078 S 
BRANCH  18  28
ATOM     19  N   UNL     1       2.758   5.882  -0.050  0.00  0.00    -0.288 N 
ATOM     20  C   UNL     1       3.996   6.408  -0.068  0.00  0.00    +0.263 A 
ATOM     21  O   UNL     1       4.153   7.617  -0.069  0.00  0.00    -0.267 OA
ATOM     22  C   UNL     1       5.126   5.531  -0.086  0.00  0.00    +0.075 A 
ATOM     23  C   UNL     1       6.542   5.855  -0.108  0.00  0.00    -0.026 A 
ATOM     24  C   UNL     1       7.441   4.860  -0.124  0.00  0.00    -0.008 A 
ATOM     25  S   UNL     1       6.433   3.390  -0.110  0.00  0.00    -0.073 S 
ATOM     26  C   UNL     1       4.832   4.154  -0.084  0.00  0.00    +0.117 A 
ATOM     27  N   UNL     1       3.585   3.700  -0.060  0.00  0.00    -0.216 NA
ATOM     28  C   UNL     1       2.562   4.531  -0.049  0.00  0.00    +0.173 A 
ATOM     29  C   UNL     1       8.945   4.961  -0.148  0.00  0.00    +0.052 C 
ATOM     30  C   UNL     1       6.995   7.292  -0.112  0.00  0.00    +0.045 C 
BRANCH  19  32
ATOM     31  C   UNL     1       1.216   7.085   1.418  0.00  0.00    +0.027 C 
ATOM     32  C   UNL     1       1.597   6.776  -0.031  0.00  0.00    +0.124 C 
ENDBRANCH  19  32
ENDBRANCH  18  28
ENDBRANCH   1  18
TORSDOF 6
