REMARK  Name = ZINC24848053
REMARK  6 active torsions:
REMARK  status: ('A' for Active; 'I' for Inactive)
REMARK    1  A    between atoms: C_1  and  C_2
REMARK    2  A    between atoms: C_2  and  C_4
REMARK    3  A    between atoms: C_2  and  S_21
REMARK    4  A    between atoms: C_9  and  C_12
REMARK    5  A    between atoms: C_16  and  N_18
REMARK    6  A    between atoms: S_21  and  C_22
REMARK                            x       y       z     vdW  Elec       q    Type
REMARK                         _______ _______ _______ _____ _____    ______ ____
ROOT
ATOM      1  C   UNL     1      -1.734  -0.371  -0.407  0.00  0.00    +0.232 C 
ATOM      2  O   UNL     1      -2.117  -0.621  -1.530  0.00  0.00    -0.274 OA
ATOM      3  N   UNL     1      -2.598  -0.416   0.626  0.00  0.00    -0.264 N 
ATOM      4  C   UNL     1      -3.929  -0.749   0.404  0.00  0.00    +0.165 A 
ATOM      5  N   UNL     1      -4.922  -0.842   1.268  0.00  0.00    -0.225 NA
ATOM      6  C   UNL     1      -6.144  -1.175   0.880  0.00  0.00    +0.080 A 
ATOM      7  C   UNL     1      -6.381  -1.428  -0.443  0.00  0.00    +0.076 A 
ATOM      8  S   UNL     1      -4.752  -1.157  -1.129  0.00  0.00    -0.060 S 
ATOM      9  H   UNL     1      -2.292  -0.216   1.524  0.00  0.00    +0.157 HD
ENDROOT
BRANCH   6  10
ATOM     10  C   UNL     1      -7.243  -1.273   1.870  0.00  0.00    +0.003 A 
ATOM     11  C   UNL     1      -8.526  -1.631   1.457  0.00  0.00    +0.010 A 
ATOM     12  C   UNL     1      -9.546  -1.720   2.383  0.00  0.00    +0.003 A 
ATOM     13  C   UNL     1      -9.297  -1.457   3.718  0.00  0.00    +0.033 A 
ATOM     14  C   UNL     1      -8.026  -1.102   4.133  0.00  0.00    +0.127 A 
ATOM     15  C   UNL     1      -6.997  -1.015   3.217  0.00  0.00    +0.042 A 
BRANCH  14  16
ATOM     16  N   UNL     1      -7.768  -0.821   5.563  0.00  0.00    +0.056 N 
ATOM     17  O   UNL     1      -8.667  -0.902   6.367  0.00  0.00    -0.126 OA
ATOM     18  O   UNL     1      -6.657  -0.511   5.927  0.00  0.00    -0.126 OA
ENDBRANCH  14  16
ENDBRANCH   6  10
BRANCH   1  20
ATOM     19  C   UNL     1      -0.159   1.509  -0.040  0.00  0.00    +0.029 C 
ATOM     20  C   UNL     1      -0.290  -0.010  -0.166  0.00  0.00    +0.134 C 
BRANCH  20  21
ATOM     21  S   UNL     1       0.718  -0.591  -1.558  0.00  0.00    -0.113 S 
BRANCH  21  22
ATOM     22  C   UNL     1       0.672  -2.346  -1.415  0.00  0.00    +0.012 A 
ATOM     23  C   UNL     1       0.059  -2.937  -0.318  0.00  0.00    +0.018 A 
ATOM     24  C   UNL     1       0.021  -4.315  -0.202  0.00  0.00    +0.050 A 
ATOM     25  C   UNL     1       0.596  -5.104  -1.183  0.00  0.00    +0.162 A 
ATOM     26  C   UNL     1       1.210  -4.517  -2.280  0.00  0.00    +0.163 A 
ATOM     27  C   UNL     1       1.246  -3.139  -2.402  0.00  0.00    +0.064 A 
ATOM     28  O   UNL     1       1.772  -5.307  -3.241  0.00  0.00    -0.488 OA
ATOM     29  C   UNL     1       2.937  -6.036  -2.848  0.00  0.00    +0.232 C 
ATOM     30  C   UNL     1       2.552  -7.338  -2.163  0.00  0.00    +0.082 C 
ATOM     31  C   UNL     1       1.820  -7.106  -0.851  0.00  0.00    +0.232 C 
ATOM     32  O   UNL     1       0.563  -6.465  -1.078  0.00  0.00    -0.488 OA
ENDBRANCH  21  22
ENDBRANCH  20  21
ENDBRANCH   1  20
TORSDOF 5
