REMARK  Name = ZINC39668525
REMARK  8 active torsions:
REMARK  status: ('A' for Active; 'I' for Inactive)
REMARK    1  A    between atoms: C_1  and  C_2
REMARK    2  A    between atoms: C_2  and  C_4
REMARK    3  A    between atoms: C_2  and  O_32
REMARK    4  A    between atoms: C_4  and  N_5
REMARK    5  A    between atoms: C_6  and  C_8
REMARK    6  A    between atoms: C_19  and  C_21
REMARK    7  A    between atoms: C_24  and  C_28
REMARK    8  A    between atoms: O_32  and  C_33
REMARK                            x       y       z     vdW  Elec       q    Type
REMARK                         _______ _______ _______ _____ _____    ______ ____
ROOT
ATOM      1  C   UNL     1      -2.490  -3.922   0.217  0.00  0.00    +0.100 C 
ATOM      2  C   UNL     1      -1.690  -4.447  -0.997  0.00  0.00    +0.121 C 
ATOM      3  N   UNL     1      -2.402  -5.680  -1.410  0.00  0.00    -0.296 N 
ATOM      4  C   UNL     1      -3.838  -5.348  -1.249  0.00  0.00    +0.115 C 
ATOM      5  C   UNL     1      -3.899  -4.515   0.047  0.00  0.00    -0.004 C 
ATOM      6  C   UNL     1      -4.929  -3.398  -0.093  0.00  0.00    -0.010 C 
ATOM      7  C   UNL     1      -6.328  -4.010  -0.202  0.00  0.00    -0.082 C 
ATOM      8  N   UNL     1      -6.607  -4.813   0.995  0.00  0.00    +0.379 N 
ATOM      9  C   UNL     1      -5.670  -5.940   1.071  0.00  0.00    -0.082 C 
ATOM     10  C   UNL     1      -4.243  -5.410   1.234  0.00  0.00    -0.010 C 
ATOM     11  C   UNL     1      -1.865  -6.841  -1.835  0.00  0.00    +0.247 C 
ATOM     12  O   UNL     1      -0.660  -6.999  -1.808  0.00  0.00    -0.270 OA
ATOM     13  H   UNL     1      -6.506  -4.237   1.817  0.00  0.00    -0.086 HD
ATOM     14  H   UNL     1      -7.552  -5.165   0.949  0.00  0.00    -0.086 HD
ENDROOT
BRANCH  11  15
ATOM     15  C   UNL     1      -2.742  -7.922  -2.333  0.00  0.00    +0.040 A 
ATOM     16  C   UNL     1      -4.002  -7.619  -2.852  0.00  0.00    +0.014 A 
ATOM     17  C   UNL     1      -4.816  -8.632  -3.316  0.00  0.00    +0.016 A 
ATOM     18  C   UNL     1      -4.386  -9.946  -3.268  0.00  0.00    +0.090 A 
ATOM     19  C   UNL     1      -3.137 -10.255  -2.754  0.00  0.00    +0.136 A 
ATOM     20  C   UNL     1      -2.311  -9.248  -2.292  0.00  0.00    +0.052 A 
ATOM     21  F   UNL     1      -2.725 -11.540  -2.710  0.00  0.00    -0.205 F 
BRANCH  18  22
ATOM     22  C   UNL     1      -5.281 -11.047  -3.777  0.00  0.00    +0.420 C 
ATOM     23  F   UNL     1      -6.480 -10.495  -4.242  0.00  0.00    -0.166 F 
ATOM     24  F   UNL     1      -4.642 -11.722  -4.822  0.00  0.00    -0.166 F 
ATOM     25  F   UNL     1      -5.553 -11.944  -2.739  0.00  0.00    -0.166 F 
ENDBRANCH  18  22
ENDBRANCH  11  15
BRANCH   1  27
ATOM     26  N   UNL     1      -2.618  -1.729   1.352  0.00  0.00    -0.312 N 
ATOM     27  C   UNL     1      -2.548  -2.417   0.196  0.00  0.00    +0.218 C 
ATOM     28  O   UNL     1      -2.532  -1.824  -0.863  0.00  0.00    -0.275 OA
ATOM     29  H   UNL     1      -2.631  -2.203   2.199  0.00  0.00    +0.149 HD
BRANCH  26  30
ATOM     30  C   UNL     1      -2.674  -0.265   1.332  0.00  0.00    +0.148 C 
BRANCH  30  32
ATOM     31  C   UNL     1      -2.806   1.792   2.744  0.00  0.00    +0.053 C 
ATOM     32  C   UNL     1      -2.748   0.263   2.766  0.00  0.00    +0.187 C 
BRANCH  32  33
ATOM     33  O   UNL     1      -3.920  -0.250   3.402  0.00  0.00    -0.486 OA
BRANCH  33  34
ATOM     34  C   UNL     1      -3.831  -0.525   4.730  0.00  0.00    +0.139 A 
ATOM     35  C   UNL     1      -2.681  -0.200   5.442  0.00  0.00    +0.049 A 
ATOM     36  C   UNL     1      -2.636  -0.500   6.794  0.00  0.00    +0.023 A 
ATOM     37  C   UNL     1      -3.728  -1.108   7.387  0.00  0.00    +0.111 A 
ATOM     38  N   UNL     1      -4.803  -1.403   6.683  0.00  0.00    -0.260 NA
ATOM     39  C   UNL     1      -4.888  -1.129   5.396  0.00  0.00    +0.156 A 
ENDBRANCH  33  34
ENDBRANCH  32  33
ENDBRANCH  30  32
ENDBRANCH  26  30
ENDBRANCH   1  27
TORSDOF 7
