REMARK  Name = ZINC28059577
REMARK  6 active torsions:
REMARK  status: ('A' for Active; 'I' for Inactive)
REMARK    1  A    between atoms: C_1  and  O_2
REMARK    2  A    between atoms: O_2  and  C_3
REMARK    3  A    between atoms: C_6  and  C_11
REMARK    4  A    between atoms: C_8  and  O_9
REMARK    5  A    between atoms: O_9  and  C_10
REMARK    6  A    between atoms: C_22  and  C_24
REMARK                            x       y       z     vdW  Elec       q    Type
REMARK                         _______ _______ _______ _____ _____    ______ ____
ROOT
ATOM      1  C   UNL     1      -1.404   7.415  -0.303  0.00  0.00    +0.174 C 
ATOM      2  C   UNL     1      -1.244   5.915  -0.291  0.00  0.00    +0.026 C 
ATOM      3  C   UNL     1      -0.095   5.322   0.037  0.00  0.00    +0.050 C 
ATOM      4  C   UNL     1      -0.036   3.841   0.024  0.00  0.00    +0.038 A 
ATOM      5  C   UNL     1       1.175   3.160   0.008  0.00  0.00    +0.013 A 
ATOM      6  C   UNL     1       1.180   1.779   0.000  0.00  0.00    +0.001 A 
ATOM      7  C   UNL     1      -0.013   1.076   0.008  0.00  0.00    +0.004 A 
ATOM      8  C   UNL     1      -1.223   1.746   0.017  0.00  0.00    +0.046 A 
ATOM      9  C   UNL     1      -1.242   3.128   0.030  0.00  0.00    +0.131 A 
ATOM     10  O   UNL     1      -2.408   3.823   0.042  0.00  0.00    -0.479 OA
ATOM     11  C   UNL     1      -2.433   5.060  -0.669  0.00  0.00    +0.241 C 
ATOM     12  N   UNL     1       1.046   6.049   0.397  0.00  0.00    -0.282 N 
ATOM     13  C   UNL     1       0.878   7.395   0.679  0.00  0.00    +0.240 A 
ATOM     14  N   UNL     1      -0.272   8.045   0.362  0.00  0.00    -0.201 N 
ATOM     15  N   UNL     1      -0.092   9.356   0.802  0.00  0.00    -0.042 NA
ATOM     16  N   UNL     1       1.092   9.410   1.321  0.00  0.00    -0.021 NA
ATOM     17  N   UNL     1       1.667   8.258   1.250  0.00  0.00    -0.092 NA
ATOM     18  H   UNL     1       2.025   5.549   0.447  0.00  0.00    +0.155 HD
ENDROOT
BRANCH   1  22
ATOM     19  C   UNL     1      -1.597   8.784  -4.350  0.00  0.00    +0.162 A 
ATOM     20  C   UNL     1      -0.476   8.106  -3.897  0.00  0.00    +0.050 A 
ATOM     21  C   UNL     1      -0.414   7.670  -2.587  0.00  0.00    +0.010 A 
ATOM     22  C   UNL     1      -1.474   7.898  -1.729  0.00  0.00    -0.015 A 
ATOM     23  C   UNL     1      -2.595   8.574  -2.174  0.00  0.00    +0.055 A 
ATOM     24  C   UNL     1      -2.661   9.019  -3.484  0.00  0.00    +0.162 A 
BRANCH  19  26
ATOM     25  C   UNL     1      -0.528   8.943  -6.469  0.00  0.00    +0.277 C 
ATOM     26  O   UNL     1      -1.657   9.219  -5.637  0.00  0.00    -0.491 OA
ENDBRANCH  19  26
BRANCH  24  27
ATOM     27  O   UNL     1      -3.764   9.683  -3.924  0.00  0.00    -0.491 OA
ATOM     28  C   UNL     1      -4.817   9.887  -2.980  0.00  0.00    +0.277 C 
ENDBRANCH  24  27
ENDBRANCH   1  22
BRANCH  11  29
ATOM     29  C   UNL     1      -2.394   4.783  -2.150  0.00  0.00    +0.034 A 
ATOM     30  C   UNL     1      -3.015   5.443  -3.158  0.00  0.00    +0.015 A 
ATOM     31  C   UNL     1      -2.833   5.007  -4.457  0.00  0.00    +0.008 A 
ATOM     32  C   UNL     1      -2.038   3.933  -4.684  0.00  0.00    +0.045 A 
ATOM     33  S   UNL     1      -1.512   3.507  -3.032  0.00  0.00    -0.098 S 
ENDBRANCH  11  29
TORSDOF 4
