REMARK  Name = ZINC40422664
REMARK  5 active torsions:
REMARK  status: ('A' for Active; 'I' for Inactive)
REMARK    1  A    between atoms: C_1  and  C_2
REMARK    2  A    between atoms: C_4  and  C_16
REMARK    3  A    between atoms: C_4  and  C_23
REMARK    4  A    between atoms: C_6  and  C_8
REMARK    5  A    between atoms: C_10  and  C_14
REMARK                            x       y       z     vdW  Elec       q    Type
REMARK                         _______ _______ _______ _____ _____    ______ ____
ROOT
ATOM      1  C   UNL     1      -0.098   1.524  -0.030  0.00  0.00    +0.031 C 
ATOM      2  C   UNL     1      -0.044  -0.005  -0.022  0.00  0.00    +0.103 C 
ATOM      3  C   UNL     1       0.658  -0.532  -1.289  0.00  0.00    +0.111 C 
ATOM      4  N   UNL     1       1.832  -1.250  -0.773  0.00  0.00    -0.356 N 
ATOM      5  C   UNL     1       1.860  -1.188   0.516  0.00  0.00    +0.119 C 
ATOM      6  N   UNL     1       0.815  -0.489   1.071  0.00  0.00    -0.324 N 
ATOM      7  H   UNL     1       0.668  -0.339   2.018  0.00  0.00    +0.148 HD
ATOM      8  H   UNL     1       2.490  -1.704  -1.322  0.00  0.00    +0.162 HD
ENDROOT
BRANCH   3   9
ATOM      9  C   UNL     1      -0.246  -1.472  -2.043  0.00  0.00    +0.002 A 
ATOM     10  C   UNL     1       0.288  -2.511  -2.792  0.00  0.00    +0.012 A 
ATOM     11  C   UNL     1      -0.581  -3.351  -3.468  0.00  0.00    +0.059 A 
ATOM     12  C   UNL     1      -1.945  -3.128  -3.375  0.00  0.00    +0.213 A 
ATOM     13  N   UNL     1      -2.417  -2.129  -2.652  0.00  0.00    -0.227 NA
ATOM     14  C   UNL     1      -1.617  -1.314  -1.991  0.00  0.00    +0.120 A 
ATOM     15  F   UNL     1      -2.802  -3.942  -4.030  0.00  0.00    -0.184 F 
ENDBRANCH   3   9
BRANCH   3  16
ATOM     16  C   UNL     1       1.085   0.613  -2.171  0.00  0.00    +0.002 A 
ATOM     17  C   UNL     1       0.181   1.202  -3.043  0.00  0.00    +0.012 A 
ATOM     18  C   UNL     1       0.616   2.252  -3.834  0.00  0.00    +0.059 A 
ATOM     19  C   UNL     1       1.931   2.676  -3.730  0.00  0.00    +0.213 A 
ATOM     20  N   UNL     1       2.763   2.090  -2.889  0.00  0.00    -0.227 NA
ATOM     21  C   UNL     1       2.380   1.091  -2.117  0.00  0.00    +0.120 A 
ATOM     22  F   UNL     1       2.366   3.699  -4.498  0.00  0.00    -0.184 F 
ENDBRANCH   3  16
BRANCH   5  23
ATOM     23  C   UNL     1       2.927  -1.821   1.329  0.00  0.00    +0.102 A 
ATOM     24  C   UNL     1       2.888  -1.717   2.716  0.00  0.00    +0.050 A 
ATOM     25  C   UNL     1       3.901  -2.320   3.467  0.00  0.00    +0.055 A 
ATOM     26  C   UNL     1       4.914  -3.003   2.784  0.00  0.00    +0.038 A 
ATOM     27  C   UNL     1       4.878  -3.058   1.403  0.00  0.00    +0.113 A 
ATOM     28  N   UNL     1       3.905  -2.483   0.727  0.00  0.00    -0.252 NA
BRANCH  25  29
ATOM     29  C   UNL     1       3.904  -2.240   4.897  0.00  0.00    +0.099 C 
ATOM     30  N   UNL     1       3.905  -2.176   6.031  0.00  0.00    -0.191 NA
ENDBRANCH  25  29
ENDBRANCH   5  23
TORSDOF 4
