REMARK  Name = ZINC39095114
REMARK  4 active torsions:
REMARK  status: ('A' for Active; 'I' for Inactive)
REMARK    1  A    between atoms: C_1  and  C_2
REMARK    2  A    between atoms: C_5  and  O_29
REMARK    3  A    between atoms: C_10  and  O_28
REMARK    4  A    between atoms: C_18  and  C_27
REMARK                            x       y       z     vdW  Elec       q    Type
REMARK                         _______ _______ _______ _____ _____    ______ ____
ROOT
ATOM      1  C   UNL     1      -0.019   1.526   0.010  0.00  0.00    +0.016 C 
ATOM      2  C   UNL     1       0.002  -0.004   0.002  0.00  0.00    -0.008 C 
ATOM      3  C   UNL     1      -1.446  -0.500   0.055  0.00  0.00    +0.014 C 
ATOM      4  C   UNL     1      -2.086  -0.056   1.372  0.00  0.00    +0.032 C 
ATOM      5  C   UNL     1      -1.348  -0.699   2.547  0.00  0.00    +0.119 C 
ATOM      6  C   UNL     1       0.098  -0.193   2.579  0.00  0.00    +0.062 C 
ATOM      7  C   UNL     1       0.733  -0.468   1.227  0.00  0.00    -0.062 C 
ATOM      8  C   UNL     1       1.873  -1.093   1.198  0.00  0.00    +0.004 C 
ATOM      9  C   UNL     1       2.589  -1.429  -0.078  0.00  0.00    +0.141 C 
ATOM     10  C   UNL     1       2.186  -0.423  -1.162  0.00  0.00    +0.029 C 
ATOM     11  C   UNL     1       0.648  -0.462  -1.295  0.00  0.00    +0.005 C 
ATOM     12  C   UNL     1       0.156   0.406  -2.450  0.00  0.00    +0.006 C 
ATOM     13  C   UNL     1       0.839   0.031  -3.775  0.00  0.00    +0.015 C 
ATOM     14  C   UNL     1       2.334   0.176  -3.563  0.00  0.00    +0.031 C 
ATOM     15  C   UNL     1       2.789  -0.843  -2.491  0.00  0.00    +0.010 C 
ATOM     16  C   UNL     1       4.319  -0.772  -2.577  0.00  0.00    +0.027 C 
ATOM     17  C   UNL     1       4.564  -0.633  -4.105  0.00  0.00    +0.123 C 
ATOM     18  C   UNL     1       3.216  -0.132  -4.737  0.00  0.00    +0.153 C 
ATOM     19  O   UNL     1       2.963   0.048  -5.904  0.00  0.00    -0.296 OA
ATOM     20 BR   UNL     1       4.934  -2.397  -4.890  0.00  0.00    -0.080 Br
ATOM     21  C   UNL     1       2.647   1.577  -3.035  0.00  0.00    +0.019 C 
ENDROOT
BRANCH   9  22
ATOM     22  O   UNL     1       2.230  -2.749  -0.493  0.00  0.00    -0.387 OA
ATOM     23  H   UNL     1       2.453  -3.437   0.149  0.00  0.00    +0.210 HD
ENDBRANCH   9  22
BRANCH   5  24
ATOM     24  O   UNL     1      -1.351  -2.119   2.392  0.00  0.00    -0.391 OA
ATOM     25  H   UNL     1      -2.236  -2.510   2.364  0.00  0.00    +0.210 HD
ENDBRANCH   5  24
TORSDOF 2
