REMARK  Name = ZINC33767468
REMARK  11 active torsions:
REMARK  status: ('A' for Active; 'I' for Inactive)
REMARK    1  A    between atoms: C_1  and  C_2
REMARK    2  A    between atoms: C_7  and  N_12
REMARK    3  A    between atoms: C_9  and  C_11
REMARK    4  A    between atoms: C_13  and  C_15
REMARK    5  A    between atoms: C_23  and  C_35
REMARK    6  A    between atoms: N_29  and  C_30
REMARK    7  A    between atoms: C_30  and  C_31
REMARK    8  A    between atoms: C_31  and  C_32
REMARK    9  A    between atoms: C_32  and  C_33
REMARK   10  A    between atoms: C_32  and  C_34
REMARK   11  A    between atoms: N_37  and  C_38
REMARK                            x       y       z     vdW  Elec       q    Type
REMARK                         _______ _______ _______ _____ _____    ______ ____
ROOT
ATOM      1  C   UNL     1       1.062  -4.058   1.431  0.00  0.00    +0.198 C 
ATOM      2  C   UNL     1       1.438  -2.608   1.429  0.00  0.00    +0.127 C 
ATOM      3  C   UNL     1       0.629  -1.788   2.417  0.00  0.00    +0.009 C 
ATOM      4  C   UNL     1       1.078  -0.547   2.307  0.00  0.00    +0.004 C 
ATOM      5  C   UNL     1       2.131  -0.603   1.193  0.00  0.00    +0.155 C 
ATOM      6  O   UNL     1       2.692  -1.968   1.391  0.00  0.00    -0.358 OA
ATOM      7  C   UNL     1       1.242  -0.795  -0.096  0.00  0.00    +0.123 C 
ATOM      8  C   UNL     1       0.942  -2.271  -0.034  0.00  0.00    +0.128 C 
ATOM      9  C   UNL     1      -0.388  -2.907  -0.013  0.00  0.00    +0.223 C 
ATOM     10  O   UNL     1      -1.384  -2.516  -0.583  0.00  0.00    -0.275 OA
ATOM     11  N   UNL     1      -0.283  -4.028   0.775  0.00  0.00    -0.287 N 
ENDROOT
BRANCH   1  13
ATOM     12  N   UNL     1       2.080  -4.930   3.509  0.00  0.00    -0.311 N 
ATOM     13  C   UNL     1       0.963  -4.587   2.838  0.00  0.00    +0.237 C 
ATOM     14  O   UNL     1      -0.122  -4.705   3.367  0.00  0.00    -0.274 OA
ATOM     15  H   UNL     1       3.064  -4.823   3.030  0.00  0.00    +0.149 HD
BRANCH  12  21
ATOM     16  C   UNL     1       4.331  -7.715   6.918  0.00  0.00    +0.008 C 
ATOM     17  C   UNL     1       3.107  -6.849   6.612  0.00  0.00    -0.009 C 
ATOM     18  C   UNL     1       3.053  -5.678   7.595  0.00  0.00    +0.003 C 
ATOM     19  C   UNL     1       1.829  -4.812   7.289  0.00  0.00    +0.002 C 
ATOM     20  C   UNL     1       1.929  -4.274   5.860  0.00  0.00    +0.022 C 
ATOM     21  C   UNL     1       1.984  -5.445   4.877  0.00  0.00    +0.076 C 
ATOM     22  C   UNL     1       3.208  -6.311   5.183  0.00  0.00    +0.009 C 
ATOM     23  C   UNL     1       3.262  -7.482   4.200  0.00  0.00    +0.009 C 
ENDBRANCH  12  21
ENDBRANCH   1  13
BRANCH   7  24
ATOM     24  C   UNL     1      -0.024   0.019  -0.006  0.00  0.00    +0.224 C 
ATOM     25  O   UNL     1      -0.991  -0.426   0.575  0.00  0.00    -0.275 OA
ATOM     26  N   UNL     1      -0.081   1.241  -0.572  0.00  0.00    -0.285 N 
ATOM     27  H   UNL     1       0.818   1.676  -1.032  0.00  0.00    +0.155 HD
BRANCH  26  28
ATOM     28  C   UNL     1      -1.284   1.956  -0.573  0.00  0.00    +0.033 A 
ATOM     29  C   UNL     1      -1.610   2.767  -1.653  0.00  0.00    +0.025 A 
ATOM     30  C   UNL     1      -2.800   3.467  -1.654  0.00  0.00    +0.022 A 
ATOM     31  C   UNL     1      -3.663   3.369  -0.577  0.00  0.00    +0.041 A 
ATOM     32  C   UNL     1      -3.338   2.566   0.502  0.00  0.00    +0.022 A 
ATOM     33  C   UNL     1      -2.152   1.860   0.507  0.00  0.00    +0.025 A 
ATOM     34 CL   UNL     1      -5.155   4.257  -0.578  0.00  0.00    -0.084 Cl
ENDBRANCH  26  28
ENDBRANCH   7  24
BRANCH  11  35
ATOM     35  C   UNL     1      -1.329  -5.040   0.946  0.00  0.00    +0.109 C 
BRANCH  35  36
ATOM     36  C   UNL     1      -1.163  -6.130  -0.114  0.00  0.00    +0.022 C 
BRANCH  36  37
ATOM     37  C   UNL     1      -2.255  -7.186   0.065  0.00  0.00    -0.016 C 
ATOM     38  C   UNL     1      -3.622  -6.558  -0.211  0.00  0.00    +0.007 C 
ATOM     39  C   UNL     1      -2.016  -8.338  -0.914  0.00  0.00    +0.007 C 
ENDBRANCH  36  37
ENDBRANCH  35  36
ENDBRANCH  11  35
TORSDOF 7
