REMARK  Name = ZINC05456469
REMARK  3 active torsions:
REMARK  status: ('A' for Active; 'I' for Inactive)
REMARK    1  A    between atoms: C_9  and  C_11
REMARK    2  A    between atoms: C_11  and  C_30
REMARK    3  A    between atoms: C_15  and  N_27
REMARK                            x       y       z     vdW  Elec       q    Type
REMARK                         _______ _______ _______ _____ _____    ______ ____
ROOT
ATOM      1  C   UNL     1      -3.603   3.012  -0.615  0.00  0.00    +0.137 C 
ATOM      2  C   UNL     1      -2.551   3.846   0.116  0.00  0.00    +0.068 C 
ATOM      3  C   UNL     1      -1.262   3.062   0.122  0.00  0.00    -0.022 A 
ATOM      4  C   UNL     1      -0.067   3.752   0.229  0.00  0.00    +0.038 A 
ATOM      5  C   UNL     1       1.134   3.069   0.220  0.00  0.00    +0.127 A 
ATOM      6  C   UNL     1       1.137   1.691   0.099  0.00  0.00    +0.034 A 
ATOM      7  C   UNL     1      -0.051   1.002  -0.004  0.00  0.00    +0.025 A 
ATOM      8  C   UNL     1      -1.272   1.687   0.010  0.00  0.00    +0.033 A 
ATOM      9  N   UNL     1      -2.429   0.908  -0.053  0.00  0.00    -0.325 N 
ATOM     10  C   UNL     1      -3.692   1.628   0.035  0.00  0.00    +0.101 C 
ATOM     11  C   UNL     1      -4.760   0.836  -0.722  0.00  0.00    +0.024 C 
ATOM     12  C   UNL     1      -5.017  -0.513  -0.108  0.00  0.00    +0.002 C 
ATOM     13  C   UNL     1      -3.997  -1.566  -0.406  0.00  0.00    +0.002 C 
ATOM     14  C   UNL     1      -2.783  -1.530   0.488  0.00  0.00    +0.019 C 
ATOM     15  C   UNL     1      -2.326  -0.175   0.905  0.00  0.00    +0.105 C 
ENDROOT
BRANCH   1  24
ATOM     16  C   UNL     1      -8.974   5.569   0.343  0.00  0.00    +0.002 A 
ATOM     17  C   UNL     1      -8.834   5.932  -0.990  0.00  0.00    +0.002 A 
ATOM     18  C   UNL     1      -7.723   5.570  -1.697  0.00  0.00    +0.030 A 
ATOM     19  C   UNL     1      -6.714   4.827  -1.078  0.00  0.00    +0.089 A 
ATOM     20  C   UNL     1      -6.855   4.460   0.271  0.00  0.00    +0.066 A 
ATOM     21  C   UNL     1      -7.992   4.837   0.974  0.00  0.00    +0.028 A 
ATOM     22  N   UNL     1      -5.721   3.741   0.591  0.00  0.00    -0.340 N 
ATOM     23  H   UNL     1      -5.511   3.329   1.477  0.00  0.00    +0.167 HD
ATOM     24  C   UNL     1      -4.942   3.698  -0.524  0.00  0.00    +0.130 A 
ATOM     25  N   UNL     1      -5.524   4.330  -1.501  0.00  0.00    -0.231 NA
ENDBRANCH   1  24
BRANCH   5  26
ATOM     26  N   UNL     1       2.410   3.808   0.340  0.00  0.00    +0.056 N 
ATOM     27  O   UNL     1       3.468   3.204   0.332  0.00  0.00    -0.126 OA
ATOM     28  O   UNL     1       2.404   5.022   0.447  0.00  0.00    -0.126 OA
ENDBRANCH   5  26
BRANCH   1  29
ATOM     29  C   UNL     1      -3.220   2.866  -2.029  0.00  0.00    +0.079 C 
ATOM     30  N   UNL     1      -2.924   2.754  -3.120  0.00  0.00    -0.195 NA
ENDBRANCH   1  29
TORSDOF 3
