REMARK  Name = ZINC63506045
REMARK  11 active torsions:
REMARK  status: ('A' for Active; 'I' for Inactive)
REMARK    1  A    between atoms: C_1  and  O_2
REMARK    2  A    between atoms: O_2  and  C_3
REMARK    3  A    between atoms: C_6  and  C_9
REMARK    4  A    between atoms: C_9  and  N_10
REMARK    5  A    between atoms: C_18  and  S_20
REMARK    6  A    between atoms: S_20  and  C_21
REMARK    7  A    between atoms: C_21  and  C_22
REMARK    8  A    between atoms: C_25  and  C_28
REMARK    9  A    between atoms: N_30  and  C_31
REMARK   10  A    between atoms: C_31  and  C_32
REMARK   11  A    between atoms: C_32  and  C_33
REMARK                            x       y       z     vdW  Elec       q    Type
REMARK                         _______ _______ _______ _____ _____    ______ ____
ROOT
ATOM      1  S   UNL     1      -3.505  -4.076  -2.285  0.00  0.00    -0.115 S 
ENDROOT
BRANCH   1  10
ATOM      2  N   UNL     1      -5.815  -5.408  -1.870  0.00  0.00    -0.284 N 
ATOM      3  C   UNL     1      -6.377  -5.517  -0.598  0.00  0.00    +0.122 A 
ATOM      4  C   UNL     1      -6.253  -4.302   0.076  0.00  0.00    +0.068 A 
ATOM      5  C   UNL     1      -6.750  -4.190   1.369  0.00  0.00    +0.028 A 
ATOM      6  C   UNL     1      -7.355  -5.299   1.945  0.00  0.00    +0.019 A 
ATOM      7  C   UNL     1      -7.444  -6.470   1.221  0.00  0.00    +0.084 A 
ATOM      8  N   UNL     1      -6.964  -6.549  -0.005  0.00  0.00    -0.348 N 
ATOM      9  N   UNL     1      -5.605  -3.368  -0.741  0.00  0.00    -0.315 N 
ATOM     10  C   UNL     1      -5.298  -4.042  -2.009  0.00  0.00    +0.221 C 
ATOM     11  H   UNL     1      -5.396  -2.449  -0.511  0.00  0.00    +0.149 HD
ATOM     12  H   UNL     1      -7.043  -7.387  -0.488  0.00  0.00    +0.167 HD
BRANCH   2  13
ATOM     13  C   UNL     1      -5.749  -6.466  -2.881  0.00  0.00    +0.144 C 
BRANCH  13  17
ATOM     14  C   UNL     1      -2.323  -8.916  -2.156  0.00  0.00    +0.120 A 
ATOM     15  C   UNL     1      -3.510  -9.163  -1.480  0.00  0.00    +0.046 A 
ATOM     16  C   UNL     1      -4.616  -8.369  -1.716  0.00  0.00    +0.009 A 
ATOM     17  C   UNL     1      -4.541  -7.330  -2.625  0.00  0.00    -0.030 A 
ATOM     18  C   UNL     1      -3.360  -7.082  -3.300  0.00  0.00    +0.009 A 
ATOM     19  C   UNL     1      -2.249  -7.869  -3.063  0.00  0.00    +0.046 A 
BRANCH  14  21
ATOM     20  C   UNL     1      -1.383 -10.755  -0.978  0.00  0.00    +0.277 C 
ATOM     21  O   UNL     1      -1.234  -9.695  -1.925  0.00  0.00    -0.495 OA
ENDBRANCH  14  21
ENDBRANCH  13  17
ENDBRANCH   2  13
ENDBRANCH   1  10
BRANCH   1  22
ATOM     22  C   UNL     1      -3.119  -2.404  -2.872  0.00  0.00    +0.107 C 
BRANCH  22  23
ATOM     23  C   UNL     1      -1.627  -2.257  -3.026  0.00  0.00    -0.037 A 
ATOM     24  C   UNL     1      -0.853  -1.914  -1.932  0.00  0.00    +0.005 A 
ATOM     25  C   UNL     1       0.514  -1.778  -2.067  0.00  0.00    +0.013 A 
ATOM     26  C   UNL     1       1.114  -1.988  -3.309  0.00  0.00    +0.037 A 
ATOM     27  C   UNL     1       0.327  -2.334  -4.408  0.00  0.00    +0.013 A 
ATOM     28  C   UNL     1      -1.038  -2.472  -4.259  0.00  0.00    +0.005 A 
BRANCH  26  29
ATOM     29  C   UNL     1       2.578  -1.844  -3.461  0.00  0.00    +0.244 C 
ATOM     30  O   UNL     1       3.261  -1.542  -2.502  0.00  0.00    -0.270 OA
ATOM     31  N   UNL     1       3.154  -2.047  -4.662  0.00  0.00    -0.311 N 
ATOM     32  H   UNL     1       2.609  -2.288  -5.427  0.00  0.00    +0.149 HD
BRANCH  31  33
ATOM     33  C   UNL     1       4.604  -1.904  -4.812  0.00  0.00    +0.110 C 
BRANCH  33  34
ATOM     34  C   UNL     1       4.997  -2.187  -6.263  0.00  0.00    +0.073 C 
BRANCH  34  35
ATOM     35  C   UNL     1       6.489  -2.040  -6.417  0.00  0.00    +0.035 A 
ATOM     36  H   UNL     1       9.493  -2.881  -6.352  0.00  0.00    +0.166 HD
ATOM     37  C   UNL     1       7.408  -2.991  -6.167  0.00  0.00    +0.105 A 
ATOM     38  N   UNL     1       8.632  -2.441  -6.437  0.00  0.00    -0.352 N 
ATOM     39  C   UNL     1       8.418  -1.171  -6.843  0.00  0.00    +0.171 A 
ATOM     40  N   UNL     1       7.134  -0.940  -6.833  0.00  0.00    -0.350 N 
ATOM     41  H   UNL     1       6.713  -0.103  -7.086  0.00  0.00    +0.166 HD
ENDBRANCH  34  35
ENDBRANCH  33  34
ENDBRANCH  31  33
ENDBRANCH  26  29
ENDBRANCH  22  23
ENDBRANCH   1  22
TORSDOF 10
