REMARK  Name = ZINC38002831
REMARK  5 active torsions:
REMARK  status: ('A' for Active; 'I' for Inactive)
REMARK    1  A    between atoms: C_1  and  C_2
REMARK    2  A    between atoms: C_2  and  C_4
REMARK    3  A    between atoms: C_2  and  N_10
REMARK    4  A    between atoms: N_10  and  C_11
REMARK    5  A    between atoms: C_15  and  N_17
REMARK                            x       y       z     vdW  Elec       q    Type
REMARK                         _______ _______ _______ _____ _____    ______ ____
ROOT
ATOM      1  N   UNL     1       0.688  -0.476  -1.203  0.00  0.00    -0.337 N 
ATOM      2  H   UNL     1       0.175  -0.710  -1.993  0.00  0.00    +0.147 HD
ENDROOT
BRANCH   1   3
ATOM      3  C   UNL     1       2.080  -0.591  -1.215  0.00  0.00    +0.030 A 
ATOM      4  C   UNL     1       2.815  -0.263  -0.083  0.00  0.00    +0.023 A 
ATOM      5  C   UNL     1       4.191  -0.378  -0.098  0.00  0.00    +0.004 A 
ATOM      6  C   UNL     1       4.837  -0.819  -1.239  0.00  0.00    +0.033 A 
ATOM      7  C   UNL     1       4.109  -1.146  -2.367  0.00  0.00    +0.128 A 
ATOM      8  C   UNL     1       2.732  -1.039  -2.357  0.00  0.00    +0.055 A 
BRANCH   7   9
ATOM      9  N   UNL     1       4.804  -1.617  -3.586  0.00  0.00    +0.056 N 
ATOM     10  O   UNL     1       6.009  -1.715  -3.594  0.00  0.00    -0.126 OA
ATOM     11  O   UNL     1       4.168  -1.903  -4.573  0.00  0.00    -0.126 OA
ENDBRANCH   7   9
ENDBRANCH   1   3
BRANCH   1  13
ATOM     12  C   UNL     1      -0.019   1.526   0.010  0.00  0.00    +0.033 C 
ATOM     13  C   UNL     1       0.002  -0.004   0.002  0.00  0.00    +0.104 C 
BRANCH  13  14
ATOM     14  C   UNL     1      -1.412  -0.526   0.013  0.00  0.00    +0.011 A 
ATOM     15  C   UNL     1      -2.141  -0.993   1.055  0.00  0.00    +0.014 A 
ATOM     16  C   UNL     1      -3.434  -1.425   0.828  0.00  0.00    +0.023 A 
ATOM     17  C   UNL     1      -3.935  -1.368  -0.431  0.00  0.00    +0.055 A 
ATOM     18  S   UNL     1      -2.563  -0.681  -1.343  0.00  0.00    -0.085 S 
ATOM     19 BR   UNL     1      -5.645  -1.878  -1.057  0.00  0.00    -0.043 Br
ENDBRANCH  13  14
ENDBRANCH   1  13
TORSDOF 4
