REMARK  Name = ZINC61592613
REMARK  7 active torsions:
REMARK  status: ('A' for Active; 'I' for Inactive)
REMARK    1  A    between atoms: C_1  and  C_2
REMARK    2  A    between atoms: C_2  and  C_4
REMARK    3  A    between atoms: C_2  and  N_22
REMARK    4  A    between atoms: C_4  and  C_6
REMARK    5  A    between atoms: C_4  and  S_13
REMARK    6  A    between atoms: S_13  and  C_14
REMARK    7  A    between atoms: N_20  and  C_21
REMARK                            x       y       z     vdW  Elec       q    Type
REMARK                         _______ _______ _______ _____ _____    ______ ____
ROOT
ATOM      1  C   UNL     1      -1.443  -0.454   0.046  0.00  0.00    +0.069 C 
ENDROOT
BRANCH   1   2
ATOM      2  C   UNL     1      -1.814  -1.912  -0.043  0.00  0.00    -0.035 A 
ATOM      3  C   UNL     1      -1.511  -2.634  -1.182  0.00  0.00    +0.005 A 
ATOM      4  C   UNL     1      -1.851  -3.971  -1.265  0.00  0.00    +0.001 A 
ATOM      5  C   UNL     1      -2.495  -4.587  -0.208  0.00  0.00    +0.015 A 
ATOM      6  C   UNL     1      -2.798  -3.865   0.932  0.00  0.00    +0.018 A 
ATOM      7  C   UNL     1      -2.453  -2.528   1.016  0.00  0.00    +0.020 A 
ATOM      8 BR   UNL     1      -3.680  -4.707   2.378  0.00  0.00    -0.050 Br
ENDBRANCH   1   2
BRANCH   1  10
ATOM      9  C   UNL     1       0.813  -0.875  -0.940  0.00  0.00    -0.013 C 
ATOM     10  C   UNL     1       0.064  -0.325   0.275  0.00  0.00    -0.060 C 
BRANCH  10  11
ATOM     11  N   UNL     1       0.445  -1.087   1.472  0.00  0.00    +0.381 N 
ATOM     12  H   UNL     1       1.421  -0.930   1.674  0.00  0.00    -0.090 HD
ATOM     13  H   UNL     1      -0.113  -0.783   2.255  0.00  0.00    -0.090 HD
ATOM     14  H   UNL     1       0.289  -2.070   1.308  0.00  0.00    -0.090 HD
ENDBRANCH  10  11
ENDBRANCH   1  10
BRANCH   1  15
ATOM     15  S   UNL     1      -1.894   0.381  -1.500  0.00  0.00    -0.080 S 
BRANCH  15  16
ATOM     16  C   UNL     1      -1.631   2.088  -1.155  0.00  0.00    +0.192 A 
ATOM     17  N   UNL     1      -1.133   2.573  -0.053  0.00  0.00    -0.145 NA
ATOM     18  N   UNL     1      -1.088   3.968  -0.175  0.00  0.00    -0.226 N 
ATOM     19  H   UNL     1      -0.763   4.592   0.493  0.00  0.00    +0.194 HD
ATOM     20  C   UNL     1      -1.578   4.284  -1.391  0.00  0.00    +0.345 A 
ATOM     21  O   UNL     1      -1.694   5.406  -1.852  0.00  0.00    -0.245 OA
ATOM     22  N   UNL     1      -1.911   3.132  -2.007  0.00  0.00    -0.274 N 
ATOM     23  C   UNL     1      -2.477   3.012  -3.353  0.00  0.00    +0.156 C 
ENDBRANCH  15  16
ENDBRANCH   1  15
TORSDOF 5
