REMARK  Name = ZINC00646956
REMARK  5 active torsions:
REMARK  status: ('A' for Active; 'I' for Inactive)
REMARK    1  A    between atoms: C_3  and  C_6
REMARK    2  A    between atoms: C_9  and  C_32
REMARK    3  A    between atoms: C_14  and  C_16
REMARK    4  A    between atoms: N_18  and  C_19
REMARK    5  A    between atoms: C_20  and  C_28
REMARK                            x       y       z     vdW  Elec       q    Type
REMARK                         _______ _______ _______ _____ _____    ______ ____
ROOT
ATOM      1  C   UNL     1       1.354   1.551  -0.003  0.00  0.00    +0.140 C 
ATOM      2  C   UNL     1       1.976   1.356  -1.389  0.00  0.00    +0.066 C 
ATOM      3  C   UNL     1       1.239   2.250  -2.396  0.00  0.00    +0.215 C 
ATOM      4  N   UNL     1      -0.202   2.074  -2.180  0.00  0.00    -0.237 N 
ATOM      5  C   UNL     1      -0.745   1.500  -1.069  0.00  0.00    +0.133 A 
ATOM      6  C   UNL     1      -2.091   1.508  -1.216  0.00  0.00    +0.089 A 
ATOM      7  C   UNL     1      -2.384   2.108  -2.461  0.00  0.00    +0.163 A 
ATOM      8  N   UNL     1      -1.242   2.445  -3.033  0.00  0.00    -0.163 NA
ATOM      9 BR   UNL     1      -3.353   0.836   0.022  0.00  0.00    -0.044 Br
ATOM     10  N   UNL     1      -0.012   1.005   0.008  0.00  0.00    -0.318 N 
ATOM     11  H   UNL     1       0.002  -0.004   0.002  0.00  0.00    +0.148 HD
ENDROOT
BRANCH   1  14
ATOM     12  C   UNL     1       3.639   0.369   2.637  0.00  0.00    +0.041 A 
ATOM     13  C   UNL     1       3.098   1.403   1.838  0.00  0.00    +0.046 A 
ATOM     14  C   UNL     1       2.189   0.833   1.027  0.00  0.00    +0.125 A 
ATOM     15  O   UNL     1       2.147  -0.482   1.294  0.00  0.00    -0.466 OA
ATOM     16  C   UNL     1       3.028  -0.770   2.265  0.00  0.00    +0.195 A 
ENDBRANCH   1  14
BRANCH   7  17
ATOM     17  C   UNL     1      -3.732   2.321  -3.024  0.00  0.00    +0.270 C 
ATOM     18  O   UNL     1      -4.715   1.967  -2.401  0.00  0.00    -0.268 OA
ATOM     19  N   UNL     1      -3.874   2.909  -4.229  0.00  0.00    -0.274 N 
ATOM     20  H   UNL     1      -3.090   3.192  -4.726  0.00  0.00    +0.156 HD
BRANCH  19  21
ATOM     21  C   UNL     1      -5.140   3.110  -4.758  0.00  0.00    +0.090 A 
ATOM     22  C   UNL     1      -5.486   3.691  -5.969  0.00  0.00    +0.084 A 
ATOM     23  C   UNL     1      -6.899   3.782  -6.291  0.00  0.00    -0.018 A 
ATOM     24  C   UNL     1      -7.736   3.280  -5.356  0.00  0.00    -0.004 A 
ATOM     25  S   UNL     1      -6.674   2.688  -4.070  0.00  0.00    -0.077 S 
ATOM     26  C   UNL     1      -9.232   3.237  -5.412  0.00  0.00    +0.043 C 
ATOM     27  C   UNL     1      -9.701   4.186  -6.525  0.00  0.00    +0.005 C 
ATOM     28  C   UNL     1      -8.876   3.913  -7.786  0.00  0.00    +0.005 C 
ATOM     29  C   UNL     1      -7.438   4.391  -7.580  0.00  0.00    +0.037 C 
BRANCH  22  30
ATOM     30  C   UNL     1      -4.486   4.182  -6.869  0.00  0.00    +0.102 C 
ATOM     31  N   UNL     1      -3.693   4.572  -7.582  0.00  0.00    -0.191 NA
ENDBRANCH  22  30
ENDBRANCH  19  21
ENDBRANCH   7  17
BRANCH   3  32
ATOM     32  C   UNL     1       1.603   1.833  -3.822  0.00  0.00    +0.412 C 
ATOM     33  F   UNL     1       1.232   0.500  -4.028  0.00  0.00    -0.168 F 
ATOM     34  F   UNL     1       0.928   2.651  -4.734  0.00  0.00    -0.168 F 
ATOM     35  F   UNL     1       2.983   1.966  -4.009  0.00  0.00    -0.168 F 
ENDBRANCH   3  32
TORSDOF 5
