REMARK  Name = ZINC20838154
REMARK  9 active torsions:
REMARK  status: ('A' for Active; 'I' for Inactive)
REMARK    1  A    between atoms: C_4  and  C_7
REMARK    2  A    between atoms: C_9  and  S_18
REMARK    3  A    between atoms: N_11  and  C_12
REMARK    4  A    between atoms: S_18  and  C_19
REMARK    5  A    between atoms: C_19  and  C_20
REMARK    6  A    between atoms: C_20  and  C_21
REMARK    7  A    between atoms: N_23  and  C_24
REMARK    8  A    between atoms: C_27  and  S_30
REMARK    9  A    between atoms: S_30  and  N_33
REMARK                            x       y       z     vdW  Elec       q    Type
REMARK                         _______ _______ _______ _____ _____    ______ ____
ROOT
ATOM      1  S   UNL     1       4.942   1.558  -0.088  0.00  0.00    -0.084 S 
ENDROOT
BRANCH   1   4
ATOM      2  C   UNL     1       8.468   3.156   0.089  0.00  0.00    +0.165 A 
ATOM      3  N   UNL     1       7.638   2.146  -0.080  0.00  0.00    -0.201 NA
ATOM      4  C   UNL     1       6.379   2.568   0.056  0.00  0.00    +0.210 A 
ATOM      5  N   UNL     1       6.381   3.857   0.309  0.00  0.00    -0.138 NA
ATOM      6  N   UNL     1       7.724   4.267   0.342  0.00  0.00    -0.212 N 
BRANCH   2  10
ATOM      7  C   UNL     1      12.707   2.975  -0.121  0.00  0.00    +0.000 A 
ATOM      8  C   UNL     1      11.984   1.841   0.202  0.00  0.00    +0.001 A 
ATOM      9  C   UNL     1      10.607   1.893   0.272  0.00  0.00    +0.011 A 
ATOM     10  C   UNL     1       9.944   3.093   0.016  0.00  0.00    +0.019 A 
ATOM     11  C   UNL     1      10.678   4.233  -0.315  0.00  0.00    +0.011 A 
ATOM     12  C   UNL     1      12.055   4.169  -0.376  0.00  0.00    +0.001 A 
ENDBRANCH   2  10
BRANCH   6  13
ATOM     13  C   UNL     1       8.202   5.561   0.582  0.00  0.00    +0.068 A 
ATOM     14  C   UNL     1       9.284   5.757   1.431  0.00  0.00    +0.028 A 
ATOM     15  C   UNL     1       9.755   7.034   1.662  0.00  0.00    +0.002 A 
ATOM     16  C   UNL     1       9.146   8.118   1.057  0.00  0.00    +0.000 A 
ATOM     17  C   UNL     1       8.066   7.926   0.215  0.00  0.00    +0.002 A 
ATOM     18  C   UNL     1       7.592   6.651  -0.024  0.00  0.00    +0.028 A 
ENDBRANCH   6  13
ENDBRANCH   1   4
BRANCH   1  19
ATOM     19  C   UNL     1       3.568   2.708   0.198  0.00  0.00    +0.086 C 
BRANCH  19  20
ATOM     20  C   UNL     1       2.242   1.951   0.101  0.00  0.00    +0.107 C 
BRANCH  20  21
ATOM     21  C   UNL     1       1.100   2.905   0.339  0.00  0.00    +0.218 C 
ATOM     22  O   UNL     1       1.325   4.076   0.564  0.00  0.00    -0.275 OA
ATOM     23  N   UNL     1      -0.171   2.459   0.301  0.00  0.00    -0.285 N 
ATOM     24  H   UNL     1      -0.378   1.413   0.028  0.00  0.00    +0.155 HD
BRANCH  23  25
ATOM     25  C   UNL     1      -1.226   3.324   0.608  0.00  0.00    +0.033 A 
ATOM     26  C   UNL     1      -2.349   2.845   1.270  0.00  0.00    +0.025 A 
ATOM     27  C   UNL     1      -3.386   3.704   1.578  0.00  0.00    +0.030 A 
ATOM     28  C   UNL     1      -3.313   5.037   1.216  0.00  0.00    +0.105 A 
ATOM     29  C   UNL     1      -2.199   5.516   0.551  0.00  0.00    +0.030 A 
ATOM     30  C   UNL     1      -1.155   4.663   0.247  0.00  0.00    +0.025 A 
BRANCH  28  31
ATOM     31  S   UNL     1      -4.641   6.127   1.603  0.00  0.00    +0.056 S 
ATOM     32  O   UNL     1      -5.327   5.555   2.709  0.00  0.00    -0.153 OA
ATOM     33  O   UNL     1      -4.093   7.438   1.643  0.00  0.00    -0.153 OA
BRANCH  31  34
ATOM     34  N   UNL     1      -5.692   6.092   0.324  0.00  0.00    -0.204 NA
ATOM     35  H   UNL     1      -6.540   6.763   0.528  0.00  0.00    +0.144 HD
ATOM     36  H   UNL     1      -6.063   5.066   0.182  0.00  0.00    +0.144 HD
ENDBRANCH  31  34
ENDBRANCH  28  31
ENDBRANCH  23  25
ENDBRANCH  20  21
ENDBRANCH  19  20
ENDBRANCH   1  19
TORSDOF 9
