REMARK  Name = ZINC06931947
REMARK  5 active torsions:
REMARK  status: ('A' for Active; 'I' for Inactive)
REMARK    1  A    between atoms: C_1  and  C_2
REMARK    2  A    between atoms: C_2  and  C_4
REMARK    3  A    between atoms: C_2  and  N_14
REMARK    4  A    between atoms: C_15  and  C_17
REMARK    5  A    between atoms: C_17  and  N_18
REMARK                            x       y       z     vdW  Elec       q    Type
REMARK                         _______ _______ _______ _____ _____    ______ ____
ROOT
ATOM      1  N   UNL     1       2.770   4.092  -0.002  0.00  0.00    -0.311 N 
ATOM      2  C   UNL     1       3.032   5.321  -0.492  0.00  0.00    +0.231 C 
ATOM      3  O   UNL     1       2.129   6.006  -0.923  0.00  0.00    -0.274 OA
ATOM      4  H   UNL     1       3.492   3.544   0.343  0.00  0.00    +0.149 HD
ENDROOT
BRANCH   1   6
ATOM      5  C   UNL     1       0.680   4.079   1.267  0.00  0.00    +0.028 C 
ATOM      6  C   UNL     1       1.396   3.585   0.008  0.00  0.00    +0.076 C 
BRANCH   6   7
ATOM      7  C   UNL     1       1.417   2.055  -0.000  0.00  0.00    -0.010 C 
ATOM      8  C   UNL     1      -0.019   1.526   0.010  0.00  0.00    +0.012 C 
ATOM      9  C   UNL     1       0.002  -0.004   0.002  0.00  0.00    -0.010 C 
ATOM     10  C   UNL     1       0.718  -0.497  -1.257  0.00  0.00    +0.007 C 
ATOM     11  C   UNL     1       2.154   0.032  -1.268  0.00  0.00    -0.010 C 
ATOM     12  C   UNL     1       2.133   1.562  -1.259  0.00  0.00    +0.012 C 
ATOM     13  C   UNL     1       2.894  -0.475  -0.028  0.00  0.00    +0.007 C 
ATOM     14  C   UNL     1       2.178   0.019   1.231  0.00  0.00    -0.010 C 
ATOM     15  C   UNL     1       0.742  -0.511   1.242  0.00  0.00    +0.007 C 
ATOM     16  C   UNL     1       2.157   1.548   1.239  0.00  0.00    +0.012 C 
ENDBRANCH   6   7
ENDBRANCH   1   6
BRANCH   2  17
ATOM     17  C   UNL     1       4.446   5.842  -0.502  0.00  0.00    +0.213 C 
BRANCH  17  18
ATOM     18  N   UNL     1       4.465   7.189  -1.079  0.00  0.00    -0.215 N 
ATOM     19  C   UNL     1       4.634   7.452  -2.389  0.00  0.00    +0.247 C 
ATOM     20  O   UNL     1       4.822   6.656  -3.284  0.00  0.00    -0.273 OA
ATOM     21  C   UNL     1       4.541   8.962  -2.525  0.00  0.00    +0.113 C 
ATOM     22  C   UNL     1       5.779   9.562  -3.167  0.00  0.00    +0.035 C 
ATOM     23  C   UNL     1       5.495  11.013  -3.578  0.00  0.00    +0.003 C 
ATOM     24  C   UNL     1       5.322  11.890  -2.350  0.00  0.00    +0.000 C 
ATOM     25  C   UNL     1       3.890  12.280  -2.034  0.00  0.00    +0.000 C 
ATOM     26  C   UNL     1       2.844  11.713  -2.977  0.00  0.00    +0.000 C 
ATOM     27  C   UNL     1       2.436  10.294  -2.570  0.00  0.00    +0.003 C 
ATOM     28  C   UNL     1       3.295   9.294  -3.362  0.00  0.00    +0.035 C 
ATOM     29  N   UNL     1       4.388   9.417  -1.141  0.00  0.00    -0.285 N 
ATOM     30  C   UNL     1       4.323   8.313  -0.369  0.00  0.00    +0.310 C 
ATOM     31  O   UNL     1       4.156   8.340   0.834  0.00  0.00    -0.252 OA
ATOM     32  H   UNL     1       4.347  10.330  -0.818  0.00  0.00    +0.151 HD
ENDBRANCH  17  18
ENDBRANCH   2  17
TORSDOF 4
