REMARK  Name = ZINC14952368
REMARK  9 active torsions:
REMARK  status: ('A' for Active; 'I' for Inactive)
REMARK    1  A    between atoms: C_1  and  N_69
REMARK    2  A    between atoms: C_2  and  C_3
REMARK    3  A    between atoms: C_2  and  N_69
REMARK    4  A    between atoms: C_7  and  O_9
REMARK    5  A    between atoms: O_9  and  C_10
REMARK    6  A    between atoms: C_16  and  C_18
REMARK    7  A    between atoms: C_18  and  C_19
REMARK    8  A    between atoms: C_27  and  C_28
REMARK    9  A    between atoms: C_27  and  N_69
REMARK                            x       y       z     vdW  Elec       q    Type
REMARK                         _______ _______ _______ _____ _____    ______ ____
ROOT
ATOM      1  C   UNL     1      -3.022  -3.773   1.836  0.00  0.00    -0.060 A 
ATOM      2  C   UNL     1      -2.092  -4.551   2.502  0.00  0.00    +0.002 A 
ATOM      3  C   UNL     1      -0.779  -4.128   2.603  0.00  0.00    +0.004 A 
ATOM      4  C   UNL     1      -0.393  -2.929   2.035  0.00  0.00    +0.045 A 
ATOM      5  C   UNL     1      -1.325  -2.145   1.371  0.00  0.00    +0.121 A 
ATOM      6  C   UNL     1      -2.641  -2.572   1.270  0.00  0.00    +0.047 A 
ENDROOT
BRANCH   1   7
ATOM      7  C   UNL     1      -4.451  -4.238   1.727  0.00  0.00    -0.043 C 
BRANCH   7   9
ATOM      8  C   UNL     1      -3.846  -6.291   0.596  0.00  0.00    -0.095 C 
ATOM      9  N   UNL     1      -4.603  -5.027   0.486  0.00  0.00    +0.383 N 
ATOM     10  H   UNL     1      -4.232  -4.483  -0.302  0.00  0.00    -0.081 HD
BRANCH   9  11
ATOM     11  C   UNL     1      -6.032  -5.313   0.242  0.00  0.00    -0.042 C 
BRANCH  11  12
ATOM     12  C   UNL     1      -6.196  -5.774  -1.184  0.00  0.00    -0.056 A 
ATOM     13  C   UNL     1      -6.401  -7.092  -1.457  0.00  0.00    +0.002 A 
ATOM     14  C   UNL     1      -6.555  -7.537  -2.769  0.00  0.00    +0.001 A 
ATOM     15  C   UNL     1      -6.505  -6.667  -3.814  0.00  0.00    +0.008 A 
ATOM     16  C   UNL     1      -6.295  -5.299  -3.571  0.00  0.00    -0.018 A 
ATOM     17  C   UNL     1      -6.144  -4.846  -2.237  0.00  0.00    -0.017 A 
ATOM     18  C   UNL     1      -5.930  -3.478  -1.994  0.00  0.00    +0.009 A 
ATOM     19  C   UNL     1      -5.879  -2.608  -3.039  0.00  0.00    +0.001 A 
ATOM     20  C   UNL     1      -6.032  -3.053  -4.351  0.00  0.00    +0.001 A 
ATOM     21  C   UNL     1      -6.237  -4.370  -4.625  0.00  0.00    +0.008 A 
ENDBRANCH  11  12
ENDBRANCH   9  11
ENDBRANCH   7   9
ENDBRANCH   1   7
BRANCH   5  22
ATOM     22  O   UNL     1      -0.948  -0.964   0.815  0.00  0.00    -0.489 OA
BRANCH  22  23
ATOM     23  C   UNL     1      -1.928  -0.269   0.041  0.00  0.00    +0.176 C 
ATOM     24  C   UNL     1      -1.229   0.584  -1.020  0.00  0.00    +0.063 C 
ATOM     25  C   UNL     1      -2.283   1.299  -1.871  0.00  0.00    +0.111 C 
ATOM     26  N   UNL     1      -3.175   2.055  -0.981  0.00  0.00    -0.301 N 
ATOM     27  C   UNL     1      -3.829   1.349   0.129  0.00  0.00    +0.111 C 
ATOM     28  C   UNL     1      -2.757   0.633   0.957  0.00  0.00    +0.063 C 
ATOM     29  C   UNL     1      -3.390   3.370  -1.180  0.00  0.00    +0.218 C 
ATOM     30  O   UNL     1      -4.129   3.983  -0.439  0.00  0.00    -0.276 OA
BRANCH  29  31
ATOM     31  C   UNL     1      -2.712   4.080  -2.323  0.00  0.00    +0.127 C 
BRANCH  31  32
ATOM     32  C   UNL     1      -3.123   5.554  -2.324  0.00  0.00    +0.169 C 
ATOM     33  C   UNL     1      -2.400   6.308  -3.422  0.00  0.00    +0.241 C 
ATOM     34  O   UNL     1      -1.203   6.461  -3.541  0.00  0.00    -0.273 OA
ATOM     35  N   UNL     1      -3.365   6.774  -4.240  0.00  0.00    -0.239 N 
ATOM     36  C   UNL     1      -4.584   6.423  -3.816  0.00  0.00    +0.307 C 
ATOM     37  O   UNL     1      -5.612   6.726  -4.388  0.00  0.00    -0.252 OA
ATOM     38  N   UNL     1      -4.545   5.695  -2.681  0.00  0.00    -0.287 N 
ATOM     39  H   UNL     1      -3.196   7.300  -5.038  0.00  0.00    +0.159 HD
ATOM     40  H   UNL     1      -5.303   5.335  -2.194  0.00  0.00    +0.151 HD
ENDBRANCH  31  32
ENDBRANCH  29  31
ENDBRANCH  22  23
ENDBRANCH   5  22
TORSDOF 8
