REMARK  Name = ZINC64491128
REMARK  5 active torsions:
REMARK  status: ('A' for Active; 'I' for Inactive)
REMARK    1  A    between atoms: C_1  and  C_2
REMARK    2  A    between atoms: C_19  and  C_20
REMARK    3  A    between atoms: N_22  and  C_23
REMARK    4  A    between atoms: C_23  and  C_24
REMARK    5  A    between atoms: C_24  and  C_25
REMARK                            x       y       z     vdW  Elec       q    Type
REMARK                         _______ _______ _______ _____ _____    ______ ____
ROOT
ATOM      1  C   UNL     1      -0.019   1.526   0.010  0.00  0.00    +0.009 C 
ATOM      2  C   UNL     1       0.002  -0.004   0.002  0.00  0.00    +0.003 C 
ATOM      3  C   UNL     1      -1.433  -0.534   0.015  0.00  0.00    +0.006 C 
ATOM      4  C   UNL     1      -1.414  -2.064  -0.027  0.00  0.00    +0.019 C 
ATOM      5  C   UNL     1      -0.692  -2.596   1.215  0.00  0.00    +0.107 C 
ATOM      6  N   UNL     1       0.639  -1.977   1.288  0.00  0.00    -0.308 N 
ATOM      7  C   UNL     1       0.742  -0.512   1.244  0.00  0.00    +0.110 C 
ATOM      8  C   UNL     1       1.774  -2.759   1.398  0.00  0.00    +0.177 C 
ATOM      9  N   UNL     1       3.015  -2.368   1.479  0.00  0.00    -0.154 NA
ATOM     10  N   UNL     1       4.079  -3.240   1.530  0.00  0.00    -0.186 N 
ATOM     11  C   UNL     1       3.695  -4.670   1.705  0.00  0.00    +0.251 C 
ATOM     12  S   UNL     1       1.881  -4.541   1.469  0.00  0.00    -0.045 S 
ATOM     13  N   UNL     1       4.326  -5.407   0.608  0.00  0.00    -0.283 N 
ATOM     14  C   UNL     1       5.544  -5.011   0.179  0.00  0.00    +0.241 C 
ATOM     15  O   UNL     1       6.128  -5.682  -0.653  0.00  0.00    -0.271 OA
ATOM     16  C   UNL     1       6.157  -3.837   0.672  0.00  0.00    +0.097 C 
ATOM     17  C   UNL     1       5.416  -2.924   1.365  0.00  0.00    +0.121 C 
ATOM     18  H   UNL     1       3.878  -6.164   0.198  0.00  0.00    +0.152 HD
ENDROOT
BRANCH  17  19
ATOM     19  C   UNL     1       6.017  -1.690   1.924  0.00  0.00    +0.260 C 
ATOM     20  O   UNL     1       5.330  -0.912   2.555  0.00  0.00    -0.269 OA
ATOM     21  N   UNL     1       7.326  -1.431   1.732  0.00  0.00    -0.310 N 
ATOM     22  H   UNL     1       7.874  -2.053   1.228  0.00  0.00    +0.149 HD
BRANCH  21  23
ATOM     23  C   UNL     1       7.920  -0.211   2.285  0.00  0.00    +0.109 C 
BRANCH  23  24
ATOM     24  C   UNL     1       9.406  -0.160   1.927  0.00  0.00    +0.052 C 
BRANCH  24  25
ATOM     25  C   UNL     1      10.017   1.095   2.495  0.00  0.00    -0.040 C 
ATOM     26  C   UNL     1      10.672   1.219   3.672  0.00  0.00    -0.001 A 
ATOM     27  C   UNL     1      10.998   0.261   4.734  0.00  0.00    +0.010 A 
ATOM     28  C   UNL     1      11.680   0.692   5.820  0.00  0.00    +0.001 A 
ATOM     29  C   UNL     1      12.082   2.028   5.956  0.00  0.00    +0.002 A 
ATOM     30  C   UNL     1      11.819   2.966   5.022  0.00  0.00    +0.026 A 
ATOM     31  C   UNL     1      11.108   2.624   3.839  0.00  0.00    +0.043 A 
ATOM     32  N   UNL     1      10.736   3.340   2.806  0.00  0.00    -0.380 N 
ATOM     33  C   UNL     1      10.028   2.468   1.862  0.00  0.00    +0.144 C 
ATOM     34  H   UNL     1      10.905   4.288   2.683  0.00  0.00    +0.160 HD
ENDBRANCH  24  25
ENDBRANCH  23  24
ENDBRANCH  21  23
ENDBRANCH  17  19
TORSDOF 4
