REMARK  Name = ZINC36485196
REMARK  8 active torsions:
REMARK  status: ('A' for Active; 'I' for Inactive)
REMARK    1  A    between atoms: C_3  and  N_8
REMARK    2  A    between atoms: N_8  and  C_9
REMARK    3  A    between atoms: C_9  and  C_11
REMARK    4  A    between atoms: C_9  and  C_20
REMARK    5  A    between atoms: N_22  and  C_23
REMARK    6  A    between atoms: C_29  and  C_31
REMARK    7  A    between atoms: C_35  and  O_38
REMARK    8  A    between atoms: C_36  and  O_37
REMARK                            x       y       z     vdW  Elec       q    Type
REMARK                         _______ _______ _______ _____ _____    ______ ____
ROOT
ATOM      1  N   UNL     1       4.772   3.281  -0.475  0.00  0.00    -0.251 N 
ATOM      2  C   UNL     1       4.272   3.557   0.745  0.00  0.00    +0.255 C 
ATOM      3  O   UNL     1       3.087   3.797   0.877  0.00  0.00    -0.269 OA
ENDROOT
BRANCH   1   6
ATOM      4  C   UNL     1       2.673   3.162  -3.492  0.00  0.00    +0.003 A 
ATOM      5  C   UNL     1       3.355   2.760  -2.360  0.00  0.00    +0.023 A 
ATOM      6  C   UNL     1       4.081   3.686  -1.622  0.00  0.00    +0.039 A 
ATOM      7  C   UNL     1       4.120   5.014  -2.025  0.00  0.00    +0.043 A 
ATOM      8  C   UNL     1       3.435   5.410  -3.159  0.00  0.00    +0.043 A 
ATOM      9  C   UNL     1       2.713   4.485  -3.891  0.00  0.00    +0.020 A 
ATOM     10 CL   UNL     1       3.482   7.071  -3.664  0.00  0.00    -0.083 Cl
ENDBRANCH   1   6
BRANCH   2  11
ATOM     11  C   UNL     1       5.162   3.570   1.922  0.00  0.00    +0.082 A 
ATOM     12  C   UNL     1       6.090   2.541   2.112  0.00  0.00    +0.017 A 
ATOM     13  C   UNL     1       6.919   2.556   3.211  0.00  0.00    +0.005 A 
ATOM     14  C   UNL     1       6.841   3.587   4.133  0.00  0.00    +0.049 A 
ATOM     15  C   UNL     1       5.927   4.613   3.959  0.00  0.00    +0.159 A 
ATOM     16  C   UNL     1       5.086   4.614   2.850  0.00  0.00    +0.171 A 
BRANCH  16  17
ATOM     17  O   UNL     1       4.193   5.621   2.673  0.00  0.00    -0.503 OA
ATOM     18  H   UNL     1       3.332   5.459   3.083  0.00  0.00    +0.292 HD
ENDBRANCH  16  17
BRANCH  15  19
ATOM     19  O   UNL     1       5.855   5.621   4.869  0.00  0.00    -0.503 OA
ATOM     20  H   UNL     1       6.435   6.370   4.673  0.00  0.00    +0.292 HD
ENDBRANCH  15  19
ENDBRANCH   2  11
BRANCH   1  21
ATOM     21  C   UNL     1       6.039   2.557  -0.601  0.00  0.00    +0.198 C 
BRANCH  21  22
ATOM     22  C   UNL     1       6.640   2.827  -1.956  0.00  0.00    -0.014 A 
ATOM     23  C   UNL     1       6.054   2.295  -3.089  0.00  0.00    +0.010 A 
ATOM     24  C   UNL     1       6.601   2.541  -4.335  0.00  0.00    +0.050 A 
ATOM     25  C   UNL     1       7.740   3.321  -4.450  0.00  0.00    +0.166 A 
ATOM     26  C   UNL     1       8.331   3.858  -3.308  0.00  0.00    +0.167 A 
ATOM     27  C   UNL     1       7.773   3.612  -2.064  0.00  0.00    +0.055 A 
ATOM     28  O   UNL     1       9.427   4.580  -3.683  0.00  0.00    -0.453 OA
ATOM     29  C   UNL     1       9.736   4.145  -5.020  0.00  0.00    +0.466 C 
ATOM     30  O   UNL     1       8.466   3.708  -5.539  0.00  0.00    -0.453 OA
ENDBRANCH  21  22
BRANCH  21  31
ATOM     31  C   UNL     1       5.790   1.079  -0.448  0.00  0.00    +0.239 C 
ATOM     32  O   UNL     1       4.665   0.670  -0.253  0.00  0.00    -0.273 OA
ATOM     33  N   UNL     1       6.818   0.210  -0.527  0.00  0.00    -0.311 N 
ATOM     34  H   UNL     1       7.718   0.537  -0.683  0.00  0.00    +0.149 HD
BRANCH  33  35
ATOM     35  C   UNL     1       6.576  -1.227  -0.378  0.00  0.00    +0.073 C 
ATOM     36  C   UNL     1       6.574  -1.593   1.107  0.00  0.00    +0.022 C 
ATOM     37  C   UNL     1       6.321  -3.094   1.263  0.00  0.00    +0.002 C 
ATOM     38  C   UNL     1       7.426  -3.873   0.547  0.00  0.00    +0.000 C 
ATOM     39  C   UNL     1       7.428  -3.508  -0.938  0.00  0.00    +0.002 C 
ATOM     40  C   UNL     1       7.681  -2.007  -1.094  0.00  0.00    +0.022 C 
ENDBRANCH  33  35
ENDBRANCH  21  31
ENDBRANCH   1  21
TORSDOF 8
