REMARK  Name = ZINC12653273
REMARK  10 active torsions:
REMARK  status: ('A' for Active; 'I' for Inactive)
REMARK    1  A    between atoms: C_1  and  C_2
REMARK    2  A    between atoms: C_5  and  S_8
REMARK    3  A    between atoms: S_8  and  N_11
REMARK    4  A    between atoms: N_11  and  N_12
REMARK    5  A    between atoms: C_19  and  O_37
REMARK    6  A    between atoms: C_20  and  O_35
REMARK    7  A    between atoms: C_31  and  C_33
REMARK    8  A    between atoms: C_31  and  C_34
REMARK    9  A    between atoms: O_35  and  C_36
REMARK   10  A    between atoms: O_37  and  C_38
REMARK                            x       y       z     vdW  Elec       q    Type
REMARK                         _______ _______ _______ _____ _____    ______ ____
ROOT
ATOM      1  N   UNL     1      -2.957   1.398   2.256  0.00  0.00    -0.170 NA
ATOM      2  C   UNL     1      -2.091   1.104   1.336  0.00  0.00    +0.075 C 
ATOM      3  C   UNL     1      -0.832   1.925   1.201  0.00  0.00    +0.085 C 
ATOM      4  C   UNL     1      -0.040   1.452  -0.019  0.00  0.00    +0.110 C 
ATOM      5  C   UNL     1       1.337   2.038  -0.029  0.00  0.00    -0.020 A 
ATOM      6  C   UNL     1       1.470   3.404   0.188  0.00  0.00    +0.055 A 
ATOM      7  C   UNL     1       2.718   3.997   0.199  0.00  0.00    +0.162 A 
ATOM      8  C   UNL     1       3.853   3.218  -0.008  0.00  0.00    +0.162 A 
ATOM      9  C   UNL     1       3.717   1.860  -0.227  0.00  0.00    +0.053 A 
ATOM     10  C   UNL     1       2.460   1.269  -0.241  0.00  0.00    -0.037 A 
ATOM     11  C   UNL     1       2.374  -0.208  -0.494  0.00  0.00    +0.054 C 
ATOM     12  C   UNL     1       1.133  -0.825   0.115  0.00  0.00    +0.110 C 
ATOM     13  N   UNL     1      -0.049  -0.006  -0.062  0.00  0.00    -0.325 N 
ATOM     14  C   UNL     1      -1.275  -0.591  -0.250  0.00  0.00    +0.020 C 
ATOM     15  C   UNL     1      -2.342  -0.033   0.427  0.00  0.00    +0.057 C 
ATOM     16  C   UNL     1      -3.644  -0.551   0.267  0.00  0.00    +0.167 C 
ATOM     17  O   UNL     1      -4.576  -0.032   0.849  0.00  0.00    -0.292 OA
ATOM     18  C   UNL     1      -3.887  -1.744  -0.620  0.00  0.00    +0.086 C 
ATOM     19  C   UNL     1      -2.857  -1.758  -1.752  0.00  0.00    -0.023 C 
ATOM     20  C   UNL     1      -1.449  -1.778  -1.149  0.00  0.00    +0.058 C 
ATOM     21  C   UNL     1      -3.027  -0.506  -2.614  0.00  0.00    +0.011 C 
ATOM     22  C   UNL     1      -3.061  -3.006  -2.614  0.00  0.00    +0.011 C 
ENDROOT
BRANCH   1  23
ATOM     23  N   UNL     1      -3.807   0.405   2.761  0.00  0.00    -0.136 N 
ATOM     24  H   UNL     1      -3.689  -0.518   2.489  0.00  0.00    +0.197 HD
BRANCH  23  25
ATOM     25  S   UNL     1      -5.013   0.809   3.821  0.00  0.00    +0.086 S 
ATOM     26  O   UNL     1      -5.779  -0.369   4.033  0.00  0.00    -0.149 OA
ATOM     27  O   UNL     1      -4.397   1.518   4.888  0.00  0.00    -0.149 OA
BRANCH  25  32
ATOM     28  C   UNL     1      -8.627   4.734   1.004  0.00  0.00    +0.044 C 
ATOM     29  C   UNL     1      -7.725   3.754   1.708  0.00  0.00    -0.050 A 
ATOM     30  C   UNL     1      -7.976   2.397   1.620  0.00  0.00    +0.005 A 
ATOM     31  C   UNL     1      -7.147   1.498   2.265  0.00  0.00    +0.029 A 
ATOM     32  C   UNL     1      -6.069   1.955   2.999  0.00  0.00    +0.110 A 
ATOM     33  C   UNL     1      -5.821   3.312   3.091  0.00  0.00    +0.029 A 
ATOM     34  C   UNL     1      -6.646   4.211   2.441  0.00  0.00    +0.005 A 
ENDBRANCH  25  32
ENDBRANCH  23  25
ENDBRANCH   1  23
BRANCH   8  35
ATOM     35  O   UNL     1       5.087   3.789   0.005  0.00  0.00    -0.491 OA
ATOM     36  C   UNL     1       6.204   2.926  -0.215  0.00  0.00    +0.277 C 
ENDBRANCH   8  35
BRANCH   7  37
ATOM     37  O   UNL     1       2.837   5.335   0.411  0.00  0.00    -0.491 OA
ATOM     38  C   UNL     1       1.628   6.070   0.615  0.00  0.00    +0.277 C 
ENDBRANCH   7  37
TORSDOF 5
