REMARK  Name = ZINC63349912
REMARK  9 active torsions:
REMARK  status: ('A' for Active; 'I' for Inactive)
REMARK    1  A    between atoms: C_1  and  O_2
REMARK    2  A    between atoms: O_2  and  C_3
REMARK    3  A    between atoms: C_6  and  C_18
REMARK    4  A    between atoms: C_8  and  C_9
REMARK    5  A    between atoms: C_9  and  O_10
REMARK    6  A    between atoms: O_10  and  C_11
REMARK    7  A    between atoms: C_25  and  O_30
REMARK    8  A    between atoms: O_30  and  C_31
REMARK    9  A    between atoms: C_31  and  C_32
REMARK                            x       y       z     vdW  Elec       q    Type
REMARK                         _______ _______ _______ _____ _____    ______ ____
ROOT
ATOM      1  C   UNL     1       2.506  -2.503  -4.381  0.00  0.00    +0.111 C 
ATOM      2  C   UNL     1       1.518  -2.615  -5.545  0.00  0.00    +0.128 C 
ATOM      3  C   UNL     1       1.226  -1.187  -5.994  0.00  0.00    -0.035 C 
ATOM      4  C   UNL     1      -0.091  -1.048  -5.969  0.00  0.00    +0.003 A 
ATOM      5  C   UNL     1      -0.972   0.060  -6.371  0.00  0.00    +0.055 A 
ATOM      6  C   UNL     1      -2.309  -0.128  -6.194  0.00  0.00    +0.122 A 
ATOM      7  C   UNL     1      -2.873  -1.296  -5.661  0.00  0.00    +0.048 A 
ATOM      8  C   UNL     1      -2.156  -2.378  -5.264  0.00  0.00    +0.029 A 
ATOM      9  C   UNL     1      -0.697  -2.297  -5.412  0.00  0.00    +0.043 A 
ATOM     10  N   UNL     1       0.235  -3.189  -5.140  0.00  0.00    -0.376 N 
ATOM     11  C   UNL     1       2.336  -0.205  -6.280  0.00  0.00    +0.048 C 
ATOM     12  C   UNL     1       3.307  -0.295  -5.088  0.00  0.00    +0.086 C 
ATOM     13  N   UNL     1       3.653  -1.696  -4.823  0.00  0.00    -0.307 NA
ATOM     14  H   UNL     1       4.417  -1.762  -4.167  0.00  0.00    +0.123 HD
ATOM     15  H   UNL     1       0.104  -4.064  -4.742  0.00  0.00    +0.160 HD
ENDROOT
BRANCH   1  19
ATOM     16  C   UNL     1       0.606  -0.607  -1.056  0.00  0.00    +0.126 A 
ATOM     17  C   UNL     1       0.603   0.006  -2.300  0.00  0.00    +0.046 A 
ATOM     18  C   UNL     1       1.218  -0.608  -3.373  0.00  0.00    +0.009 A 
ATOM     19  C   UNL     1       1.836  -1.835  -3.208  0.00  0.00    -0.028 A 
ATOM     20  C   UNL     1       1.839  -2.448  -1.970  0.00  0.00    +0.015 A 
ATOM     21  C   UNL     1       1.230  -1.835  -0.892  0.00  0.00    +0.032 A 
BRANCH  16  23
ATOM     22  C   UNL     1      -0.621   1.259  -0.241  0.00  0.00    +0.277 C 
ATOM     23  O   UNL     1       0.002  -0.004   0.002  0.00  0.00    -0.495 OA
ENDBRANCH  16  23
BRANCH  21  24
ATOM     24  C   UNL     1       1.240  -2.501   0.460  0.00  0.00    +0.268 C 
BRANCH  24  25
ATOM     25  O   UNL     1       1.939  -3.745   0.373  0.00  0.00    -0.484 OA
BRANCH  25  26
ATOM     26  C   UNL     1       2.040  -4.477   1.514  0.00  0.00    +0.156 A 
ATOM     27  C   UNL     1       1.473  -4.012   2.690  0.00  0.00    +0.048 A 
ATOM     28  C   UNL     1       1.576  -4.758   3.849  0.00  0.00    +0.004 A 
ATOM     29  C   UNL     1       2.245  -5.968   3.836  0.00  0.00    +0.003 A 
ATOM     30  C   UNL     1       2.812  -6.436   2.665  0.00  0.00    +0.042 A 
ATOM     31  C   UNL     1       2.706  -5.696   1.501  0.00  0.00    +0.165 A 
ATOM     32  F   UNL     1       3.255  -6.156   0.355  0.00  0.00    -0.202 F 
ENDBRANCH  25  26
ENDBRANCH  24  25
ENDBRANCH  21  24
ENDBRANCH   1  19
BRANCH   6  33
ATOM     33  O   UNL     1      -3.148   0.879  -6.556  0.00  0.00    -0.487 OA
BRANCH  33  34
ATOM     34  C   UNL     1      -4.546   0.660  -6.361  0.00  0.00    +0.264 C 
BRANCH  34  35
ATOM     35  C   UNL     1      -5.313   1.875  -6.816  0.00  0.00    -0.010 A 
ATOM     36  C   UNL     1      -5.580   2.897  -5.925  0.00  0.00    +0.007 A 
ATOM     37  C   UNL     1      -6.283   4.012  -6.341  0.00  0.00    +0.000 A 
ATOM     38  C   UNL     1      -6.720   4.104  -7.649  0.00  0.00    +0.000 A 
ATOM     39  C   UNL     1      -6.453   3.082  -8.541  0.00  0.00    +0.000 A 
ATOM     40  C   UNL     1      -5.746   1.969  -8.125  0.00  0.00    +0.007 A 
ENDBRANCH  34  35
ENDBRANCH  33  34
ENDBRANCH   6  33
TORSDOF 8
