REMARK  Name = ZINC16009687
REMARK  11 active torsions:
REMARK  status: ('A' for Active; 'I' for Inactive)
REMARK    1  A    between atoms: C_1  and  C_2
REMARK    2  A    between atoms: C_2  and  N_3
REMARK    3  A    between atoms: N_3  and  C_4
REMARK    4  A    between atoms: N_3  and  C_6
REMARK    5  A    between atoms: C_4  and  C_5
REMARK    6  A    between atoms: C_9  and  C_12
REMARK    7  A    between atoms: C_20  and  O_33
REMARK    8  A    between atoms: C_23  and  C_24
REMARK    9  A    between atoms: C_23  and  N_69
REMARK   10  A    between atoms: N_26  and  C_27
REMARK   11  A    between atoms: C_27  and  C_28
REMARK                            x       y       z     vdW  Elec       q    Type
REMARK                         _______ _______ _______ _____ _____    ______ ____
ROOT
ATOM      1  C   UNL     1      -4.808  -1.574   3.550  0.00  0.00    -0.031 C 
ATOM      2  C   UNL     1      -4.184  -2.691   4.389  0.00  0.00    +0.011 C 
ATOM      3  C   UNL     1      -3.332  -2.074   5.498  0.00  0.00    +0.005 C 
ATOM      4  C   UNL     1      -4.205  -1.213   6.413  0.00  0.00    +0.000 C 
ATOM      5  C   UNL     1      -5.301  -2.082   7.034  0.00  0.00    +0.003 C 
ATOM      6  C   UNL     1      -6.165  -2.681   5.923  0.00  0.00    +0.035 C 
ATOM      7  C   UNL     1      -5.296  -3.543   5.005  0.00  0.00    +0.066 C 
ATOM      8  C   UNL     1      -6.167  -4.112   3.879  0.00  0.00    +0.016 C 
ATOM      9  C   UNL     1      -6.737  -2.956   3.053  0.00  0.00    -0.075 C 
ATOM     10  N   UNL     1      -5.619  -2.182   2.473  0.00  0.00    +0.390 N 
ATOM     11  H   UNL     1      -5.024  -2.815   1.925  0.00  0.00    -0.080 HD
ENDROOT
BRANCH   1  15
ATOM     12  C   UNL     1      -1.710   0.786   1.789  0.00  0.00    +0.030 A 
ATOM     13  C   UNL     1      -2.071  -0.427   1.217  0.00  0.00    +0.023 A 
ATOM     14  C   UNL     1      -3.069  -1.190   1.791  0.00  0.00    +0.004 A 
ATOM     15  C   UNL     1      -3.715  -0.742   2.929  0.00  0.00    -0.060 A 
ATOM     16  C   UNL     1      -3.362   0.468   3.498  0.00  0.00    +0.004 A 
ATOM     17  C   UNL     1      -2.361   1.233   2.932  0.00  0.00    +0.023 A 
BRANCH  12  18
ATOM     18  N   UNL     1      -0.698   1.558   1.213  0.00  0.00    -0.330 N 
BRANCH  18  20
ATOM     19  C   UNL     1      -0.753   1.593  -1.232  0.00  0.00    +0.024 C 
ATOM     20  C   UNL     1      -0.013   1.086   0.008  0.00  0.00    +0.102 C 
ENDBRANCH  18  20
BRANCH  18  21
ATOM     21  C   UNL     1      -0.323   2.840   1.815  0.00  0.00    +0.102 C 
ATOM     22  C   UNL     1      -1.171   3.958   1.204  0.00  0.00    +0.024 C 
ENDBRANCH  18  21
ENDBRANCH  12  18
ENDBRANCH   1  15
BRANCH   7  23
ATOM     23  O   UNL     1      -4.721  -4.614   5.755  0.00  0.00    -0.388 OA
ATOM     24  H   UNL     1      -5.372  -5.200   6.167  0.00  0.00    +0.210 HD
ENDBRANCH   7  23
BRANCH  10  25
ATOM     25  C   UNL     1      -6.145  -1.127   1.582  0.00  0.00    +0.019 C 
BRANCH  25  26
ATOM     26  C   UNL     1      -6.778  -1.779   0.380  0.00  0.00    +0.197 C 
ATOM     27  O   UNL     1      -6.804  -2.988   0.289  0.00  0.00    -0.278 OA
ATOM     28  N   UNL     1      -7.317  -1.019  -0.594  0.00  0.00    -0.310 N 
ATOM     29  H   UNL     1      -7.297  -0.052  -0.521  0.00  0.00    +0.149 HD
BRANCH  28  30
ATOM     30  C   UNL     1      -7.933  -1.653  -1.762  0.00  0.00    +0.178 C 
BRANCH  30  31
ATOM     31  C   UNL     1      -8.454  -0.589  -2.694  0.00  0.00    +0.122 A 
ATOM     32  C   UNL     1      -7.764  -0.012  -3.694  0.00  0.00    +0.046 A 
ATOM     33  C   UNL     1      -8.633   0.921  -4.306  0.00  0.00    +0.041 A 
ATOM     34  C   UNL     1      -9.800   0.863  -3.639  0.00  0.00    +0.195 A 
ATOM     35  O   UNL     1      -9.686  -0.053  -2.663  0.00  0.00    -0.466 OA
ENDBRANCH  30  31
ENDBRANCH  28  30
ENDBRANCH  25  26
ENDBRANCH  10  25
TORSDOF 9
