REMARK  Name = ZINC39600700
REMARK  6 active torsions:
REMARK  status: ('A' for Active; 'I' for Inactive)
REMARK    1  A    between atoms: C_4  and  C_7
REMARK    2  A    between atoms: C_7  and  C_8
REMARK    3  A    between atoms: C_8  and  C_9
REMARK    4  A    between atoms: C_13  and  C_22
REMARK    5  A    between atoms: N_24  and  C_25
REMARK    6  A    between atoms: C_25  and  C_26
REMARK                            x       y       z     vdW  Elec       q    Type
REMARK                         _______ _______ _______ _____ _____    ______ ____
ROOT
ATOM      1  C   UNL     1       5.639  -1.745   1.345  0.00  0.00    +0.216 C 
ATOM      2  O   UNL     1       6.153  -2.095   0.304  0.00  0.00    -0.276 OA
ATOM      3  N   UNL     1       6.195  -2.094   2.522  0.00  0.00    -0.300 N 
ATOM      4  C   UNL     1       5.714  -1.769   3.885  0.00  0.00    +0.121 C 
ATOM      5  C   UNL     1       5.966  -3.055   4.705  0.00  0.00    +0.100 C 
ATOM      6  C   UNL     1       7.091  -3.785   3.953  0.00  0.00    -0.004 C 
ATOM      7  C   UNL     1       7.422  -2.897   2.745  0.00  0.00    +0.115 C 
ATOM      8  C   UNL     1       6.608  -5.152   3.478  0.00  0.00    -0.010 C 
ATOM      9  C   UNL     1       7.761  -5.883   2.783  0.00  0.00    -0.082 C 
ATOM     10  N   UNL     1       8.881  -6.035   3.719  0.00  0.00    +0.379 N 
ATOM     11  C   UNL     1       9.399  -4.716   4.099  0.00  0.00    -0.082 C 
ATOM     12  C   UNL     1       8.316  -3.936   4.850  0.00  0.00    -0.010 C 
ATOM     13  H   UNL     1       8.563  -6.521   4.544  0.00  0.00    -0.086 HD
ATOM     14  H   UNL     1       9.615  -6.570   3.279  0.00  0.00    -0.086 HD
ENDROOT
BRANCH   5  15
ATOM     15  C   UNL     1       6.407  -2.707   6.104  0.00  0.00    +0.218 C 
ATOM     16  O   UNL     1       7.036  -1.690   6.306  0.00  0.00    -0.275 OA
ATOM     17  N   UNL     1       6.102  -3.526   7.129  0.00  0.00    -0.311 N 
ATOM     18  H   UNL     1       5.599  -4.340   6.967  0.00  0.00    +0.149 HD
BRANCH  17  19
ATOM     19  C   UNL     1       6.531  -3.188   8.489  0.00  0.00    +0.142 C 
BRANCH  19  20
ATOM     20  C   UNL     1       6.067  -4.259   9.443  0.00  0.00    +0.006 A 
ATOM     21  C   UNL     1       4.931  -4.061  10.205  0.00  0.00    +0.023 A 
ATOM     22  C   UNL     1       4.505  -5.044  11.080  0.00  0.00    +0.018 A 
ATOM     23  C   UNL     1       5.216  -6.226  11.193  0.00  0.00    +0.018 A 
ATOM     24  C   UNL     1       6.351  -6.425  10.432  0.00  0.00    +0.040 A 
ATOM     25  C   UNL     1       6.775  -5.444   9.551  0.00  0.00    +0.128 A 
ATOM     26  F   UNL     1       7.882  -5.640   8.802  0.00  0.00    -0.205 F 
ATOM     27 BR   UNL     1       2.951  -4.772  12.123  0.00  0.00    -0.050 Br
ENDBRANCH  19  20
ENDBRANCH  17  19
ENDBRANCH   5  15
BRANCH   1  28
ATOM     28  C   UNL     1       4.379  -0.918   1.322  0.00  0.00    +0.100 C 
BRANCH  28  29
ATOM     29  C   UNL     1       3.962  -0.663  -0.128  0.00  0.00    +0.044 C 
BRANCH  29  33
ATOM     30  C   UNL     1       0.391   1.679  -0.194  0.00  0.00    +0.000 A 
ATOM     31  C   UNL     1       1.626   2.301  -0.195  0.00  0.00    +0.000 A 
ATOM     32  C   UNL     1       2.781   1.543  -0.173  0.00  0.00    +0.003 A 
ATOM     33  C   UNL     1       2.702   0.163  -0.150  0.00  0.00    -0.047 A 
ATOM     34  C   UNL     1       1.468  -0.459  -0.148  0.00  0.00    +0.003 A 
ATOM     35  C   UNL     1       0.312   0.299  -0.171  0.00  0.00    +0.000 A 
ENDBRANCH  29  33
ENDBRANCH  28  29
ENDBRANCH   1  28
TORSDOF 6
