REMARK  Name = ZINC05646983
REMARK  10 active torsions:
REMARK  status: ('A' for Active; 'I' for Inactive)
REMARK    1  A    between atoms: C_4  and  C_7
REMARK    2  A    between atoms: C_7  and  C_8
REMARK    3  A    between atoms: C_7  and  N_52
REMARK    4  A    between atoms: C_14  and  C_15
REMARK    5  A    between atoms: C_14  and  N_52
REMARK    6  A    between atoms: C_15  and  C_17
REMARK    7  A    between atoms: C_15  and  O_30
REMARK    8  A    between atoms: C_17  and  O_18
REMARK    9  A    between atoms: O_18  and  C_19
REMARK   10  A    between atoms: C_22  and  C_25
REMARK                            x       y       z     vdW  Elec       q    Type
REMARK                         _______ _______ _______ _____ _____    ______ ____
ROOT
ATOM      1  C   UNL     1      -0.019   1.526   0.010  0.00  0.00    -0.046 C 
ENDROOT
BRANCH   1   2
ATOM      2  N   UNL     1      -0.711   1.993   1.226  0.00  0.00    +0.388 N 
ATOM      3  H   UNL     1      -1.671   1.631   1.230  0.00  0.00    -0.084 HD
ATOM      4  H   UNL     1      -0.212   1.647   2.054  0.00  0.00    -0.084 HD
BRANCH   2   5
ATOM      5  C   UNL     1      -0.745   3.467   1.261  0.00  0.00    -0.010 C 
BRANCH   5   9
ATOM      6  C   UNL     1      -4.104   4.867  -0.977  0.00  0.00    +0.000 A 
ATOM      7  C   UNL     1      -2.897   5.536  -1.051  0.00  0.00    +0.000 A 
ATOM      8  C   UNL     1      -1.810   5.083  -0.327  0.00  0.00    +0.002 A 
ATOM      9  C   UNL     1      -1.930   3.961   0.472  0.00  0.00    -0.057 A 
ATOM     10  C   UNL     1      -3.136   3.289   0.542  0.00  0.00    +0.002 A 
ATOM     11  C   UNL     1      -4.224   3.744  -0.178  0.00  0.00    +0.000 A 
ENDBRANCH   5   9
BRANCH   5  12
ATOM     12  C   UNL     1      -0.869   3.926   2.692  0.00  0.00    -0.057 A 
ATOM     13  C   UNL     1      -1.697   3.247   3.566  0.00  0.00    +0.002 A 
ATOM     14  C   UNL     1      -1.806   3.665   4.879  0.00  0.00    +0.000 A 
ATOM     15  C   UNL     1      -1.094   4.767   5.316  0.00  0.00    +0.000 A 
ATOM     16  C   UNL     1      -0.271   5.449   4.440  0.00  0.00    +0.000 A 
ATOM     17  C   UNL     1      -0.157   5.028   3.128  0.00  0.00    +0.002 A 
ENDBRANCH   5  12
ENDBRANCH   2   5
ENDBRANCH   1   2
BRANCH   1  18
ATOM     18  C   UNL     1       0.002  -0.004   0.002  0.00  0.00    +0.135 C 
BRANCH  18  19
ATOM     19  O   UNL     1       0.693  -0.477   1.160  0.00  0.00    -0.390 OA
ATOM     20  H   UNL     1       1.611  -0.180   1.219  0.00  0.00    +0.210 HD
ENDBRANCH  18  19
BRANCH  18  21
ATOM     21  C   UNL     1       0.718  -0.497  -1.257  0.00  0.00    +0.258 C 
BRANCH  21  22
ATOM     22  O   UNL     1       0.636  -1.923  -1.324  0.00  0.00    -0.489 OA
BRANCH  22  23
ATOM     23  C   UNL     1       1.226  -2.525  -2.389  0.00  0.00    +0.121 A 
ATOM     24  C   UNL     1       1.866  -1.756  -3.352  0.00  0.00    +0.046 A 
ATOM     25  C   UNL     1       2.471  -2.364  -4.431  0.00  0.00    +0.017 A 
ATOM     26  C   UNL     1       2.430  -3.753  -4.561  0.00  0.00    +0.039 A 
ATOM     27  C   UNL     1       1.781  -4.522  -3.593  0.00  0.00    +0.017 A 
ATOM     28  C   UNL     1       1.183  -3.907  -2.514  0.00  0.00    +0.046 A 
BRANCH  26  29
ATOM     29  C   UNL     1       3.073  -4.409  -5.719  0.00  0.00    +0.248 A 
ATOM     30  N   UNL     1       3.115  -5.698  -5.960  0.00  0.00    -0.108 NA
ATOM     31  N   UNL     1       3.753  -5.904  -7.058  0.00  0.00    -0.116 NA
ATOM     32  C   UNL     1       4.149  -4.765  -7.553  0.00  0.00    +0.332 A 
ATOM     33  O   UNL     1       3.730  -3.794  -6.723  0.00  0.00    -0.423 OA
ENDBRANCH  26  29
ENDBRANCH  22  23
ENDBRANCH  21  22
ENDBRANCH  18  21
ENDBRANCH   1  18
TORSDOF 10
