REMARK  Name = ZINC28291788
REMARK  10 active torsions:
REMARK  status: ('A' for Active; 'I' for Inactive)
REMARK    1  A    between atoms: C_1  and  C_2
REMARK    2  A    between atoms: C_10  and  C_11
REMARK    3  A    between atoms: N_13  and  C_14
REMARK    4  A    between atoms: C_14  and  C_15
REMARK    5  A    between atoms: C_15  and  C_17
REMARK    6  A    between atoms: C_15  and  N_27
REMARK    7  A    between atoms: C_20  and  C_23
REMARK    8  A    between atoms: C_23  and  C_24
REMARK    9  A    between atoms: C_23  and  C_25
REMARK   10  A    between atoms: C_23  and  C_26
REMARK                            x       y       z     vdW  Elec       q    Type
REMARK                         _______ _______ _______ _____ _____    ______ ____
ROOT
ATOM      1  C   UNL     1      -1.319   2.095  -0.002  0.00  0.00    -0.020 C 
ENDROOT
BRANCH   1   2
ATOM      2  C   UNL     1      -0.079   1.239  -0.045  0.00  0.00    -0.059 A 
ATOM      3  C   UNL     1       1.170   1.832  -0.045  0.00  0.00    +0.002 A 
ATOM      4  C   UNL     1       2.307   1.047  -0.090  0.00  0.00    +0.004 A 
ATOM      5  C   UNL     1       2.196  -0.330  -0.135  0.00  0.00    -0.042 A 
ATOM      6  C   UNL     1       0.947  -0.922  -0.135  0.00  0.00    +0.004 A 
ATOM      7  C   UNL     1      -0.191  -0.138  -0.090  0.00  0.00    +0.002 A 
BRANCH   5   8
ATOM      8  C   UNL     1       3.435  -1.185  -0.184  0.00  0.00    -0.013 C 
ATOM      9  C   UNL     1       3.425  -2.026  -1.462  0.00  0.00    +0.015 C 
ATOM     10  C   UNL     1       4.675  -0.288  -0.173  0.00  0.00    +0.015 C 
ATOM     11  C   UNL     1       3.465  -2.110   1.035  0.00  0.00    +0.015 C 
ENDBRANCH   5   8
ENDBRANCH   1   2
BRANCH   1  12
ATOM     12  N   UNL     1      -1.128   3.276  -0.856  0.00  0.00    +0.385 N 
ATOM     13  C   UNL     1      -0.870   2.878  -2.263  0.00  0.00    -0.078 C 
ATOM     14  C   UNL     1      -1.220   4.159  -3.063  0.00  0.00    -0.020 C 
ATOM     15  C   UNL     1      -2.442   4.719  -2.300  0.00  0.00    -0.020 C 
ATOM     16  C   UNL     1      -2.351   4.107  -0.890  0.00  0.00    -0.078 C 
ATOM     17  H   UNL     1      -0.279   3.824  -0.423  0.00  0.00    -0.081 HD
ENDBRANCH   1  12
BRANCH   1  18
ATOM     18  C   UNL     1      -1.580   2.543   1.437  0.00  0.00    +0.094 C 
BRANCH  18  21
ATOM     19  C   UNL     1      -2.261   1.538   3.550  0.00  0.00    +0.280 C 
ATOM     20  O   UNL     1      -2.322   2.655   4.028  0.00  0.00    -0.267 OA
ATOM     21  N   UNL     1      -1.900   1.375   2.262  0.00  0.00    -0.310 N 
ATOM     22  H   UNL     1      -1.845   0.365   1.829  0.00  0.00    +0.149 HD
BRANCH  19  32
ATOM     23  C   UNL     1      -3.107   1.639   6.541  0.00  0.00    +0.048 C 
ATOM     24  C   UNL     1      -2.952   0.410   5.683  0.00  0.00    +0.008 A 
ATOM     25  C   UNL     1      -3.172  -0.979   6.088  0.00  0.00    +0.025 A 
ATOM     26  C   UNL     1      -3.560  -1.595   7.280  0.00  0.00    +0.027 A 
ATOM     27  C   UNL     1      -3.670  -2.957   7.333  0.00  0.00    +0.019 A 
ATOM     28  C   UNL     1      -3.398  -3.729   6.211  0.00  0.00    +0.019 A 
ATOM     29  C   UNL     1      -3.014  -3.139   5.026  0.00  0.00    +0.048 A 
ATOM     30  C   UNL     1      -2.895  -1.756   4.948  0.00  0.00    +0.136 A 
ATOM     31  O   UNL     1      -2.549  -0.915   3.955  0.00  0.00    -0.450 OA
ATOM     32  C   UNL     1      -2.582   0.367   4.377  0.00  0.00    +0.193 A 
ATOM     33 BR   UNL     1      -4.195  -3.794   8.946  0.00  0.00    -0.050 Br
ENDBRANCH  19  32
ENDBRANCH  18  21
ENDBRANCH   1  18
TORSDOF 6
