REMARK  Name = ZINC22938737
REMARK  9 active torsions:
REMARK  status: ('A' for Active; 'I' for Inactive)
REMARK    1  A    between atoms: C_4  and  C_7
REMARK    2  A    between atoms: C_8  and  C_9
REMARK    3  A    between atoms: N_11  and  N_12
REMARK    4  A    between atoms: C_13  and  C_15
REMARK    5  A    between atoms: C_15  and  C_16
REMARK    6  A    between atoms: C_16  and  N_17
REMARK    7  A    between atoms: N_20  and  C_23
REMARK    8  A    between atoms: C_23  and  C_24
REMARK    9  A    between atoms: C_23  and  C_30
REMARK                            x       y       z     vdW  Elec       q    Type
REMARK                         _______ _______ _______ _____ _____    ______ ____
ROOT
ATOM      1  N   UNL     1       7.304   1.147  -0.509  0.00  0.00    +0.382 N 
ATOM      2  C   UNL     1       7.417   0.339   0.714  0.00  0.00    -0.063 C 
ATOM      3  C   UNL     1       8.798  -0.320   0.761  0.00  0.00    +0.067 C 
ATOM      4  N   UNL     1       9.836   0.720   0.722  0.00  0.00    -0.295 NA
ATOM      5  C   UNL     1       9.723   1.527  -0.501  0.00  0.00    +0.067 C 
ATOM      6  C   UNL     1       8.342   2.186  -0.549  0.00  0.00    -0.063 C 
ATOM      7  H   UNL     1       7.458   0.481  -1.371  0.00  0.00    -0.082 HD
ENDROOT
BRANCH   1   8
ATOM      8  C   UNL     1       5.964   1.736  -0.629  0.00  0.00    -0.069 C 
BRANCH   8   9
ATOM      9  C   UNL     1       4.934   0.623  -0.835  0.00  0.00    +0.079 C 
BRANCH   9  11
ATOM     10  N   UNL     1       2.487   0.433  -1.146  0.00  0.00    -0.234 N 
ATOM     11  C   UNL     1       3.559   1.228  -0.958  0.00  0.00    +0.227 C 
ATOM     12  O   UNL     1       3.417   2.430  -0.888  0.00  0.00    -0.274 OA
ATOM     13  H   UNL     1       2.616  -0.658  -1.209  0.00  0.00    +0.173 HD
BRANCH  10  16
ATOM     14  C   UNL     1       0.138   0.200  -1.448  0.00  0.00    +0.253 C 
ATOM     15  O   UNL     1       0.280  -1.007  -1.518  0.00  0.00    -0.269 OA
ATOM     16  N   UNL     1       1.209   0.995  -1.260  0.00  0.00    -0.231 N 
ATOM     17  H   UNL     1       1.081   2.086  -1.196  0.00  0.00    +0.173 HD
BRANCH  14  19
ATOM     18  C   UNL     1      -2.269  -0.008  -1.767  0.00  0.00    +0.013 C 
ATOM     19  C   UNL     1      -1.198   0.787  -1.573  0.00  0.00    +0.069 C 
BRANCH  18  23
ATOM     20  C   UNL     1      -6.137   1.696  -2.130  0.00  0.00    +0.000 A 
ATOM     21  C   UNL     1      -5.979   0.323  -2.211  0.00  0.00    +0.001 A 
ATOM     22  C   UNL     1      -4.725  -0.238  -2.094  0.00  0.00    +0.008 A 
ATOM     23  C   UNL     1      -3.611   0.583  -1.893  0.00  0.00    -0.025 A 
ATOM     24  C   UNL     1      -3.780   1.969  -1.807  0.00  0.00    +0.008 A 
ATOM     25  C   UNL     1      -5.039   2.515  -1.932  0.00  0.00    +0.001 A 
ENDBRANCH  18  23
ENDBRANCH  14  19
ENDBRANCH  10  16
ENDBRANCH   9  11
ENDBRANCH   8   9
ENDBRANCH   1   8
BRANCH   4  26
ATOM     26  C   UNL     1      11.176   0.130   0.842  0.00  0.00    +0.117 C 
BRANCH  26  27
ATOM     27  C   UNL     1      12.210   1.226   0.824  0.00  0.00    -0.026 A 
ATOM     28  C   UNL     1      12.010   2.377   1.563  0.00  0.00    +0.005 A 
ATOM     29  C   UNL     1      12.961   3.380   1.551  0.00  0.00    +0.000 A 
ATOM     30  C   UNL     1      14.107   3.237   0.792  0.00  0.00    +0.000 A 
ATOM     31  C   UNL     1      14.305   2.088   0.048  0.00  0.00    +0.000 A 
ATOM     32  C   UNL     1      13.356   1.083   0.064  0.00  0.00    +0.005 A 
ENDBRANCH  26  27
BRANCH  26  33
ATOM     33  C   UNL     1      11.275  -0.633   2.137  0.00  0.00    -0.026 A 
ATOM     34  C   UNL     1      10.783  -0.080   3.305  0.00  0.00    +0.005 A 
ATOM     35  C   UNL     1      10.869  -0.782   4.492  0.00  0.00    +0.000 A 
ATOM     36  C   UNL     1      11.457  -2.034   4.514  0.00  0.00    +0.000 A 
ATOM     37  C   UNL     1      11.954  -2.584   3.348  0.00  0.00    +0.000 A 
ATOM     38  C   UNL     1      11.863  -1.884   2.159  0.00  0.00    +0.005 A 
ENDBRANCH  26  33
ENDBRANCH   4  26
TORSDOF 9
