REMARK  Name = ZINC23718599
REMARK  12 active torsions:
REMARK  status: ('A' for Active; 'I' for Inactive)
REMARK    1  A    between atoms: C_1  and  O_2
REMARK    2  A    between atoms: O_2  and  C_3
REMARK    3  A    between atoms: C_6  and  C_9
REMARK    4  A    between atoms: C_9  and  N_10
REMARK    5  A    between atoms: N_10  and  C_11
REMARK    6  A    between atoms: N_10  and  C_32
REMARK    7  A    between atoms: C_11  and  C_12
REMARK    8  A    between atoms: N_14  and  C_15
REMARK    9  A    between atoms: C_16  and  C_30
REMARK   10  A    between atoms: C_23  and  C_28
REMARK   11  A    between atoms: C_24  and  S_26
REMARK   12  A    between atoms: S_26  and  C_27
REMARK                            x       y       z     vdW  Elec       q    Type
REMARK                         _______ _______ _______ _____ _____    ______ ____
ROOT
ATOM      1  C   UNL     1      -0.053   0.923  -0.173  0.00  0.00    +0.202 C 
ATOM      2  O   UNL     1      -0.217  -0.277  -0.225  0.00  0.00    -0.278 OA
ATOM      3  N   UNL     1      -1.112   1.753  -0.256  0.00  0.00    -0.274 N 
ATOM      4  H   UNL     1      -0.956   2.841  -0.301  0.00  0.00    +0.156 HD
ENDROOT
BRANCH   3   5
ATOM      5  C   UNL     1      -2.392   1.237  -0.283  0.00  0.00    +0.109 C 
ATOM      6  C   UNL     1      -3.442   2.065  -0.503  0.00  0.00    +0.076 C 
ATOM      7  C   UNL     1      -4.856   1.556  -0.532  0.00  0.00    +0.046 C 
ATOM      8  C   UNL     1      -5.601   2.200  -1.706  0.00  0.00    +0.018 C 
ATOM      9  C   UNL     1      -5.587   3.721  -1.545  0.00  0.00    +0.001 C 
ATOM     10  C   UNL     1      -6.282   4.103  -0.237  0.00  0.00    +0.000 C 
ATOM     11  C   UNL     1      -5.545   3.457   0.938  0.00  0.00    +0.001 C 
ATOM     12  C   UNL     1      -5.559   1.936   0.775  0.00  0.00    +0.018 C 
ATOM     13  C   UNL     1      -4.879   0.061  -0.692  0.00  0.00    +0.068 C 
ATOM     14  C   UNL     1      -3.773  -0.696  -0.465  0.00  0.00    +0.080 C 
ATOM     15  N   UNL     1      -2.585  -0.111  -0.093  0.00  0.00    -0.296 N 
ATOM     16  H   UNL     1      -1.789  -0.723   0.356  0.00  0.00    +0.154 HD
BRANCH  14  17
ATOM     17  S   UNL     1      -3.861  -2.445  -0.656  0.00  0.00    -0.113 S 
ATOM     18  C   UNL     1      -2.157  -2.892  -0.238  0.00  0.00    +0.091 C 
ENDBRANCH  14  17
BRANCH  13  19
ATOM     19  C   UNL     1      -6.095  -0.581  -1.091  0.00  0.00    +0.098 C 
ATOM     20  N   UNL     1      -7.060  -1.090  -1.408  0.00  0.00    -0.191 NA
ENDBRANCH  13  19
BRANCH   6  21
ATOM     21  C   UNL     1      -3.198   3.461  -0.711  0.00  0.00    +0.099 C 
ATOM     22  N   UNL     1      -3.005   4.568  -0.876  0.00  0.00    -0.191 NA
ENDBRANCH   6  21
ENDBRANCH   3   5
BRANCH   1  23
ATOM     23  C   UNL     1       1.337   1.488  -0.022  0.00  0.00    +0.020 C 
BRANCH  23  24
ATOM     24  N   UNL     1       2.295   0.388   0.155  0.00  0.00    +0.390 N 
ATOM     25  H   UNL     1       1.849  -0.341   0.848  0.00  0.00    -0.080 HD
BRANCH  24  26
ATOM     26  C   UNL     1       3.547   0.872   0.752  0.00  0.00    -0.068 C 
ATOM     27  C   UNL     1       3.971   0.267   2.091  0.00  0.00    -0.017 C 
ATOM     28  C   UNL     1       3.443   1.702   2.033  0.00  0.00    -0.017 C 
ENDBRANCH  24  26
BRANCH  24  29
ATOM     29  C   UNL     1       2.550  -0.298  -1.119  0.00  0.00    -0.042 C 
BRANCH  29  33
ATOM     30  C   UNL     1       4.777  -3.871  -0.391  0.00  0.00    +0.120 A 
ATOM     31  C   UNL     1       3.390  -3.904  -0.385  0.00  0.00    +0.046 A 
ATOM     32  C   UNL     1       2.673  -2.747  -0.620  0.00  0.00    +0.005 A 
ATOM     33  C   UNL     1       3.336  -1.558  -0.862  0.00  0.00    -0.064 A 
ATOM     34  C   UNL     1       4.718  -1.524  -0.875  0.00  0.00    +0.005 A 
ATOM     35  C   UNL     1       5.440  -2.677  -0.634  0.00  0.00    +0.046 A 
BRANCH  30  37
ATOM     36  C   UNL     1       6.910  -4.900  -0.181  0.00  0.00    +0.277 C 
ATOM     37  O   UNL     1       5.486  -5.008  -0.159  0.00  0.00    -0.495 OA
ENDBRANCH  30  37
ENDBRANCH  29  33
ENDBRANCH  24  29
ENDBRANCH  23  24
ENDBRANCH   1  23
TORSDOF 10
