REMARK  Name = ZINC56343254
REMARK  7 active torsions:
REMARK  status: ('A' for Active; 'I' for Inactive)
REMARK    1  A    between atoms: C_1  and  C_2
REMARK    2  A    between atoms: C_2  and  C_4
REMARK    3  A    between atoms: C_2  and  N_17
REMARK    4  A    between atoms: N_6  and  C_7
REMARK    5  A    between atoms: C_10  and  N_13
REMARK    6  A    between atoms: N_17  and  S_18
REMARK    7  A    between atoms: S_18  and  C_21
REMARK                            x       y       z     vdW  Elec       q    Type
REMARK                         _______ _______ _______ _____ _____    ______ ____
ROOT
ATOM      1  C   UNL     1       0.689  -0.525  -1.240  0.00  0.00    +0.236 C 
ATOM      2  O   UNL     1       0.110  -1.237  -2.034  0.00  0.00    -0.274 OA
ATOM      3  N   UNL     1       1.970  -0.170  -1.463  0.00  0.00    -0.284 N 
ATOM      4  H   UNL     1       2.411   0.453  -0.865  0.00  0.00    +0.155 HD
ENDROOT
BRANCH   3   5
ATOM      5  C   UNL     1       2.663  -0.699  -2.559  0.00  0.00    +0.034 A 
ATOM      6  C   UNL     1       4.019  -0.981  -2.453  0.00  0.00    +0.025 A 
ATOM      7  C   UNL     1       4.702  -1.503  -3.534  0.00  0.00    +0.025 A 
ATOM      8  C   UNL     1       4.034  -1.746  -4.726  0.00  0.00    +0.035 A 
ATOM      9  C   UNL     1       2.678  -1.464  -4.832  0.00  0.00    +0.025 A 
ATOM     10  C   UNL     1       1.994  -0.948  -3.750  0.00  0.00    +0.025 A 
BRANCH   8  11
ATOM     11  N   UNL     1       4.727  -2.275  -5.823  0.00  0.00    -0.270 N 
ATOM     12  C   UNL     1       4.403  -1.893  -7.074  0.00  0.00    +0.301 C 
ATOM     13  O   UNL     1       3.454  -1.154  -7.257  0.00  0.00    -0.253 OA
ATOM     14  N   UNL     1       5.129  -2.329  -8.122  0.00  0.00    -0.313 N 
ATOM     15  H   UNL     1       5.441  -2.916  -5.681  0.00  0.00    +0.156 HD
ATOM     16  H   UNL     1       5.886  -2.918  -7.975  0.00  0.00    +0.146 HD
ATOM     17  H   UNL     1       4.895  -2.054  -9.022  0.00  0.00    +0.146 HD
ENDBRANCH   8  11
ENDBRANCH   3   5
BRANCH   1  19
ATOM     18  C   UNL     1      -0.060   1.491  -0.007  0.00  0.00    +0.035 C 
ATOM     19  C   UNL     1      -0.024  -0.038  -0.005  0.00  0.00    +0.159 C 
BRANCH  19  20
ATOM     20  N   UNL     1      -1.393  -0.559   0.005  0.00  0.00    -0.178 NA
ATOM     21  H   UNL     1      -1.879  -0.664  -0.828  0.00  0.00    +0.149 HD
BRANCH  20  22
ATOM     22  S   UNL     1      -2.113  -0.968   1.439  0.00  0.00    +0.065 S 
ATOM     23  O   UNL     1      -3.427  -1.408   1.124  0.00  0.00    -0.153 OA
ATOM     24  O   UNL     1      -1.185  -1.784   2.141  0.00  0.00    -0.153 OA
BRANCH  22  25
ATOM     25  C   UNL     1      -2.289   0.514   2.376  0.00  0.00    +0.142 A 
ATOM     26  C   UNL     1      -3.324   1.388   2.403  0.00  0.00    +0.036 A 
ATOM     27  C   UNL     1      -3.244   2.497   3.224  0.00  0.00    +0.010 A 
ATOM     28  C   UNL     1      -2.131   2.678   3.978  0.00  0.00    +0.047 A 
ATOM     29  S   UNL     1      -1.153   1.250   3.540  0.00  0.00    -0.077 S 
ENDBRANCH  22  25
ENDBRANCH  20  22
ENDBRANCH  19  20
ENDBRANCH   1  19
TORSDOF 6
