REMARK  Name = ZINC13131257
REMARK  3 active torsions:
REMARK  status: ('A' for Active; 'I' for Inactive)
REMARK    1  A    between atoms: C_1  and  C_2
REMARK    2  A    between atoms: C_5  and  C_8
REMARK    3  A    between atoms: C_11  and  C_20
REMARK                            x       y       z     vdW  Elec       q    Type
REMARK                         _______ _______ _______ _____ _____    ______ ____
ROOT
ATOM      1  C   UNL     1       0.059  -4.275  -0.021  0.00  0.00    +0.106 C 
ATOM      2  C   UNL     1       1.488  -4.773   0.227  0.00  0.00    +0.059 C 
ATOM      3  C   UNL     1       1.521  -6.305   0.165  0.00  0.00    +0.144 C 
ATOM      4  N   UNL     1       0.446  -6.834   1.005  0.00  0.00    -0.224 N 
ATOM      5  C   UNL     1      -0.629  -6.117   1.411  0.00  0.00    +0.216 A 
ATOM      6  N   UNL     1      -1.382  -6.893   2.144  0.00  0.00    -0.180 NA
ATOM      7  C   UNL     1      -0.824  -8.109   2.227  0.00  0.00    +0.233 A 
ATOM      8  N   UNL     1       0.297  -8.114   1.541  0.00  0.00    -0.132 NA
ATOM      9  N   UNL     1      -1.349  -9.196   2.928  0.00  0.00    -0.326 N 
ATOM     10  N   UNL     1      -0.815  -4.788   1.051  0.00  0.00    -0.307 N 
ATOM     11  H   UNL     1      -2.187  -9.104   3.408  0.00  0.00    +0.145 HD
ATOM     12  H   UNL     1      -0.877 -10.043   2.935  0.00  0.00    +0.145 HD
ATOM     13  H   UNL     1      -1.480  -4.228   1.482  0.00  0.00    +0.149 HD
ENDROOT
BRANCH   1  18
ATOM     14  C   UNL     1      -0.018   1.503   0.010  0.00  0.00    +0.044 C 
ATOM     15  C   UNL     1       0.002  -0.004   0.002  0.00  0.00    -0.050 A 
ATOM     16  C   UNL     1       0.006  -0.689  -1.199  0.00  0.00    +0.004 A 
ATOM     17  C   UNL     1       0.025  -2.071  -1.206  0.00  0.00    +0.006 A 
ATOM     18  C   UNL     1       0.040  -2.768  -0.013  0.00  0.00    -0.027 A 
ATOM     19  C   UNL     1       0.037  -2.084   1.188  0.00  0.00    +0.006 A 
ATOM     20  C   UNL     1       0.023  -0.702   1.195  0.00  0.00    +0.004 A 
ENDBRANCH   1  18
BRANCH   3  21
ATOM     21  C   UNL     1       2.851  -6.803   0.669  0.00  0.00    -0.005 A 
ATOM     22  C   UNL     1       3.250  -6.519   1.962  0.00  0.00    +0.007 A 
ATOM     23  C   UNL     1       4.470  -6.975   2.424  0.00  0.00    +0.000 A 
ATOM     24  C   UNL     1       5.292  -7.716   1.595  0.00  0.00    +0.001 A 
ATOM     25  C   UNL     1       4.893  -8.000   0.302  0.00  0.00    +0.020 A 
ATOM     26  C   UNL     1       3.670  -7.548  -0.159  0.00  0.00    +0.046 A 
ATOM     27 CL   UNL     1       3.166  -7.911  -1.781  0.00  0.00    -0.083 Cl
ENDBRANCH   3  21
TORSDOF 2
