REMARK  Name = ZINC39736828
REMARK  7 active torsions:
REMARK  status: ('A' for Active; 'I' for Inactive)
REMARK    1  A    between atoms: C_1  and  C_2
REMARK    2  A    between atoms: C_2  and  C_4
REMARK    3  A    between atoms: C_2  and  S_19
REMARK    4  A    between atoms: C_9  and  C_14
REMARK    5  A    between atoms: S_19  and  C_20
REMARK    6  A    between atoms: N_25  and  C_26
REMARK    7  A    between atoms: C_26  and  C_27
REMARK                            x       y       z     vdW  Elec       q    Type
REMARK                         _______ _______ _______ _____ _____    ______ ____
ROOT
ATOM      1  S   UNL     1       0.785  -0.380  -1.398  0.00  0.00    -0.107 S 
ENDROOT
BRANCH   1   2
ATOM      2  C   UNL     1       2.552  -0.051  -1.152  0.00  0.00    +0.236 C 
ATOM      3  N   UNL     1       2.811   1.399  -1.143  0.00  0.00    -0.259 N 
ATOM      4  N   UNL     1       3.341   1.691   0.120  0.00  0.00    -0.283 N 
ATOM      5  C   UNL     1       3.430   0.633   0.852  0.00  0.00    +0.178 C 
ATOM      6  N   UNL     1       2.980  -0.499   0.184  0.00  0.00    -0.268 N 
ATOM      7  N   UNL     1       3.921   0.625   2.150  0.00  0.00    -0.304 N 
ATOM      8  C   UNL     1       4.181  -0.575   2.960  0.00  0.00    +0.108 C 
ATOM      9  C   UNL     1       4.692  -0.096   4.336  0.00  0.00    +0.020 C 
ATOM     10  C   UNL     1       4.153   1.356   4.420  0.00  0.00    +0.020 C 
ATOM     11  C   UNL     1       4.273   1.816   2.943  0.00  0.00    +0.108 C 
ATOM     12  H   UNL     1       2.648   2.025  -1.865  0.00  0.00    +0.169 HD
ATOM     13  H   UNL     1       3.607   2.578   0.409  0.00  0.00    +0.187 HD
BRANCH   6  14
ATOM     14  C   UNL     1       2.937  -1.868   0.704  0.00  0.00    +0.184 C 
BRANCH  14  15
ATOM     15  C   UNL     1       1.596  -2.120   1.344  0.00  0.00    +0.122 A 
ATOM     16  C   UNL     1       0.547  -2.726   0.760  0.00  0.00    +0.046 A 
ATOM     17  C   UNL     1      -0.495  -2.751   1.715  0.00  0.00    +0.041 A 
ATOM     18  C   UNL     1      -0.021  -2.158   2.825  0.00  0.00    +0.195 A 
ATOM     19  O   UNL     1       1.248  -1.783   2.597  0.00  0.00    -0.466 OA
ENDBRANCH  14  15
ENDBRANCH   6  14
ENDBRANCH   1   2
BRANCH   1  21
ATOM     20  C   UNL     1       0.205   2.023  -0.226  0.00  0.00    +0.027 C 
ATOM     21  C   UNL     1      -0.021   0.521  -0.045  0.00  0.00    +0.112 C 
BRANCH  21  22
ATOM     22  C   UNL     1      -1.500   0.230  -0.059  0.00  0.00    +0.136 C 
ATOM     23  N   UNL     1      -1.963  -0.656  -0.911  0.00  0.00    -0.160 NA
ATOM     24  C   UNL     1      -3.262  -0.962  -0.977  0.00  0.00    +0.272 C 
ATOM     25  O   UNL     1      -3.669  -1.790  -1.778  0.00  0.00    -0.268 OA
ATOM     26  C   UNL     1      -4.200  -0.271  -0.051  0.00  0.00    +0.078 C 
ATOM     27  C   UNL     1      -5.574  -0.446   0.039  0.00  0.00    +0.020 C 
ATOM     28  C   UNL     1      -6.295   0.389   1.074  0.00  0.00    +0.115 C 
ATOM     29  S   UNL     1      -4.901   1.337   1.805  0.00  0.00    -0.100 S 
ATOM     30  C   UNL     1      -3.583   0.664   0.822  0.00  0.00    +0.112 C 
ATOM     31  N   UNL     1      -2.283   0.872   0.790  0.00  0.00    -0.226 NA
BRANCH  27  32
ATOM     32  C   UNL     1      -6.257  -1.347  -0.786  0.00  0.00    +0.132 A 
ATOM     33  C   UNL     1      -6.933  -2.490  -0.371  0.00  0.00    +0.049 A 
ATOM     34  C   UNL     1      -7.459  -3.078  -1.523  0.00  0.00    +0.042 A 
ATOM     35  C   UNL     1      -7.100  -2.300  -2.575  0.00  0.00    +0.195 A 
ATOM     36  O   UNL     1      -6.384  -1.261  -2.128  0.00  0.00    -0.463 OA
ENDBRANCH  27  32
ENDBRANCH  21  22
ENDBRANCH   1  21
TORSDOF 6
