REMARK  Name = ZINC22302197
REMARK  7 active torsions:
REMARK  status: ('A' for Active; 'I' for Inactive)
REMARK    1  A    between atoms: C_1  and  C_2
REMARK    2  A    between atoms: C_6  and  C_16
REMARK    3  A    between atoms: N_8  and  C_9
REMARK    4  A    between atoms: C_21  and  C_24
REMARK    5  A    between atoms: C_24  and  N_25
REMARK    6  A    between atoms: C_27  and  C_34
REMARK    7  A    between atoms: C_30  and  C_33
REMARK                            x       y       z     vdW  Elec       q    Type
REMARK                         _______ _______ _______ _____ _____    ______ ____
ROOT
ATOM      1  C   UNL     1       0.024  -4.194   0.311  0.00  0.00    +0.274 C 
ATOM      2  O   UNL     1      -0.060  -4.891  -0.682  0.00  0.00    -0.268 OA
ATOM      3  N   UNL     1       0.115  -4.765   1.529  0.00  0.00    -0.259 N 
ATOM      4  C   UNL     1       0.113  -6.148   1.649  0.00  0.00    +0.165 A 
ATOM      5  N   UNL     1       0.188  -6.874   2.744  0.00  0.00    -0.228 NA
ATOM      6  C   UNL     1       0.173  -8.193   2.691  0.00  0.00    +0.064 A 
ATOM      7  C   UNL     1       0.079  -8.759   1.463  0.00  0.00    +0.073 A 
ATOM      8  S   UNL     1       0.006  -7.304   0.430  0.00  0.00    -0.060 S 
ATOM      9  H   UNL     1       0.182  -4.209   2.321  0.00  0.00    +0.157 HD
ENDROOT
BRANCH   1  15
ATOM     10  C   UNL     1       0.045   1.503   0.005  0.00  0.00    +0.066 C 
ATOM     11  C   UNL     1       0.033  -0.004  -0.001  0.00  0.00    +0.044 A 
ATOM     12  C   UNL     1      -0.065  -0.668  -1.177  0.00  0.00    +0.076 A 
ATOM     13  C   UNL     1      -0.073  -2.086  -1.139  0.00  0.00    +0.213 A 
ATOM     14  O   UNL     1      -0.158  -2.750  -2.160  0.00  0.00    -0.285 OA
ATOM     15  C   UNL     1       0.026  -2.724   0.183  0.00  0.00    +0.193 A 
ATOM     16  N   UNL     1       0.116  -1.958   1.251  0.00  0.00    -0.158 NA
ATOM     17  N   UNL     1       0.125  -0.678   1.172  0.00  0.00    -0.236 N 
BRANCH  17  18
ATOM     18  C   UNL     1       0.230   0.060   2.356  0.00  0.00    +0.066 A 
ATOM     19  C   UNL     1      -0.651  -0.177   3.403  0.00  0.00    +0.029 A 
ATOM     20  C   UNL     1      -0.545   0.553   4.571  0.00  0.00    +0.022 A 
ATOM     21  C   UNL     1       0.438   1.519   4.698  0.00  0.00    +0.041 A 
ATOM     22  C   UNL     1       1.317   1.757   3.656  0.00  0.00    +0.022 A 
ATOM     23  C   UNL     1       1.219   1.026   2.488  0.00  0.00    +0.029 A 
ATOM     24 CL   UNL     1       0.568   2.435   6.167  0.00  0.00    -0.084 Cl
ENDBRANCH  17  18
ENDBRANCH   1  15
BRANCH   6  25
ATOM     25  C   UNL     1       0.259  -9.032   3.940  0.00  0.00    +0.140 C 
BRANCH  25  26
ATOM     26  N   UNL     1       1.668  -9.214   4.311  0.00  0.00    -0.292 NA
ATOM     27  C   UNL     1       2.277  -7.938   4.713  0.00  0.00    +0.116 C 
ATOM     28  C   UNL     1       3.757  -8.163   5.034  0.00  0.00    +0.130 C 
ATOM     29  O   UNL     1       3.873  -9.162   6.051  0.00  0.00    -0.371 OA
ATOM     30  C   UNL     1       3.291 -10.418   5.692  0.00  0.00    +0.130 C 
ATOM     31  C   UNL     1       1.806 -10.216   5.379  0.00  0.00    +0.116 C 
ATOM     32  C   UNL     1       3.439 -11.400   6.856  0.00  0.00    +0.039 C 
ATOM     33  C   UNL     1       4.377  -6.855   5.528  0.00  0.00    +0.039 C 
ENDBRANCH  25  26
ENDBRANCH   6  25
TORSDOF 4
