REMARK  Name = ZINC26570920
REMARK  4 active torsions:
REMARK  status: ('A' for Active; 'I' for Inactive)
REMARK    1  A    between atoms: C_1  and  C_2
REMARK    2  A    between atoms: C_5  and  O_33
REMARK    3  A    between atoms: C_17  and  C_32
REMARK    4  A    between atoms: C_22  and  C_23
REMARK                            x       y       z     vdW  Elec       q    Type
REMARK                         _______ _______ _______ _____ _____    ______ ____
ROOT
ATOM      1  C   UNL     1       2.479   4.712   0.230  0.00  0.00    +0.016 C 
ATOM      2  C   UNL     1       1.637   4.069   1.333  0.00  0.00    -0.008 C 
ATOM      3  C   UNL     1       2.245   4.457   2.684  0.00  0.00    +0.014 C 
ATOM      4  C   UNL     1       3.660   3.885   2.785  0.00  0.00    +0.032 C 
ATOM      5  C   UNL     1       3.604   2.357   2.739  0.00  0.00    +0.119 C 
ATOM      6  C   UNL     1       3.052   1.906   1.383  0.00  0.00    +0.062 C 
ATOM      7  C   UNL     1       1.707   2.580   1.167  0.00  0.00    -0.065 C 
ATOM      8  C   UNL     1       0.689   1.837   0.847  0.00  0.00    -0.027 C 
ATOM      9  C   UNL     1      -0.686   2.392   0.615  0.00  0.00    +0.031 C 
ATOM     10  C   UNL     1      -0.577   3.856   0.171  0.00  0.00    +0.001 C 
ATOM     11  C   UNL     1       0.226   4.623   1.217  0.00  0.00    +0.003 C 
ATOM     12  C   UNL     1       0.298   6.094   0.789  0.00  0.00    +0.005 C 
ATOM     13  C   UNL     1      -1.113   6.670   0.780  0.00  0.00    +0.015 C 
ATOM     14  C   UNL     1      -1.984   5.953  -0.254  0.00  0.00    +0.034 C 
ATOM     15  C   UNL     1      -1.956   4.431  -0.029  0.00  0.00    +0.010 C 
ATOM     16  C   UNL     1      -2.859   4.282   1.211  0.00  0.00    +0.043 C 
ATOM     17  C   UNL     1      -3.936   5.330   0.973  0.00  0.00    -0.004 C 
ATOM     18  C   UNL     1      -5.173   5.327   1.524  0.00  0.00    +0.015 C 
ATOM     19  C   UNL     1      -3.433   6.307   0.083  0.00  0.00    +0.165 C 
ATOM     20  O   UNL     1      -4.047   7.265  -0.341  0.00  0.00    -0.292 OA
ATOM     21  C   UNL     1      -1.611   6.342  -1.686  0.00  0.00    +0.020 C 
ENDROOT
BRANCH  18  22
ATOM     22  C   UNL     1      -5.515   4.342   2.559  0.00  0.00    -0.025 A 
ATOM     23  C   UNL     1      -6.855   4.099   2.885  0.00  0.00    +0.009 A 
ATOM     24  C   UNL     1      -7.167   3.171   3.854  0.00  0.00    +0.016 A 
ATOM     25  C   UNL     1      -6.159   2.486   4.513  0.00  0.00    +0.018 A 
ATOM     26  C   UNL     1      -4.831   2.724   4.200  0.00  0.00    +0.016 A 
ATOM     27  C   UNL     1      -4.503   3.646   3.230  0.00  0.00    +0.009 A 
ATOM     28 BR   UNL     1      -6.599   1.219   5.846  0.00  0.00    -0.050 Br
ENDBRANCH  18  22
BRANCH   5  29
ATOM     29  O   UNL     1       4.919   1.827   2.917  0.00  0.00    -0.391 OA
ATOM     30  H   UNL     1       5.079   0.739   2.913  0.00  0.00    +0.210 HD
ENDBRANCH   5  29
TORSDOF 2
