REMARK  Name = ZINC09018460
REMARK  10 active torsions:
REMARK  status: ('A' for Active; 'I' for Inactive)
REMARK    1  A    between atoms: C_1  and  C_2
REMARK    2  A    between atoms: C_2  and  C_3
REMARK    3  A    between atoms: C_4  and  C_39
REMARK    4  A    between atoms: C_13  and  S_14
REMARK    5  A    between atoms: S_14  and  C_15
REMARK    6  A    between atoms: C_15  and  C_16
REMARK    7  A    between atoms: C_19  and  C_32
REMARK    8  A    between atoms: C_22  and  C_24
REMARK    9  A    between atoms: C_27  and  O_30
REMARK   10  A    between atoms: O_30  and  C_31
REMARK                            x       y       z     vdW  Elec       q    Type
REMARK                         _______ _______ _______ _____ _____    ______ ____
ROOT
ATOM      1  C   UNL     1       1.752  -3.072  -0.032  0.00  0.00    +0.246 C 
ATOM      2  O   UNL     1       1.419  -4.239  -0.036  0.00  0.00    -0.273 OA
ATOM      3  N   UNL     1       0.814  -2.104  -0.017  0.00  0.00    -0.184 N 
ATOM      4  C   UNL     1      -0.641  -2.322  -0.004  0.00  0.00    +0.137 C 
ATOM      5  C   UNL     1      -1.221  -0.893   0.009  0.00  0.00    +0.087 C 
ATOM      6  C   UNL     1       0.002  -0.004   0.002  0.00  0.00    +0.069 C 
ATOM      7  N   UNL     1       1.064  -0.733  -0.018  0.00  0.00    -0.181 NA
ENDROOT
BRANCH   4   8
ATOM      8  C   UNL     1      -1.054  -3.073   1.235  0.00  0.00    -0.025 A 
ATOM      9  C   UNL     1      -0.379  -2.868   2.424  0.00  0.00    +0.008 A 
ATOM     10  C   UNL     1      -0.761  -3.552   3.563  0.00  0.00    +0.038 A 
ATOM     11  C   UNL     1      -1.812  -4.452   3.510  0.00  0.00    +0.123 A 
ATOM     12  C   UNL     1      -2.483  -4.660   2.317  0.00  0.00    +0.038 A 
ATOM     13  C   UNL     1      -2.104  -3.971   1.181  0.00  0.00    +0.008 A 
ATOM     14  F   UNL     1      -2.181  -5.126   4.620  0.00  0.00    -0.205 F 
ENDBRANCH   4   8
BRANCH   6  15
ATOM     15  C   UNL     1      -0.018   1.470   0.010  0.00  0.00    -0.002 A 
ATOM     16  C   UNL     1      -1.236   2.154   0.020  0.00  0.00    +0.013 A 
ATOM     17  C   UNL     1      -1.250   3.532   0.032  0.00  0.00    +0.046 A 
ATOM     18  C   UNL     1      -0.056   4.241   0.024  0.00  0.00    +0.120 A 
ATOM     19  C   UNL     1       1.158   3.565   0.010  0.00  0.00    +0.046 A 
ATOM     20  C   UNL     1       1.181   2.187   0.003  0.00  0.00    +0.013 A 
BRANCH  18  21
ATOM     21  O   UNL     1      -0.074   5.599   0.032  0.00  0.00    -0.495 OA
ATOM     22  C   UNL     1      -1.356   6.231   0.047  0.00  0.00    +0.277 C 
ENDBRANCH  18  21
ENDBRANCH   6  15
BRANCH   1  23
ATOM     23  C   UNL     1       3.213  -2.705  -0.044  0.00  0.00    +0.175 C 
BRANCH  23  24
ATOM     24  S   UNL     1       4.216  -4.217  -0.062  0.00  0.00    -0.076 S 
BRANCH  24  35
ATOM     25  C   UNL     1       8.426  -6.284  -0.117  0.00  0.00    +0.036 A 
ATOM     26  C   UNL     1       7.185  -5.766  -0.101  0.00  0.00    +0.034 A 
ATOM     27  N   UNL     1       7.005  -4.401  -0.085  0.00  0.00    -0.260 N 
ATOM     28  C   UNL     1       8.090  -3.563  -0.096  0.00  0.00    +0.237 A 
ATOM     29  N   UNL     1       9.372  -4.086  -0.112  0.00  0.00    -0.291 N 
ATOM     30  H   UNL     1      10.140  -3.493  -0.115  0.00  0.00    +0.172 HD
ATOM     31  C   UNL     1       9.552  -5.422  -0.122  0.00  0.00    +0.256 A 
ATOM     32  O   UNL     1      10.677  -5.888  -0.137  0.00  0.00    -0.267 OA
ATOM     33  N   UNL     1       7.647  -2.329  -0.084  0.00  0.00    -0.109 NA
ATOM     34  N   UNL     1       6.247  -2.370  -0.070  0.00  0.00    -0.120 NA
ATOM     35  C   UNL     1       5.876  -3.627  -0.075  0.00  0.00    +0.198 A 
ATOM     36  C   UNL     1       5.988  -6.681  -0.095  0.00  0.00    +0.064 C 
BRANCH  25  38
ATOM     37  C   UNL     1       8.796  -8.259  -1.569  0.00  0.00    +0.009 C 
ATOM     38  C   UNL     1       8.619  -7.778  -0.128  0.00  0.00    +0.039 C 
ENDBRANCH  25  38
ENDBRANCH  24  35
ENDBRANCH  23  24
ENDBRANCH   1  23
TORSDOF 7
