REMARK  Name = ZINC12757361
REMARK  5 active torsions:
REMARK  status: ('A' for Active; 'I' for Inactive)
REMARK    1  A    between atoms: C_1  and  C_2
REMARK    2  A    between atoms: C_5  and  S_8
REMARK    3  A    between atoms: S_8  and  N_11
REMARK    4  A    between atoms: N_11  and  C_12
REMARK    5  A    between atoms: C_16  and  C_18
REMARK                            x       y       z     vdW  Elec       q    Type
REMARK                         _______ _______ _______ _____ _____    ______ ____
ROOT
ATOM      1  C   UNL     1       3.724  -3.248  -0.224  0.00  0.00    +0.049 A 
ATOM      2  C   UNL     1       2.856  -4.329  -0.118  0.00  0.00    +0.026 A 
ATOM      3  C   UNL     1       1.496  -4.119   0.016  0.00  0.00    +0.022 A 
ATOM      4  C   UNL     1       0.991  -2.833   0.045  0.00  0.00    +0.052 A 
ATOM      5  C   UNL     1       1.856  -1.742  -0.060  0.00  0.00    +0.039 A 
ATOM      6  C   UNL     1       3.227  -1.954  -0.201  0.00  0.00    +0.037 A 
ATOM      7 CL   UNL     1      -0.717  -2.575   0.213  0.00  0.00    -0.083 Cl
ENDROOT
BRANCH   5   8
ATOM      8  C   UNL     1       1.318  -0.364  -0.029  0.00  0.00    +0.166 A 
ATOM      9  N   UNL     1       0.292   0.095  -0.715  0.00  0.00    -0.129 NA
ATOM     10  N   UNL     1       0.103   1.337  -0.436  0.00  0.00    -0.134 NA
ATOM     11  C   UNL     1       0.985   1.736   0.436  0.00  0.00    +0.134 A 
ATOM     12  N   UNL     1       1.790   0.677   0.717  0.00  0.00    -0.311 N 
ATOM     13  C   UNL     1       2.936   0.670   1.626  0.00  0.00    +0.125 C 
ATOM     14  C   UNL     1       2.723   1.722   2.718  0.00  0.00    +0.022 C 
ATOM     15  C   UNL     1       3.291   3.064   2.258  0.00  0.00    +0.002 C 
ATOM     16  C   UNL     1       2.571   3.549   1.004  0.00  0.00    +0.008 C 
ATOM     17  C   UNL     1       1.105   3.108   1.048  0.00  0.00    +0.076 C 
ENDBRANCH   5   8
BRANCH   1  18
ATOM     18  N   UNL     1       5.098  -3.466  -0.358  0.00  0.00    -0.216 N 
ATOM     19  H   UNL     1       5.725  -2.946   0.167  0.00  0.00    +0.174 HD
BRANCH  18  20
ATOM     20  S   UNL     1       5.654  -4.614  -1.414  0.00  0.00    +0.072 S 
ATOM     21  O   UNL     1       7.073  -4.578  -1.343  0.00  0.00    -0.150 OA
ATOM     22  O   UNL     1       4.909  -5.797  -1.159  0.00  0.00    -0.150 OA
BRANCH  20  27
ATOM     23  C   UNL     1       4.160  -2.801  -6.971  0.00  0.00    +0.044 C 
ATOM     24  C   UNL     1       4.533  -3.254  -5.583  0.00  0.00    -0.050 A 
ATOM     25  C   UNL     1       5.744  -2.875  -5.035  0.00  0.00    +0.005 A 
ATOM     26  C   UNL     1       6.087  -3.291  -3.762  0.00  0.00    +0.029 A 
ATOM     27  C   UNL     1       5.218  -4.085  -3.037  0.00  0.00    +0.109 A 
ATOM     28  C   UNL     1       4.009  -4.467  -3.587  0.00  0.00    +0.029 A 
ATOM     29  C   UNL     1       3.664  -4.048  -4.859  0.00  0.00    +0.005 A 
ENDBRANCH  20  27
ENDBRANCH  18  20
ENDBRANCH   1  18
TORSDOF 4
