REMARK  Name = ZINC58893418
REMARK  15 active torsions:
REMARK  status: ('A' for Active; 'I' for Inactive)
REMARK    1  A    between atoms: C_1  and  C_2
REMARK    2  A    between atoms: C_2  and  O_3
REMARK    3  A    between atoms: O_3  and  C_4
REMARK    4  A    between atoms: C_7  and  C_10
REMARK    5  A    between atoms: C_10  and  C_12
REMARK    6  A    between atoms: C_10  and  O_36
REMARK    7  A    between atoms: C_12  and  C_13
REMARK    8  A    between atoms: C_13  and  C_14
REMARK    9  A    between atoms: N_16  and  N_17
REMARK   10  A    between atoms: C_18  and  C_19
REMARK   11  A    between atoms: C_21  and  C_35
REMARK   12  A    between atoms: N_22  and  C_25
REMARK   13  A    between atoms: C_23  and  C_24
REMARK   14  A    between atoms: C_28  and  N_31
REMARK   15  A    between atoms: C_32  and  C_34
REMARK                            x       y       z     vdW  Elec       q    Type
REMARK                         _______ _______ _______ _____ _____    ______ ____
ROOT
ATOM      1  N   UNL     1       5.402 -10.135   0.743  0.00  0.00    -0.188 NA
ATOM      2  C   UNL     1       5.668 -11.389   0.539  0.00  0.00    +0.140 C 
ENDROOT
BRANCH   2   3
ATOM      3  C   UNL     1       4.688 -12.422   0.922  0.00  0.00    +0.016 A 
ATOM      4  C   UNL     1       3.256 -12.228   1.168  0.00  0.00    +0.032 A 
ATOM      5  C   UNL     1       2.754 -13.435   1.488  0.00  0.00    +0.022 A 
ATOM      6  N   UNL     1       3.763 -14.355   1.458  0.00  0.00    -0.317 N 
ATOM      7  C   UNL     1       4.932 -13.752   1.113  0.00  0.00    +0.030 A 
ATOM      8  C   UNL     1       6.268 -14.435   0.968  0.00  0.00    +0.064 C 
ATOM      9  C   UNL     1       1.314 -13.724   1.824  0.00  0.00    +0.064 C 
BRANCH   6  10
ATOM     10  C   UNL     1       3.613 -15.721   1.738  0.00  0.00    +0.047 A 
ATOM     11  C   UNL     1       4.237 -16.274   2.849  0.00  0.00    +0.028 A 
ATOM     12  C   UNL     1       4.091 -17.619   3.125  0.00  0.00    +0.025 A 
ATOM     13  C   UNL     1       3.319 -18.418   2.291  0.00  0.00    +0.034 A 
ATOM     14  C   UNL     1       2.695 -17.865   1.181  0.00  0.00    +0.025 A 
ATOM     15  C   UNL     1       2.837 -16.519   0.909  0.00  0.00    +0.028 A 
BRANCH  13  16
ATOM     16  N   UNL     1       3.170 -19.782   2.571  0.00  0.00    -0.286 N 
ATOM     17  C   UNL     1       3.054 -20.668   1.562  0.00  0.00    +0.214 C 
ATOM     18  O   UNL     1       3.200 -20.303   0.414  0.00  0.00    -0.276 OA
ATOM     19  C   UNL     1       2.743 -22.112   1.859  0.00  0.00    +0.109 C 
ATOM     20  H   UNL     1       3.151 -20.090   3.490  0.00  0.00    +0.155 HD
ENDBRANCH  13  16
ENDBRANCH   6  10
ENDBRANCH   2   3
BRANCH   1  23
ATOM     21  C   UNL     1       3.937  -8.474   1.615  0.00  0.00    +0.232 C 
ATOM     22  O   UNL     1       4.587  -7.622   1.047  0.00  0.00    -0.274 OA
ATOM     23  N   UNL     1       4.287  -9.771   1.510  0.00  0.00    -0.207 N 
ATOM     24  H   UNL     1       3.767 -10.453   1.964  0.00  0.00    +0.177 HD
BRANCH  21  25
ATOM     25  C   UNL     1       2.737  -8.082   2.440  0.00  0.00    +0.100 C 
BRANCH  25  26
ATOM     26  C   UNL     1       2.562  -6.563   2.394  0.00  0.00    +0.045 C 
BRANCH  26  27
ATOM     27  C   UNL     1       1.344  -6.165   3.231  0.00  0.00    +0.145 C 
BRANCH  27  31
ATOM     28  C   UNL     1       0.644  -1.969   2.824  0.00  0.00    +0.121 A 
ATOM     29  C   UNL     1      -0.111  -2.874   2.092  0.00  0.00    +0.046 A 
ATOM     30  C   UNL     1       0.118  -4.230   2.225  0.00  0.00    +0.010 A 
ATOM     31  C   UNL     1       1.097  -4.686   3.087  0.00  0.00    -0.019 A 
ATOM     32  C   UNL     1       1.851  -3.786   3.819  0.00  0.00    +0.010 A 
ATOM     33  C   UNL     1       1.631  -2.429   3.685  0.00  0.00    +0.046 A 
BRANCH  28  34
ATOM     34  O   UNL     1       0.422  -0.635   2.695  0.00  0.00    -0.492 OA
BRANCH  34  36
ATOM     35  C   UNL     1      -0.712   1.293   1.779  0.00  0.00    +0.048 C 
ATOM     36  C   UNL     1      -0.609  -0.234   1.791  0.00  0.00    +0.225 C 
ENDBRANCH  34  36
ENDBRANCH  28  34
ENDBRANCH  27  31
BRANCH  27  37
ATOM     37  O   UNL     1       1.587  -6.477   4.604  0.00  0.00    -0.387 OA
ATOM     38  H   UNL     1       2.353  -6.022   4.981  0.00  0.00    +0.210 HD
ENDBRANCH  27  37
ENDBRANCH  26  27
ENDBRANCH  25  26
ENDBRANCH  21  25
ENDBRANCH   1  23
TORSDOF 11
