REMARK  Name = ZINC39495173
REMARK  12 active torsions:
REMARK  status: ('A' for Active; 'I' for Inactive)
REMARK    1  A    between atoms: C_1  and  C_2
REMARK    2  A    between atoms: C_2  and  C_3
REMARK    3  A    between atoms: C_2  and  S_4
REMARK    4  A    between atoms: S_4  and  C_7
REMARK    5  A    between atoms: N_9  and  C_10
REMARK    6  A    between atoms: C_10  and  C_12
REMARK    7  A    between atoms: C_10  and  C_18
REMARK    8  A    between atoms: C_18  and  C_20
REMARK    9  A    between atoms: C_18  and  S_29
REMARK   10  A    between atoms: C_20  and  C_22
REMARK   11  A    between atoms: C_27  and  O_28
REMARK   12  A    between atoms: S_29  and  C_32
REMARK                            x       y       z     vdW  Elec       q    Type
REMARK                         _______ _______ _______ _____ _____    ______ ____
ROOT
ATOM      1  C   UNL     1       0.252   3.030   5.150  0.00  0.00    +0.231 C 
ENDROOT
BRANCH   1   2
ATOM      2  S   UNL     1      -0.122   3.854   6.722  0.00  0.00    +0.009 S 
ATOM      3  O   UNL     1      -1.300   4.638   6.596  0.00  0.00    -0.169 OA
ATOM      4  O   UNL     1       0.029   2.942   7.801  0.00  0.00    -0.169 OA
BRANCH   2   5
ATOM      5  C   UNL     1       1.176   5.026   6.939  0.00  0.00    +0.089 A 
ATOM      6  C   UNL     1       2.333   4.661   7.603  0.00  0.00    +0.027 A 
ATOM      7  C   UNL     1       3.351   5.580   7.773  0.00  0.00    +0.002 A 
ATOM      8  C   UNL     1       3.214   6.864   7.278  0.00  0.00    +0.000 A 
ATOM      9  C   UNL     1       2.058   7.228   6.613  0.00  0.00    +0.002 A 
ATOM     10  C   UNL     1       1.041   6.308   6.439  0.00  0.00    +0.027 A 
ENDBRANCH   2   5
ENDBRANCH   1   2
BRANCH   1  11
ATOM     11  C   UNL     1       1.651   2.472   5.196  0.00  0.00    +0.193 C 
ATOM     12  O   UNL     1       1.913   1.552   5.942  0.00  0.00    -0.290 OA
BRANCH  11  13
ATOM     13  C   UNL     1       2.696   3.041   4.336  0.00  0.00    +0.061 A 
ATOM     14  C   UNL     1       2.400   4.105   3.476  0.00  0.00    +0.015 A 
ATOM     15  C   UNL     1       3.386   4.633   2.674  0.00  0.00    +0.001 A 
ATOM     16  C   UNL     1       4.671   4.117   2.712  0.00  0.00    +0.004 A 
ATOM     17  C   UNL     1       4.979   3.067   3.555  0.00  0.00    +0.046 A 
ATOM     18  C   UNL     1       4.002   2.525   4.376  0.00  0.00    +0.127 A 
BRANCH  18  19
ATOM     19  O   UNL     1       4.304   1.498   5.208  0.00  0.00    -0.506 OA
ATOM     20  H   UNL     1       4.183   0.623   4.814  0.00  0.00    +0.292 HD
ENDBRANCH  18  19
ENDBRANCH  11  13
ENDBRANCH   1  11
BRANCH   1  21
ATOM     21  C   UNL     1      -0.745   1.891   4.922  0.00  0.00    +0.137 C 
BRANCH  21  22
ATOM     22  C   UNL     1      -2.130   2.462   4.754  0.00  0.00    -0.025 A 
ATOM     23  C   UNL     1      -2.516   2.990   3.537  0.00  0.00    +0.005 A 
ATOM     24  C   UNL     1      -3.786   3.514   3.383  0.00  0.00    +0.000 A 
ATOM     25  C   UNL     1      -4.670   3.507   4.446  0.00  0.00    +0.000 A 
ATOM     26  C   UNL     1      -4.284   2.978   5.663  0.00  0.00    +0.000 A 
ATOM     27  C   UNL     1      -3.015   2.451   5.816  0.00  0.00    +0.005 A 
ENDBRANCH  21  22
BRANCH  21  30
ATOM     28  C   UNL     1      -0.744  -0.137   3.571  0.00  0.00    +0.352 C 
ATOM     29  O   UNL     1      -1.389  -0.682   4.442  0.00  0.00    -0.249 OA
ATOM     30  N   UNL     1      -0.372   1.151   3.714  0.00  0.00    -0.288 N 
ATOM     31  H   UNL     1       0.143   1.587   3.018  0.00  0.00    +0.151 HD
BRANCH  28  32
ATOM     32  S   UNL     1      -0.296  -1.027   2.119  0.00  0.00    +0.050 S 
ATOM     33  O   UNL     1      -0.384  -2.396   2.491  0.00  0.00    -0.165 OA
ATOM     34  O   UNL     1       0.945  -0.464   1.717  0.00  0.00    -0.165 OA
BRANCH  32  36
ATOM     35  C   UNL     1      -1.602   0.885   0.663  0.00  0.00    +0.032 C 
ATOM     36  C   UNL     1      -1.585  -0.625   0.908  0.00  0.00    +0.135 C 
ATOM     37  C   UNL     1      -1.295  -1.351  -0.407  0.00  0.00    +0.032 C 
ENDBRANCH  32  36
ENDBRANCH  28  32
ENDBRANCH  21  30
ENDBRANCH   1  21
TORSDOF 10
