REMARK  Name = ZINC50309006
REMARK  3 active torsions:
REMARK  status: ('A' for Active; 'I' for Inactive)
REMARK    1  A    between atoms: C_4  and  N_15
REMARK    2  A    between atoms: C_6  and  N_7
REMARK    3  A    between atoms: C_8  and  C_12
REMARK                            x       y       z     vdW  Elec       q    Type
REMARK                         _______ _______ _______ _____ _____    ______ ____
ROOT
ATOM      1  C   UNL     1      -0.017   1.384   0.010  0.00  0.00    +0.029 A 
ATOM      2  C   UNL     1       1.169   2.093   0.002  0.00  0.00    +0.024 A 
ATOM      3  C   UNL     1       2.378   1.423  -0.013  0.00  0.00    +0.062 A 
ATOM      4  C   UNL     1       2.403   0.033  -0.021  0.00  0.00    +0.045 A 
ATOM      5  C   UNL     1       1.213  -0.681  -0.013  0.00  0.00    +0.052 A 
ATOM      6  C   UNL     1       0.002  -0.004   0.002  0.00  0.00    +0.071 A 
ATOM      7 CL   UNL     1       3.866   2.318  -0.023  0.00  0.00    -0.082 Cl
ENDROOT
BRANCH   6   8
ATOM      8  N   UNL     1      -1.203  -0.722   0.010  0.00  0.00    -0.197 N 
ATOM      9  C   UNL     1      -2.353  -0.388   0.634  0.00  0.00    +0.160 A 
ATOM     10  N   UNL     1      -3.221  -1.332   0.381  0.00  0.00    -0.113 NA
ATOM     11  N   UNL     1      -2.698  -2.241  -0.360  0.00  0.00    -0.023 NA
ATOM     12  N   UNL     1      -1.474  -1.942  -0.635  0.00  0.00    -0.039 NA
BRANCH   9  13
ATOM     13  C   UNL     1      -2.591   0.845   1.468  0.00  0.00    +0.059 C 
ATOM     14  C   UNL     1      -3.905   0.927   2.248  0.00  0.00    +0.012 C 
ATOM     15  C   UNL     1      -3.693   1.804   1.012  0.00  0.00    +0.012 C 
ENDBRANCH   9  13
ENDBRANCH   6   8
BRANCH   4  16
ATOM     16  N   UNL     1       3.625  -0.645  -0.038  0.00  0.00    -0.357 N 
ATOM     17  H   UNL     1       4.457  -0.146  -0.044  0.00  0.00    +0.142 HD
ATOM     18  H   UNL     1       3.642  -1.615  -0.044  0.00  0.00    +0.142 HD
ENDBRANCH   4  16
TORSDOF 3
