REMARK  Name = ZINC35605783
REMARK  13 active torsions:
REMARK  status: ('A' for Active; 'I' for Inactive)
REMARK    1  A    between atoms: C_1  and  C_2
REMARK    2  A    between atoms: C_2  and  C_3
REMARK    3  A    between atoms: C_2  and  C_4
REMARK    4  A    between atoms: C_4  and  C_6
REMARK    5  A    between atoms: C_4  and  S_12
REMARK    6  A    between atoms: S_12  and  C_13
REMARK    7  A    between atoms: C_16  and  C_24
REMARK    8  A    between atoms: N_17  and  C_18
REMARK    9  A    between atoms: C_18  and  C_19
REMARK   10  A    between atoms: C_27  and  C_30
REMARK   11  A    between atoms: C_30  and  C_31
REMARK   12  A    between atoms: C_30  and  C_32
REMARK   13  A    between atoms: C_30  and  C_33
REMARK                            x       y       z     vdW  Elec       q    Type
REMARK                         _______ _______ _______ _____ _____    ______ ____
ROOT
ATOM      1  C   UNL     1      -2.338   1.863  -1.004  0.00  0.00    +0.193 A 
ATOM      2  N   UNL     1      -1.583   2.366  -0.053  0.00  0.00    -0.122 NA
ATOM      3  N   UNL     1      -1.386   3.618  -0.262  0.00  0.00    -0.128 NA
ATOM      4  C   UNL     1      -2.003   3.992  -1.359  0.00  0.00    +0.165 A 
ATOM      5  N   UNL     1      -2.627   2.878  -1.871  0.00  0.00    -0.295 N 
ENDROOT
BRANCH   4   6
ATOM      6  C   UNL     1      -2.018   5.352  -1.938  0.00  0.00    +0.019 A 
ATOM      7  C   UNL     1      -2.967   5.692  -2.904  0.00  0.00    +0.012 A 
ATOM      8  C   UNL     1      -2.977   6.963  -3.439  0.00  0.00    +0.005 A 
ATOM      9  C   UNL     1      -2.048   7.901  -3.022  0.00  0.00    -0.042 A 
ATOM     10  C   UNL     1      -1.105   7.570  -2.065  0.00  0.00    +0.005 A 
ATOM     11  C   UNL     1      -1.088   6.304  -1.517  0.00  0.00    +0.012 A 
BRANCH   9  12
ATOM     12  C   UNL     1      -2.065   9.287  -3.611  0.00  0.00    -0.013 C 
ATOM     13  C   UNL     1      -3.415   9.948  -3.324  0.00  0.00    +0.015 C 
ATOM     14  C   UNL     1      -0.946  10.121  -2.985  0.00  0.00    +0.015 C 
ATOM     15  C   UNL     1      -1.851   9.201  -5.124  0.00  0.00    +0.015 C 
ENDBRANCH   9  12
ENDBRANCH   4   6
BRANCH   1  16
ATOM     16  S   UNL     1      -2.873   0.189  -1.140  0.00  0.00    -0.073 S 
BRANCH  16  17
ATOM     17  C   UNL     1      -2.030  -0.653   0.228  0.00  0.00    +0.143 C 
BRANCH  17  18
ATOM     18  C   UNL     1      -2.607  -0.184   1.539  0.00  0.00    +0.234 C 
ATOM     19  O   UNL     1      -3.738   0.252   1.581  0.00  0.00    -0.274 OA
ATOM     20  N   UNL     1      -1.867  -0.248   2.663  0.00  0.00    -0.239 N 
ATOM     21  C   UNL     1      -2.384   0.171   3.835  0.00  0.00    +0.303 C 
ATOM     22  O   UNL     1      -3.517   0.608   3.878  0.00  0.00    -0.253 OA
ATOM     23  N   UNL     1      -1.643   0.106   4.959  0.00  0.00    -0.313 N 
ATOM     24  H   UNL     1      -0.963  -0.597   2.629  0.00  0.00    +0.159 HD
ATOM     25  H   UNL     1      -0.739  -0.242   4.925  0.00  0.00    +0.146 HD
ATOM     26  H   UNL     1      -2.015   0.408   5.803  0.00  0.00    +0.146 HD
ENDBRANCH  17  18
BRANCH  17  28
ATOM     27  C   UNL     1      -1.565  -2.654  -1.194  0.00  0.00    +0.009 C 
ATOM     28  C   UNL     1      -2.227  -2.164   0.096  0.00  0.00    +0.005 C 
ATOM     29  C   UNL     1      -1.590  -2.869   1.295  0.00  0.00    +0.009 C 
ENDBRANCH  17  28
ENDBRANCH  16  17
ENDBRANCH   1  16
BRANCH   5  30
ATOM     30  C   UNL     1      -3.434   2.798  -3.091  0.00  0.00    +0.200 C 
BRANCH  30  31
ATOM     31  C   UNL     1      -4.894   2.911  -2.735  0.00  0.00    +0.125 A 
ATOM     32  C   UNL     1      -5.635   4.032  -2.798  0.00  0.00    +0.046 A 
ATOM     33  C   UNL     1      -6.939   3.686  -2.377  0.00  0.00    +0.041 A 
ATOM     34  C   UNL     1      -6.918   2.373  -2.082  0.00  0.00    +0.195 A 
ATOM     35  O   UNL     1      -5.678   1.908  -2.306  0.00  0.00    -0.466 OA
ENDBRANCH  30  31
ENDBRANCH   5  30
TORSDOF 8
