REMARK  Name = ZINC15303564
REMARK  3 active torsions:
REMARK  status: ('A' for Active; 'I' for Inactive)
REMARK    1  A    between atoms: C_4  and  N_7
REMARK    2  A    between atoms: C_12  and  C_29
REMARK    3  A    between atoms: C_29  and  C_30
REMARK                            x       y       z     vdW  Elec       q    Type
REMARK                         _______ _______ _______ _____ _____    ______ ____
ROOT
ATOM      1  N   UNL     1       3.624  -0.652  -0.037  0.00  0.00    -0.210 N 
ATOM      2  C   UNL     1       4.801  -0.025  -0.139  0.00  0.00    +0.232 C 
ATOM      3  O   UNL     1       4.950   1.175  -0.230  0.00  0.00    -0.274 OA
ATOM      4  C   UNL     1       5.917  -1.044  -0.121  0.00  0.00    +0.108 C 
ATOM      5  C   UNL     1       6.602  -1.075  -1.504  0.00  0.00    +0.072 C 
ATOM      6  N   UNL     1       5.803  -2.040  -2.304  0.00  0.00    -0.295 NA
ATOM      7  C   UNL     1       5.461  -3.107  -1.346  0.00  0.00    +0.136 C 
ATOM      8  C   UNL     1       5.164  -2.399  -0.001  0.00  0.00    +0.123 C 
ATOM      9  C   UNL     1       3.710  -1.984   0.052  0.00  0.00    +0.233 C 
ATOM     10  O   UNL     1       2.770  -2.742   0.158  0.00  0.00    -0.274 OA
ATOM     11  C   UNL     1       4.288  -3.918  -1.819  0.00  0.00    +0.003 A 
ATOM     12  C   UNL     1       2.983  -3.607  -2.129  0.00  0.00    +0.008 A 
ATOM     13  C   UNL     1       2.116  -4.600  -2.550  0.00  0.00    +0.000 A 
ATOM     14  C   UNL     1       2.563  -5.904  -2.659  0.00  0.00    +0.002 A 
ATOM     15  C   UNL     1       3.869  -6.221  -2.347  0.00  0.00    +0.023 A 
ATOM     16  C   UNL     1       4.749  -5.228  -1.922  0.00  0.00    +0.039 A 
ATOM     17  N   UNL     1       6.094  -5.297  -1.554  0.00  0.00    -0.283 N 
ATOM     18  C   UNL     1       6.587  -4.095  -1.201  0.00  0.00    +0.243 C 
ATOM     19  O   UNL     1       7.719  -3.854  -0.838  0.00  0.00    -0.273 OA
ATOM     20  H   UNL     1       4.971  -1.604  -2.672  0.00  0.00    +0.124 HD
ATOM     21  H   UNL     1       6.613  -6.117  -1.552  0.00  0.00    +0.155 HD
ENDROOT
BRANCH   1  25
ATOM     22  C   UNL     1      -0.016   1.380   0.011  0.00  0.00    +0.000 A 
ATOM     23  C   UNL     1       0.420   0.718   1.145  0.00  0.00    +0.002 A 
ATOM     24  C   UNL     1       1.626   0.044   1.131  0.00  0.00    +0.024 A 
ATOM     25  C   UNL     1       2.399   0.031  -0.021  0.00  0.00    +0.044 A 
ATOM     26  C   UNL     1       1.959   0.696  -1.157  0.00  0.00    +0.024 A 
ATOM     27  C   UNL     1       0.752   1.368  -1.138  0.00  0.00    +0.002 A 
ENDBRANCH   1  25
BRANCH   5  28
ATOM     28  C   UNL     1       6.565   0.313  -2.147  0.00  0.00    +0.056 C 
BRANCH  28  29
ATOM     29  C   UNL     1       7.344   0.290  -3.436  0.00  0.00    -0.021 A 
ATOM     30  C   UNL     1       8.632   0.634  -3.598  0.00  0.00    +0.087 A 
ATOM     31  N   UNL     1       8.994   0.485  -4.909  0.00  0.00    -0.360 N 
ATOM     32  H   UNL     1       9.875   0.673  -5.268  0.00  0.00    +0.165 HD
ATOM     33  C   UNL     1       7.921   0.029  -5.642  0.00  0.00    +0.047 A 
ATOM     34  C   UNL     1       6.842  -0.119  -4.750  0.00  0.00    +0.003 A 
ATOM     35  C   UNL     1       5.610  -0.578  -5.219  0.00  0.00    +0.010 A 
ATOM     36  C   UNL     1       5.458  -0.884  -6.542  0.00  0.00    +0.001 A 
ATOM     37  C   UNL     1       6.520  -0.743  -7.424  0.00  0.00    +0.002 A 
ATOM     38  C   UNL     1       7.743  -0.283  -6.985  0.00  0.00    +0.026 A 
ENDBRANCH  28  29
ENDBRANCH   5  28
TORSDOF 3
