REMARK  Name = ZINC39880049
REMARK  11 active torsions:
REMARK  status: ('A' for Active; 'I' for Inactive)
REMARK    1  A    between atoms: C_1  and  C_2
REMARK    2  A    between atoms: C_2  and  C_3
REMARK    3  A    between atoms: C_3  and  O_4
REMARK    4  A    between atoms: O_4  and  C_5
REMARK    5  A    between atoms: C_8  and  C_14
REMARK    6  A    between atoms: C_10  and  O_11
REMARK    7  A    between atoms: O_11  and  C_12
REMARK    8  A    between atoms: C_12  and  C_13
REMARK    9  A    between atoms: C_21  and  C_38
REMARK   10  A    between atoms: N_29  and  C_30
REMARK   11  A    between atoms: C_33  and  C_37
REMARK                            x       y       z     vdW  Elec       q    Type
REMARK                         _______ _______ _______ _____ _____    ______ ____
ROOT
ATOM      1  C   UNL     1       3.243  -4.423  -5.653  0.00  0.00    +0.150 C 
ATOM      2  C   UNL     1       4.727  -4.372  -5.496  0.00  0.00    +0.072 A 
ATOM      3  C   UNL     1       5.608  -4.917  -4.457  0.00  0.00    +0.199 A 
ATOM      4  O   UNL     1       5.225  -5.686  -3.594  0.00  0.00    -0.287 OA
ATOM      5  C   UNL     1       7.011  -4.441  -4.558  0.00  0.00    +0.065 A 
ATOM      6  C   UNL     1       7.922  -4.706  -3.537  0.00  0.00    +0.018 A 
ATOM      7  C   UNL     1       9.209  -4.257  -3.642  0.00  0.00    -0.050 A 
ATOM      8  C   UNL     1       9.609  -3.540  -4.761  0.00  0.00    +0.007 A 
ATOM      9  C   UNL     1       8.723  -3.270  -5.780  0.00  0.00    +0.047 A 
ATOM     10  C   UNL     1       7.405  -3.719  -5.697  0.00  0.00    +0.139 A 
ATOM     11  O   UNL     1       6.554  -3.452  -6.714  0.00  0.00    -0.450 OA
ATOM     12  C   UNL     1       5.235  -3.673  -6.554  0.00  0.00    +0.199 A 
ATOM     13  C   UNL     1       4.113  -3.252  -7.410  0.00  0.00    +0.287 C 
ATOM     14  O   UNL     1       4.223  -2.607  -8.434  0.00  0.00    -0.266 OA
ATOM     15  N   UNL     1       2.944  -3.687  -6.893  0.00  0.00    -0.253 N 
ATOM     16  C   UNL     1      10.197  -4.542  -2.541  0.00  0.00    +0.044 C 
ENDROOT
BRANCH  15  17
ATOM     17  C   UNL     1       1.674  -3.476  -7.436  0.00  0.00    +0.039 A 
ATOM     18  C   UNL     1       0.549  -3.978  -6.793  0.00  0.00    +0.024 A 
ATOM     19  C   UNL     1      -0.705  -3.768  -7.332  0.00  0.00    +0.006 A 
ATOM     20  C   UNL     1      -0.842  -3.059  -8.511  0.00  0.00    -0.032 A 
ATOM     21  C   UNL     1       0.275  -2.558  -9.155  0.00  0.00    +0.046 A 
ATOM     22  C   UNL     1       1.533  -2.760  -8.618  0.00  0.00    +0.043 A 
ATOM     23 CL   UNL     1       0.098  -1.669 -10.636  0.00  0.00    -0.083 Cl
ATOM     24  C   UNL     1      -2.212  -2.832  -9.097  0.00  0.00    +0.045 C 
ENDBRANCH  15  17
BRANCH   1  28
ATOM     25  C   UNL     1       1.342  -2.530  -2.323  0.00  0.00    +0.162 A 
ATOM     26  C   UNL     1       1.908  -1.763  -3.329  0.00  0.00    +0.050 A 
ATOM     27  C   UNL     1       2.522  -2.378  -4.404  0.00  0.00    +0.009 A 
ATOM     28  C   UNL     1       2.573  -3.758  -4.479  0.00  0.00    -0.018 A 
ATOM     29  C   UNL     1       2.009  -4.529  -3.479  0.00  0.00    +0.055 A 
ATOM     30  C   UNL     1       1.397  -3.918  -2.396  0.00  0.00    +0.162 A 
BRANCH  25  31
ATOM     31  O   UNL     1       0.738  -1.926  -1.265  0.00  0.00    -0.488 OA
BRANCH  31  32
ATOM     32  C   UNL     1       0.718  -0.497  -1.257  0.00  0.00    +0.229 C 
BRANCH  32  34
ATOM     33  C   UNL     1      -0.019   1.526   0.010  0.00  0.00    +0.007 C 
ATOM     34  C   UNL     1       0.002  -0.004   0.002  0.00  0.00    +0.038 C 
ENDBRANCH  32  34
ENDBRANCH  31  32
ENDBRANCH  25  31
BRANCH  30  35
ATOM     35  O   UNL     1       0.847  -4.675  -1.408  0.00  0.00    -0.489 OA
BRANCH  35  36
ATOM     36  C   UNL     1       0.942  -6.094  -1.549  0.00  0.00    +0.226 C 
ATOM     37  C   UNL     1       0.273  -6.771  -0.352  0.00  0.00    +0.048 C 
ENDBRANCH  35  36
ENDBRANCH  30  35
ENDBRANCH   1  28
TORSDOF 7
