REMARK  Name = ZINC04422981
REMARK  9 active torsions:
REMARK  status: ('A' for Active; 'I' for Inactive)
REMARK    1  A    between atoms: C_4  and  C_7
REMARK    2  A    between atoms: C_7  and  S_8
REMARK    3  A    between atoms: S_8  and  N_11
REMARK    4  A    between atoms: N_11  and  C_12
REMARK    5  A    between atoms: C_21  and  C_25
REMARK    6  A    between atoms: N_27  and  C_28
REMARK    7  A    between atoms: C_28  and  C_29
REMARK    8  A    between atoms: C_29  and  C_30
REMARK    9  A    between atoms: C_30  and  N_31
REMARK                            x       y       z     vdW  Elec       q    Type
REMARK                         _______ _______ _______ _____ _____    ______ ____
ROOT
ATOM      1  C   UNL     1      -1.426  -0.551   3.336  0.00  0.00    +0.162 C 
ATOM      2  C   UNL     1      -0.058   0.125   3.283  0.00  0.00    +0.032 C 
ATOM      3  C   UNL     1      -0.192   1.592   3.707  0.00  0.00    +0.035 C 
ATOM      4  C   UNL     1      -1.001   2.323   2.634  0.00  0.00    +0.135 C 
ATOM      5  N   UNL     1      -2.299   1.618   2.475  0.00  0.00    -0.276 N 
ATOM      6  C   UNL     1      -2.471   0.298   2.670  0.00  0.00    +0.236 C 
ATOM      7  O   UNL     1      -3.501  -0.222   2.297  0.00  0.00    -0.274 OA
ATOM      8  C   UNL     1      -3.374   2.566   2.123  0.00  0.00    +0.173 C 
ATOM      9  C   UNL     1      -3.350   3.713   3.184  0.00  0.00    +0.103 C 
ATOM     10  S   UNL     1      -1.522   3.965   3.283  0.00  0.00    -0.136 S 
ENDROOT
BRANCH   8  11
ATOM     11  C   UNL     1      -3.127   3.134   0.749  0.00  0.00    +0.234 C 
ATOM     12  O   UNL     1      -2.152   2.788   0.116  0.00  0.00    -0.274 OA
ATOM     13  N   UNL     1      -3.991   4.026   0.223  0.00  0.00    -0.314 N 
ATOM     14  H   UNL     1      -4.771   4.302   0.729  0.00  0.00    +0.149 HD
BRANCH  13  15
ATOM     15  C   UNL     1      -3.751   4.578  -1.112  0.00  0.00    +0.106 C 
BRANCH  15  16
ATOM     16  C   UNL     1      -4.870   5.558  -1.468  0.00  0.00    +0.040 C 
BRANCH  16  17
ATOM     17  C   UNL     1      -4.620   6.135  -2.863  0.00  0.00    +0.117 C 
BRANCH  17  18
ATOM     18  N   UNL     1      -5.692   7.073  -3.203  0.00  0.00    -0.358 N 
ATOM     19  C   UNL     1      -5.680   7.720  -4.416  0.00  0.00    +0.166 C 
ATOM     20  H   UNL     1      -6.713   9.060  -5.550  0.00  0.00    +0.159 HD
ATOM     21  N   UNL     1      -4.662   7.486  -5.310  0.00  0.00    -0.372 N 
ATOM     22  H   UNL     1      -6.410   7.239  -2.572  0.00  0.00    +0.162 HD
ATOM     23  H   UNL     1      -3.952   6.864  -5.085  0.00  0.00    +0.159 HD
ATOM     24  H   UNL     1      -4.654   7.942  -6.166  0.00  0.00    +0.159 HD
ATOM     25  N   UNL     1      -6.678   8.556  -4.663  0.00  0.00    -0.372 N 
ATOM     26  H   UNL     1      -7.415   8.697  -3.963  0.00  0.00    +0.159 HD
ENDBRANCH  17  18
ENDBRANCH  16  17
ENDBRANCH  15  16
ENDBRANCH  13  15
ENDBRANCH   8  11
BRANCH   1  27
ATOM     27  N   UNL     1      -1.350  -1.844   2.652  0.00  0.00    -0.182 NA
ATOM     28  H   UNL     1      -0.797  -1.944   1.862  0.00  0.00    +0.148 HD
BRANCH  27  29
ATOM     29  S   UNL     1      -2.208  -3.138   3.230  0.00  0.00    +0.034 S 
ATOM     30  O   UNL     1      -1.884  -4.208   2.354  0.00  0.00    -0.158 OA
ATOM     31  O   UNL     1      -1.878  -3.205   4.610  0.00  0.00    -0.158 OA
BRANCH  29  32
ATOM     32  C   UNL     1      -3.949  -2.670   3.027  0.00  0.00    +0.220 C 
BRANCH  32  36
ATOM     33  C   UNL     1      -6.448  -5.833   4.441  0.00  0.00    +0.000 A 
ATOM     34  C   UNL     1      -6.041  -4.835   5.306  0.00  0.00    +0.000 A 
ATOM     35  C   UNL     1      -5.232  -3.811   4.848  0.00  0.00    +0.005 A 
ATOM     36  C   UNL     1      -4.831  -3.786   3.526  0.00  0.00    -0.025 A 
ATOM     37  C   UNL     1      -5.242  -4.781   2.659  0.00  0.00    +0.005 A 
ATOM     38  C   UNL     1      -6.047  -5.808   3.118  0.00  0.00    +0.000 A 
ENDBRANCH  32  36
ENDBRANCH  29  32
ENDBRANCH  27  29
ENDBRANCH   1  27
TORSDOF 9
