REMARK  Name = ZINC09461825
REMARK  6 active torsions:
REMARK  status: ('A' for Active; 'I' for Inactive)
REMARK    1  A    between atoms: C_1  and  C_2
REMARK    2  A    between atoms: C_2  and  C_27
REMARK    3  A    between atoms: N_3  and  N_4
REMARK    4  A    between atoms: C_5  and  C_7
REMARK    5  A    between atoms: C_8  and  C_18
REMARK    6  A    between atoms: C_22  and  N_24
REMARK                            x       y       z     vdW  Elec       q    Type
REMARK                         _______ _______ _______ _____ _____    ______ ____
ROOT
ATOM      1  C   UNL     1       0.708   6.164   0.815  0.00  0.00    +0.177 A 
ATOM      2  C   UNL     1      -0.070   5.322   0.029  0.00  0.00    +0.109 A 
ATOM      3  N   UNL     1      -0.861   6.135  -0.733  0.00  0.00    -0.187 N 
ATOM      4  N   UNL     1      -0.532   7.453  -0.387  0.00  0.00    -0.058 NA
ATOM      5  N   UNL     1       0.386   7.433   0.513  0.00  0.00    -0.124 NA
ATOM      6  C   UNL     1      -1.813   5.731  -1.674  0.00  0.00    +0.241 A 
ATOM      7  C   UNL     1      -2.653   6.622  -2.481  0.00  0.00    +0.206 A 
ATOM      8  N   UNL     1      -3.416   5.887  -3.243  0.00  0.00    -0.032 NA
ATOM      9  O   UNL     1      -3.117   4.528  -2.974  0.00  0.00    -0.239 OA
ATOM     10  N   UNL     1      -2.102   4.500  -1.987  0.00  0.00    -0.027 NA
ATOM     11  N   UNL     1      -2.639   8.011  -2.442  0.00  0.00    -0.337 N 
ATOM     12  H   UNL     1      -2.034   8.473  -1.840  0.00  0.00    +0.144 HD
ATOM     13  H   UNL     1      -3.233   8.519  -3.016  0.00  0.00    +0.144 HD
ENDROOT
BRANCH   2  14
ATOM     14  C   UNL     1      -0.050   3.845   0.022  0.00  0.00    +0.005 A 
ATOM     15  C   UNL     1      -1.248   3.127   0.030  0.00  0.00    +0.010 A 
ATOM     16  C   UNL     1      -1.222   1.748   0.017  0.00  0.00    +0.003 A 
ATOM     17  C   UNL     1      -0.013   1.076   0.008  0.00  0.00    +0.033 A 
ATOM     18  C   UNL     1       1.178   1.781   0.000  0.00  0.00    +0.127 A 
ATOM     19  C   UNL     1       1.167   3.160   0.007  0.00  0.00    +0.042 A 
BRANCH  18  20
ATOM     20  N   UNL     1       2.467   1.053  -0.015  0.00  0.00    +0.056 N 
ATOM     21  O   UNL     1       2.478  -0.165  -0.022  0.00  0.00    -0.126 OA
ATOM     22  O   UNL     1       3.516   1.672  -0.022  0.00  0.00    -0.126 OA
ENDBRANCH  18  20
ENDBRANCH   2  14
BRANCH   1  24
ATOM     23  N   UNL     1       2.401   6.662   2.503  0.00  0.00    -0.201 N 
ATOM     24  C   UNL     1       1.712   5.739   1.804  0.00  0.00    +0.286 C 
ATOM     25  O   UNL     1       1.920   4.555   1.989  0.00  0.00    -0.267 OA
ATOM     26  H   UNL     1       2.235   7.606   2.356  0.00  0.00    +0.178 HD
BRANCH  23  29
ATOM     27  C   UNL     1       3.763   8.614   3.889  0.00  0.00    +0.068 C 
ATOM     28  C   UNL     1       4.021   7.147   4.119  0.00  0.00    +0.065 C 
ATOM     29  N   UNL     1       3.357   6.258   3.445  0.00  0.00    -0.184 NA
BRANCH  28  30
ATOM     30  C   UNL     1       5.027   6.721   5.109  0.00  0.00    +0.016 A 
ATOM     31  C   UNL     1       5.747   7.676   5.832  0.00  0.00    +0.012 A 
ATOM     32  C   UNL     1       6.683   7.271   6.760  0.00  0.00    +0.021 A 
ATOM     33  C   UNL     1       6.918   5.922   6.970  0.00  0.00    +0.042 A 
ATOM     34  C   UNL     1       6.212   4.971   6.253  0.00  0.00    +0.040 A 
ATOM     35  C   UNL     1       5.268   5.362   5.324  0.00  0.00    +0.051 A 
ATOM     36 CL   UNL     1       4.385   4.167   4.426  0.00  0.00    -0.083 Cl
ATOM     37 CL   UNL     1       8.103   5.422   8.136  0.00  0.00    -0.083 Cl
ENDBRANCH  28  30
ENDBRANCH  23  29
ENDBRANCH   1  24
TORSDOF 5
