REMARK  Name = ZINC61413658
REMARK  3 active torsions:
REMARK  status: ('A' for Active; 'I' for Inactive)
REMARK    1  A    between atoms: C_6  and  C_7
REMARK    2  A    between atoms: C_7  and  C_9
REMARK    3  A    between atoms: C_7  and  N_17
REMARK                            x       y       z     vdW  Elec       q    Type
REMARK                         _______ _______ _______ _____ _____    ______ ____
ROOT
ATOM      1  C   UNL     1      -1.299  -0.764   0.011  0.00  0.00    +0.113 C 
ENDROOT
BRANCH   1   7
ATOM      2  C   UNL     1      -0.017   1.389   0.010  0.00  0.00    +0.008 A 
ATOM      3  C   UNL     1       1.141   2.106   0.003  0.00  0.00    +0.030 A 
ATOM      4  C   UNL     1       2.375   1.434  -0.013  0.00  0.00    +0.089 A 
ATOM      5  C   UNL     1       2.394   0.016  -0.021  0.00  0.00    +0.089 A 
ATOM      6  C   UNL     1       1.178  -0.689  -0.013  0.00  0.00    +0.035 A 
ATOM      7  C   UNL     1       0.002  -0.004   0.002  0.00  0.00    -0.024 A 
ATOM      8  N   UNL     1       3.567  -0.628  -0.035  0.00  0.00    -0.252 NA
ATOM      9  C   UNL     1       4.686   0.058  -0.042  0.00  0.00    +0.131 A 
ATOM     10  C   UNL     1       4.667   1.455  -0.034  0.00  0.00    +0.131 A 
ATOM     11  N   UNL     1       3.529   2.110  -0.020  0.00  0.00    -0.252 NA
ENDBRANCH   1   7
BRANCH   1  12
ATOM     12  C   UNL     1      -1.871  -0.797  -1.383  0.00  0.00    -0.011 A 
ATOM     13  C   UNL     1      -2.801   0.149  -1.771  0.00  0.00    +0.022 A 
ATOM     14  C   UNL     1      -3.326   0.119  -3.050  0.00  0.00    +0.018 A 
ATOM     15  C   UNL     1      -2.921  -0.858  -3.941  0.00  0.00    +0.016 A 
ATOM     16  C   UNL     1      -1.991  -1.804  -3.554  0.00  0.00    +0.017 A 
ATOM     17  C   UNL     1      -1.462  -1.771  -2.276  0.00  0.00    +0.023 A 
ATOM     18 BR   UNL     1      -0.183  -3.060  -1.748  0.00  0.00    -0.050 Br
ATOM     19 BR   UNL     1      -4.599   1.413  -3.580  0.00  0.00    -0.050 Br
ENDBRANCH   1  12
BRANCH   1  20
ATOM     20  N   UNL     1      -2.248  -0.100   0.914  0.00  0.00    -0.320 NA
ATOM     21  H   UNL     1      -1.917  -0.122   1.867  0.00  0.00    +0.119 HD
ATOM     22  H   UNL     1      -2.429   0.847   0.616  0.00  0.00    +0.119 HD
ENDBRANCH   1  20
TORSDOF 3
