REMARK  Name = ZINC36089338
REMARK  12 active torsions:
REMARK  status: ('A' for Active; 'I' for Inactive)
REMARK    1  A    between atoms: C_1  and  C_2
REMARK    2  A    between atoms: C_2  and  C_3
REMARK    3  A    between atoms: C_2  and  C_4
REMARK    4  A    between atoms: C_2  and  C_5
REMARK    5  A    between atoms: C_7  and  C_32
REMARK    6  A    between atoms: C_9  and  N_11
REMARK    7  A    between atoms: N_14  and  C_17
REMARK    8  A    between atoms: C_17  and  C_18
REMARK    9  A    between atoms: C_18  and  C_19
REMARK   10  A    between atoms: C_19  and  C_20
REMARK   11  A    between atoms: C_20  and  N_21
REMARK   12  A    between atoms: C_23  and  C_28
REMARK                            x       y       z     vdW  Elec       q    Type
REMARK                         _______ _______ _______ _____ _____    ______ ____
ROOT
ATOM      1  N   UNL     1       3.938  -0.195  -2.724  0.00  0.00    -0.319 N 
ATOM      2  C   UNL     1       4.685   0.553  -1.701  0.00  0.00    +0.088 C 
ATOM      3  C   UNL     1       5.344   1.764  -2.369  0.00  0.00    -0.060 C 
ATOM      4  N   UNL     1       6.158   1.314  -3.504  0.00  0.00    +0.382 N 
ATOM      5  C   UNL     1       5.296   0.717  -4.532  0.00  0.00    -0.060 C 
ATOM      6  C   UNL     1       4.636  -0.552  -3.969  0.00  0.00    +0.088 C 
ATOM      7  H   UNL     1       6.825   0.627  -3.186  0.00  0.00    -0.082 HD
ENDROOT
BRANCH   1  12
ATOM      8  C   UNL     1       0.707  -0.490  -1.238  0.00  0.00    +0.137 A 
ATOM      9  N   UNL     1       0.050  -1.246  -2.094  0.00  0.00    -0.227 NA
ATOM     10  C   UNL     1       0.633  -1.694  -3.197  0.00  0.00    +0.149 A 
ATOM     11  C   UNL     1       1.950  -1.360  -3.447  0.00  0.00    +0.076 A 
ATOM     12  C   UNL     1       2.617  -0.557  -2.519  0.00  0.00    +0.125 A 
ATOM     13  N   UNL     1       1.962  -0.143  -1.438  0.00  0.00    -0.217 NA
BRANCH   8  15
ATOM     14  C   UNL     1      -0.019   1.526   0.010  0.00  0.00    +0.019 C 
ATOM     15  C   UNL     1       0.002  -0.004   0.002  0.00  0.00    +0.022 C 
ATOM     16  C   UNL     1       0.742  -0.511   1.242  0.00  0.00    +0.019 C 
ATOM     17  C   UNL     1      -1.433  -0.534   0.013  0.00  0.00    +0.019 C 
ENDBRANCH   8  15
BRANCH  10  18
ATOM     18  C   UNL     1      -0.131  -2.559  -4.166  0.00  0.00    +0.434 C 
ATOM     19  F   UNL     1      -1.464  -2.659  -3.751  0.00  0.00    -0.164 F 
ATOM     20  F   UNL     1      -0.082  -1.985  -5.441  0.00  0.00    -0.164 F 
ATOM     21  F   UNL     1       0.442  -3.834  -4.206  0.00  0.00    -0.164 F 
ENDBRANCH  10  18
ENDBRANCH   1  12
BRANCH   4  22
ATOM     22  C   UNL     1       6.876   2.461  -4.076  0.00  0.00    -0.079 C 
BRANCH  22  23
ATOM     23  C   UNL     1       7.819   1.974  -5.178  0.00  0.00    -0.017 C 
BRANCH  23  24
ATOM     24  C   UNL     1       8.567   3.169  -5.773  0.00  0.00    +0.020 C 
BRANCH  24  25
ATOM     25  C   UNL     1       9.510   2.683  -6.875  0.00  0.00    +0.125 C 
BRANCH  25  26
ATOM     26  N   UNL     1      10.226   3.827  -7.446  0.00  0.00    -0.315 N 
ATOM     27  C   UNL     1       9.692   4.495  -8.500  0.00  0.00    +0.101 A 
ATOM     28  C   UNL     1      10.335   5.554  -9.044  0.00  0.00    +0.071 A 
ATOM     29  C   UNL     1      11.566   5.972  -8.517  0.00  0.00    +0.019 A 
ATOM     30  C   UNL     1      12.100   5.300  -7.458  0.00  0.00    +0.071 A 
ATOM     31  C   UNL     1      11.403   4.207  -6.914  0.00  0.00    +0.251 A 
ATOM     32  O   UNL     1      11.868   3.600  -5.963  0.00  0.00    -0.268 OA
BRANCH  28  33
ATOM     33  C   UNL     1       9.729   6.284 -10.215  0.00  0.00    +0.419 C 
ATOM     34  F   UNL     1       9.004   7.387  -9.753  0.00  0.00    -0.166 F 
ATOM     35  F   UNL     1      10.747   6.721 -11.070  0.00  0.00    -0.166 F 
ATOM     36  F   UNL     1       8.875   5.422 -10.910  0.00  0.00    -0.166 F 
ENDBRANCH  28  33
ENDBRANCH  25  26
ENDBRANCH  24  25
ENDBRANCH  23  24
ENDBRANCH  22  23
ENDBRANCH   4  22
TORSDOF 9
