REMARK  Name = ZINC13751001
REMARK  11 active torsions:
REMARK  status: ('A' for Active; 'I' for Inactive)
REMARK    1  A    between atoms: C_1  and  C_2
REMARK    2  A    between atoms: C_2  and  C_3
REMARK    3  A    between atoms: C_3  and  C_4
REMARK    4  A    between atoms: C_4  and  C_5
REMARK    5  A    between atoms: C_5  and  O_6
REMARK    6  A    between atoms: O_6  and  C_7
REMARK    7  A    between atoms: C_10  and  N_13
REMARK    8  A    between atoms: C_18  and  C_32
REMARK    9  A    between atoms: N_20  and  C_26
REMARK   10  A    between atoms: C_35  and  N_39
REMARK   11  A    between atoms: C_37  and  O_38
REMARK                            x       y       z     vdW  Elec       q    Type
REMARK                         _______ _______ _______ _____ _____    ______ ____
ROOT
ATOM      1  N   UNL     1       3.933  -6.404  -6.837  0.00  0.00    -0.208 N 
ATOM      2  C   UNL     1       4.094  -7.730  -6.918  0.00  0.00    +0.235 C 
ATOM      3  O   UNL     1       3.741  -8.532  -6.081  0.00  0.00    -0.274 OA
ATOM      4  C   UNL     1       4.784  -8.072  -8.219  0.00  0.00    +0.146 C 
ATOM      5  C   UNL     1       6.203  -8.607  -7.920  0.00  0.00    +0.160 C 
ATOM      6  N   UNL     1       7.049  -7.831  -8.858  0.00  0.00    -0.244 N 
ATOM      7  O   UNL     1       6.480  -6.521  -8.855  0.00  0.00    -0.257 OA
ATOM      8  C   UNL     1       5.031  -6.684  -8.871  0.00  0.00    +0.249 C 
ATOM      9  C   UNL     1       4.409  -5.721  -7.884  0.00  0.00    +0.259 C 
ATOM     10  O   UNL     1       4.354  -4.518  -8.019  0.00  0.00    -0.272 OA
ENDROOT
BRANCH   1  14
ATOM     11  C   UNL     1       2.079  -4.554  -3.589  0.00  0.00    +0.121 A 
ATOM     12  C   UNL     1       1.342  -5.368  -4.436  0.00  0.00    +0.047 A 
ATOM     13  C   UNL     1       1.955  -5.981  -5.511  0.00  0.00    +0.027 A 
ATOM     14  C   UNL     1       3.309  -5.781  -5.744  0.00  0.00    +0.044 A 
ATOM     15  C   UNL     1       4.046  -4.966  -4.896  0.00  0.00    +0.027 A 
ATOM     16  C   UNL     1       3.431  -4.350  -3.825  0.00  0.00    +0.047 A 
BRANCH  11  17
ATOM     17  O   UNL     1       1.476  -3.950  -2.531  0.00  0.00    -0.492 OA
BRANCH  17  18
ATOM     18  C   UNL     1       0.081  -4.205  -2.348  0.00  0.00    +0.229 C 
BRANCH  18  19
ATOM     19  C   UNL     1      -0.418  -3.446  -1.117  0.00  0.00    +0.041 C 
BRANCH  19  20
ATOM     20  C   UNL     1      -1.911  -3.719  -0.921  0.00  0.00    +0.003 C 
BRANCH  20  22
ATOM     21  C   UNL     1      -3.904  -3.232   0.506  0.00  0.00    +0.004 C 
ATOM     22  C   UNL     1      -2.411  -2.960   0.310  0.00  0.00    -0.003 C 
ENDBRANCH  20  22
ENDBRANCH  19  20
ENDBRANCH  18  19
ENDBRANCH  17  18
ENDBRANCH  11  17
ENDBRANCH   1  14
BRANCH   6  23
ATOM     23  C   UNL     1       8.156  -8.280  -9.582  0.00  0.00    +0.065 A 
ATOM     24  C   UNL     1       8.574  -9.600  -9.468  0.00  0.00    +0.028 A 
ATOM     25  C   UNL     1       9.668 -10.041 -10.186  0.00  0.00    +0.002 A 
ATOM     26  C   UNL     1      10.348  -9.170 -11.017  0.00  0.00    +0.000 A 
ATOM     27  C   UNL     1       9.935  -7.855 -11.133  0.00  0.00    +0.002 A 
ATOM     28  C   UNL     1       8.838  -7.409 -10.423  0.00  0.00    +0.028 A 
ENDBRANCH   6  23
BRANCH   5  29
ATOM     29  C   UNL     1       6.589  -8.328  -6.490  0.00  0.00    +0.020 A 
ATOM     30  C   UNL     1       7.318  -7.197  -6.179  0.00  0.00    +0.011 A 
ATOM     31  C   UNL     1       7.673  -6.940  -4.868  0.00  0.00    +0.033 A 
ATOM     32  C   UNL     1       7.299  -7.815  -3.864  0.00  0.00    +0.130 A 
ATOM     33  C   UNL     1       6.570  -8.947  -4.170  0.00  0.00    +0.078 A 
ATOM     34  C   UNL     1       6.208  -9.204  -5.484  0.00  0.00    +0.124 A 
BRANCH  32  35
ATOM     35  N   UNL     1       7.681  -7.537  -2.461  0.00  0.00    +0.057 N 
ATOM     36  O   UNL     1       8.319  -6.546  -2.193  0.00  0.00    -0.126 OA
ATOM     37  O   UNL     1       7.354  -8.302  -1.583  0.00  0.00    -0.126 OA
ENDBRANCH  32  35
BRANCH  34  38
ATOM     38  O   UNL     1       5.487 -10.316  -5.787  0.00  0.00    -0.506 OA
ATOM     39  H   UNL     1       6.026 -11.092  -5.988  0.00  0.00    +0.292 HD
ENDBRANCH  34  38
ENDBRANCH   5  29
TORSDOF 10
