REMARK  Name = ZINC13149630
REMARK  14 active torsions:
REMARK  status: ('A' for Active; 'I' for Inactive)
REMARK    1  A    between atoms: C_1  and  C_2
REMARK    2  A    between atoms: C_5  and  C_34
REMARK    3  A    between atoms: C_6  and  O_8
REMARK    4  A    between atoms: O_8  and  C_9
REMARK    5  A    between atoms: C_9  and  C_10
REMARK    6  A    between atoms: C_13  and  S_16
REMARK    7  A    between atoms: N_14  and  N_15
REMARK    8  A    between atoms: S_16  and  C_17
REMARK    9  A    between atoms: C_17  and  C_18
REMARK   10  A    between atoms: N_20  and  C_21
REMARK   11  A    between atoms: C_21  and  C_23
REMARK   12  A    between atoms: C_21  and  C_24
REMARK   13  A    between atoms: C_34  and  C_35
REMARK   14  A    between atoms: C_34  and  C_36
REMARK                            x       y       z     vdW  Elec       q    Type
REMARK                         _______ _______ _______ _____ _____    ______ ____
ROOT
ATOM      1  C   UNL     1       1.323  -0.356  -0.013  0.00  0.00    +0.189 A 
ATOM      2  N   UNL     1       2.019   0.745  -0.013  0.00  0.00    -0.128 NA
ATOM      3  N   UNL     1       1.233   1.763  -0.000  0.00  0.00    -0.121 NA
ATOM      4  C   UNL     1      -0.016   1.361   0.009  0.00  0.00    +0.209 A 
ATOM      5  N   UNL     1       0.002  -0.004   0.002  0.00  0.00    -0.225 N 
ENDROOT
BRANCH   5   6
ATOM      6  N   UNL     1      -1.075  -0.844   0.008  0.00  0.00    -0.295 N 
ATOM      7  H   UNL     1      -1.370  -1.060  -0.933  0.00  0.00    +0.163 HD
ATOM      8  H   UNL     1      -0.875  -1.685   0.527  0.00  0.00    +0.163 HD
ENDBRANCH   5   6
BRANCH   1   9
ATOM      9  C   UNL     1       1.873  -1.760  -0.025  0.00  0.00    +0.306 C 
BRANCH   9  10
ATOM     10  O   UNL     1       2.034  -2.196  -1.377  0.00  0.00    -0.484 OA
BRANCH  10  16
ATOM     11  C   UNL     1       3.688  -6.379   0.517  0.00  0.00    +0.044 C 
ATOM     12  C   UNL     1       3.341  -5.516  -0.669  0.00  0.00    -0.047 A 
ATOM     13  C   UNL     1       3.521  -6.001  -1.952  0.00  0.00    +0.004 A 
ATOM     14  C   UNL     1       3.204  -5.212  -3.042  0.00  0.00    +0.008 A 
ATOM     15  C   UNL     1       2.701  -3.939  -2.852  0.00  0.00    -0.003 A 
ATOM     16  C   UNL     1       2.524  -3.449  -1.566  0.00  0.00    +0.125 A 
ATOM     17  C   UNL     1       2.844  -4.243  -0.474  0.00  0.00    +0.049 A 
BRANCH  15  18
ATOM     18  C   UNL     1       2.349  -3.082  -4.040  0.00  0.00    +0.016 C 
ATOM     19  C   UNL     1       3.596  -2.866  -4.900  0.00  0.00    +0.012 C 
ATOM     20  C   UNL     1       1.270  -3.780  -4.871  0.00  0.00    +0.012 C 
ENDBRANCH  15  18
ENDBRANCH  10  16
ENDBRANCH   9  10
ENDBRANCH   1   9
BRANCH   4  21
ATOM     21  S   UNL     1      -1.447   2.389   0.022  0.00  0.00    -0.075 S 
BRANCH  21  22
ATOM     22  C   UNL     1      -0.662   4.020   0.027  0.00  0.00    +0.173 C 
BRANCH  22  23
ATOM     23  C   UNL     1      -1.724   5.089   0.038  0.00  0.00    +0.224 C 
ATOM     24  O   UNL     1      -2.897   4.779   0.042  0.00  0.00    -0.275 OA
ATOM     25  N   UNL     1      -1.371   6.390   0.044  0.00  0.00    -0.312 N 
ATOM     26  H   UNL     1      -0.434   6.638   0.040  0.00  0.00    +0.149 HD
BRANCH  25  27
ATOM     27  C   UNL     1      -2.404   7.429   0.054  0.00  0.00    +0.076 C 
ATOM     28  C   UNL     1      -2.846   7.694   1.495  0.00  0.00    +0.028 C 
BRANCH  27  29
ATOM     29  C   UNL     1      -1.839   8.716  -0.551  0.00  0.00    -0.010 C 
ATOM     30  C   UNL     1      -1.398   8.450  -1.992  0.00  0.00    +0.012 C 
ATOM     31  C   UNL     1      -0.833   9.737  -2.597  0.00  0.00    -0.010 C 
ATOM     32  C   UNL     1      -1.911  10.822  -2.586  0.00  0.00    +0.007 C 
ATOM     33  C   UNL     1      -2.353  11.088  -1.145  0.00  0.00    -0.010 C 
ATOM     34  C   UNL     1      -2.918   9.801  -0.540  0.00  0.00    +0.012 C 
ATOM     35  C   UNL     1      -1.151  11.554  -0.321  0.00  0.00    +0.007 C 
ATOM     36  C   UNL     1      -0.073  10.469  -0.333  0.00  0.00    -0.010 C 
ATOM     37  C   UNL     1       0.369  10.204  -1.773  0.00  0.00    +0.007 C 
ATOM     38  C   UNL     1      -0.638   9.182   0.273  0.00  0.00    +0.012 C 
ENDBRANCH  27  29
ENDBRANCH  25  27
ENDBRANCH  22  23
ENDBRANCH  21  22
ENDBRANCH   4  21
TORSDOF 10
