REMARK  Name = ZINC39666213
REMARK  10 active torsions:
REMARK  status: ('A' for Active; 'I' for Inactive)
REMARK    1  A    between atoms: C_1  and  C_2
REMARK    2  A    between atoms: C_5  and  O_8
REMARK    3  A    between atoms: O_8  and  C_9
REMARK    4  A    between atoms: C_9  and  C_11
REMARK    5  A    between atoms: C_9  and  C_12
REMARK    6  A    between atoms: C_12  and  N_13
REMARK    7  A    between atoms: C_14  and  C_16
REMARK    8  A    between atoms: C_27  and  C_29
REMARK    9  A    between atoms: C_31  and  C_38
REMARK   10  A    between atoms: C_33  and  C_34
REMARK                            x       y       z     vdW  Elec       q    Type
REMARK                         _______ _______ _______ _____ _____    ______ ____
ROOT
ATOM      1  C   UNL     1      -4.017  -6.547   0.377  0.00  0.00    +0.100 C 
ATOM      2  C   UNL     1      -4.656  -5.799   1.569  0.00  0.00    +0.121 C 
ATOM      3  N   UNL     1      -6.052  -6.294   1.617  0.00  0.00    -0.296 N 
ATOM      4  C   UNL     1      -5.941  -7.740   1.310  0.00  0.00    +0.115 C 
ATOM      5  C   UNL     1      -4.863  -7.821   0.211  0.00  0.00    -0.004 C 
ATOM      6  C   UNL     1      -5.516  -7.845  -1.168  0.00  0.00    -0.010 C 
ATOM      7  C   UNL     1      -6.306  -9.147  -1.331  0.00  0.00    -0.082 C 
ATOM      8  N   UNL     1      -5.401 -10.293  -1.175  0.00  0.00    +0.379 N 
ATOM      9  C   UNL     1      -4.849 -10.314   0.185  0.00  0.00    -0.082 C 
ATOM     10  C   UNL     1      -3.998  -9.061   0.412  0.00  0.00    -0.010 C 
ATOM     11  C   UNL     1      -7.170  -5.588   1.879  0.00  0.00    +0.250 C 
ATOM     12  O   UNL     1      -7.097  -4.396   2.105  0.00  0.00    -0.270 OA
ATOM     13  H   UNL     1      -5.911 -11.147  -1.343  0.00  0.00    -0.086 HD
ATOM     14  H   UNL     1      -4.647 -10.217  -1.841  0.00  0.00    -0.086 HD
ENDROOT
BRANCH  11  15
ATOM     15  C   UNL     1      -8.481  -6.262   1.892  0.00  0.00    +0.087 A 
ATOM     16  C   UNL     1      -8.737  -7.709   1.831  0.00  0.00    +0.058 A 
ATOM     17  C   UNL     1     -10.071  -7.849   1.872  0.00  0.00    +0.103 A 
ATOM     18  O   UNL     1     -10.638  -6.636   1.951  0.00  0.00    -0.455 OA
ATOM     19  C   UNL     1      -9.709  -5.675   1.970  0.00  0.00    +0.220 A 
ATOM     20  C   UNL     1     -10.813  -9.160   1.834  0.00  0.00    +0.086 C 
BRANCH  19  21
ATOM     21  C   UNL     1      -9.974  -4.194   2.059  0.00  0.00    +0.451 C 
ATOM     22  F   UNL     1     -10.106  -3.665   0.771  0.00  0.00    -0.163 F 
ATOM     23  F   UNL     1     -11.155  -3.974   2.776  0.00  0.00    -0.163 F 
ATOM     24  F   UNL     1      -8.908  -3.568   2.713  0.00  0.00    -0.163 F 
ENDBRANCH  19  21
ENDBRANCH  11  15
BRANCH   1  26
ATOM     25  N   UNL     1      -1.681  -6.985  -0.307  0.00  0.00    -0.312 N 
ATOM     26  C   UNL     1      -2.587  -6.905   0.688  0.00  0.00    +0.218 C 
ATOM     27  O   UNL     1      -2.251  -7.120   1.833  0.00  0.00    -0.275 OA
ATOM     28  H   UNL     1      -1.950  -6.813  -1.223  0.00  0.00    +0.149 HD
BRANCH  25  29
ATOM     29  C   UNL     1      -0.290  -7.332  -0.004  0.00  0.00    +0.148 C 
BRANCH  29  30
ATOM     30  C   UNL     1       0.523  -7.355  -1.300  0.00  0.00    +0.187 C 
ATOM     31  C   UNL     1       1.976  -7.718  -0.985  0.00  0.00    +0.053 C 
BRANCH  30  32
ATOM     32  O   UNL     1      -0.028  -8.327  -2.191  0.00  0.00    -0.488 OA
BRANCH  32  37
ATOM     33  C   UNL     1       1.007  -7.637  -7.685  0.00  0.00    +0.044 C 
ATOM     34  C   UNL     1       0.730  -7.821  -6.215  0.00  0.00    -0.050 A 
ATOM     35  C   UNL     1       1.160  -6.872  -5.307  0.00  0.00    +0.007 A 
ATOM     36  C   UNL     1       0.908  -7.039  -3.959  0.00  0.00    +0.046 A 
ATOM     37  C   UNL     1       0.221  -8.160  -3.517  0.00  0.00    +0.121 A 
ATOM     38  C   UNL     1      -0.210  -9.111  -4.430  0.00  0.00    +0.046 A 
ATOM     39  C   UNL     1       0.041  -8.937  -5.777  0.00  0.00    +0.007 A 
ENDBRANCH  32  37
ENDBRANCH  30  32
ENDBRANCH  29  30
ENDBRANCH  25  29
ENDBRANCH   1  26
TORSDOF 7
