REMARK  Name = ZINC38550050
REMARK  9 active torsions:
REMARK  status: ('A' for Active; 'I' for Inactive)
REMARK    1  A    between atoms: C_1  and  C_2
REMARK    2  A    between atoms: C_2  and  O_3
REMARK    3  A    between atoms: O_3  and  C_4
REMARK    4  A    between atoms: C_4  and  C_6
REMARK    5  A    between atoms: C_8  and  N_18
REMARK    6  A    between atoms: C_11  and  O_16
REMARK    7  A    between atoms: O_16  and  C_17
REMARK    8  A    between atoms: C_19  and  C_21
REMARK    9  A    between atoms: C_21  and  N_22
REMARK                            x       y       z     vdW  Elec       q    Type
REMARK                         _______ _______ _______ _____ _____    ______ ____
ROOT
ATOM      1  N   UNL     1      -3.519  -1.611  -2.284  0.00  0.00    -0.288 N 
ATOM      2  C   UNL     1      -4.319  -1.675  -3.366  0.00  0.00    +0.200 C 
ATOM      3  O   UNL     1      -4.965  -2.678  -3.585  0.00  0.00    -0.278 OA
ATOM      4  H   UNL     1      -3.048  -0.789  -2.076  0.00  0.00    +0.155 HD
ENDROOT
BRANCH   1   6
ATOM      5  C   UNL     1      -4.262  -3.925  -1.427  0.00  0.00    +0.234 C 
ATOM      6  C   UNL     1      -3.372  -2.703  -1.480  0.00  0.00    +0.053 C 
ATOM      7  C   UNL     1      -2.377  -2.922  -0.544  0.00  0.00    +0.021 A 
ATOM      8  C   UNL     1      -1.262  -2.149  -0.136  0.00  0.00    +0.057 A 
ATOM      9  C   UNL     1      -0.430  -2.623   0.828  0.00  0.00    +0.121 A 
ATOM     10  C   UNL     1      -0.647  -3.868   1.435  0.00  0.00    +0.047 A 
ATOM     11  C   UNL     1      -1.692  -4.658   1.093  0.00  0.00    +0.029 A 
ATOM     12  C   UNL     1      -2.605  -4.230   0.093  0.00  0.00    +0.045 A 
ATOM     13  N   UNL     1      -3.681  -4.806  -0.409  0.00  0.00    -0.367 N 
ATOM     14  H   UNL     1      -4.031  -5.672  -0.148  0.00  0.00    +0.161 HD
BRANCH   5  15
ATOM     15  C   UNL     1      -5.662  -3.530  -1.034  0.00  0.00    +0.336 C 
ATOM     16  O   UNL     1      -6.041  -3.700   0.101  0.00  0.00    -0.248 OA
BRANCH  15  17
ATOM     17  O   UNL     1      -6.488  -2.991  -1.944  0.00  0.00    -0.463 OA
BRANCH  17  19
ATOM     18  C   UNL     1      -8.645  -2.230  -2.724  0.00  0.00    +0.048 C 
ATOM     19  C   UNL     1      -7.833  -2.739  -1.531  0.00  0.00    +0.229 C 
ENDBRANCH  17  19
ENDBRANCH  15  17
ENDBRANCH   5  15
BRANCH   9  20
ATOM     20  O   UNL     1       0.637  -1.873   1.213  0.00  0.00    -0.495 OA
ATOM     21  C   UNL     1       1.480  -2.419   2.230  0.00  0.00    +0.277 C 
ENDBRANCH   9  20
ENDBRANCH   1   6
BRANCH   2  22
ATOM     22  C   UNL     1      -4.411  -0.500  -4.306  0.00  0.00    +0.019 C 
BRANCH  22  23
ATOM     23  N   UNL     1      -5.214  -0.872  -5.478  0.00  0.00    +0.386 N 
ATOM     24  C   UNL     1      -5.157   0.206  -6.470  0.00  0.00    -0.073 C 
ATOM     25  C   UNL     1      -5.979  -0.137  -7.703  0.00  0.00    -0.007 C 
ATOM     26  C   UNL     1      -7.428  -0.449  -7.319  0.00  0.00    +0.011 C 
ATOM     27  C   UNL     1      -7.395  -1.587  -6.291  0.00  0.00    +0.020 C 
ATOM     28  C   UNL     1      -6.607  -1.097  -5.066  0.00  0.00    -0.069 C 
ATOM     29  C   UNL     1      -6.653  -2.765  -6.882  0.00  0.00    +0.023 A 
ATOM     30  C   UNL     1      -6.997  -4.006  -6.449  0.00  0.00    +0.022 A 
ATOM     31  C   UNL     1      -6.308  -5.135  -6.905  0.00  0.00    +0.007 A 
ATOM     32  C   UNL     1      -5.269  -4.967  -7.773  0.00  0.00    +0.070 A 
ATOM     33  C   UNL     1      -4.938  -3.673  -8.198  0.00  0.00    +0.251 A 
ATOM     34  O   UNL     1      -3.973  -3.504  -8.926  0.00  0.00    -0.268 OA
ATOM     35  N   UNL     1      -5.680  -2.606  -7.809  0.00  0.00    -0.312 N 
ATOM     36  C   UNL     1      -5.401  -1.326  -8.453  0.00  0.00    +0.126 C 
ATOM     37  H   UNL     1      -4.843  -1.719  -5.883  0.00  0.00    -0.081 HD
ENDBRANCH  22  23
ENDBRANCH   2  22
TORSDOF 7
