REMARK  Name = ZINC19316270
REMARK  13 active torsions:
REMARK  status: ('A' for Active; 'I' for Inactive)
REMARK    1  A    between atoms: C_1  and  C_2
REMARK    2  A    between atoms: C_5  and  C_8
REMARK    3  A    between atoms: C_8  and  N_9
REMARK    4  A    between atoms: C_11  and  C_15
REMARK    5  A    between atoms: C_12  and  C_14
REMARK    6  A    between atoms: C_16  and  C_17
REMARK    7  A    between atoms: C_17  and  O_19
REMARK    8  A    between atoms: O_19  and  C_20
REMARK    9  A    between atoms: C_20  and  C_21
REMARK   10  A    between atoms: C_21  and  O_22
REMARK   11  A    between atoms: O_22  and  C_23
REMARK   12  A    between atoms: C_26  and  S_29
REMARK   13  A    between atoms: S_29  and  N_32
REMARK                            x       y       z     vdW  Elec       q    Type
REMARK                         _______ _______ _______ _____ _____    ______ ____
ROOT
ATOM      1  C   UNL     1      -0.014   1.213   0.009  0.00  0.00    +0.332 C 
ATOM      2  O   UNL     1       0.002  -0.004   0.002  0.00  0.00    -0.246 OA
ENDROOT
BRANCH   1   4
ATOM      3  C   UNL     1      -2.411   1.211   0.020  0.00  0.00    +0.020 C 
ATOM      4  C   UNL     1      -1.249   1.903   0.018  0.00  0.00    +0.092 C 
BRANCH   3   7
ATOM      5  N   UNL     1      -5.305   3.325   0.560  0.00  0.00    -0.248 N 
ATOM      6  C   UNL     1      -4.057   2.951   0.891  0.00  0.00    +0.135 A 
ATOM      7  C   UNL     1      -3.692   1.928   0.030  0.00  0.00    +0.034 A 
ATOM      8  C   UNL     1      -4.785   1.709  -0.841  0.00  0.00    +0.069 A 
ATOM      9  N   UNL     1      -5.736   2.539  -0.514  0.00  0.00    -0.174 NA
ATOM     10  C   UNL     1      -4.842   0.691  -1.951  0.00  0.00    +0.068 C 
ATOM     11 CL   UNL     1      -3.083   3.623   2.161  0.00  0.00    -0.062 Cl
BRANCH   5  12
ATOM     12  C   UNL     1      -6.084   4.380   1.215  0.00  0.00    +0.180 C 
BRANCH  12  17
ATOM     13  C   UNL     1      -5.084   9.427  -1.415  0.00  0.00    +0.044 C 
ATOM     14  C   UNL     1      -5.345   8.111  -0.729  0.00  0.00    -0.050 A 
ATOM     15  C   UNL     1      -6.376   7.298  -1.162  0.00  0.00    +0.004 A 
ATOM     16  C   UNL     1      -6.615   6.091  -0.533  0.00  0.00    +0.006 A 
ATOM     17  C   UNL     1      -5.823   5.696   0.529  0.00  0.00    -0.026 A 
ATOM     18  C   UNL     1      -4.796   6.511   0.966  0.00  0.00    +0.006 A 
ATOM     19  C   UNL     1      -4.554   7.717   0.334  0.00  0.00    +0.004 A 
ENDBRANCH  12  17
ENDBRANCH   5  12
ENDBRANCH   3   7
ENDBRANCH   1   4
BRANCH   1  20
ATOM     20  O   UNL     1       1.145   1.903   0.001  0.00  0.00    -0.458 OA
BRANCH  20  21
ATOM     21  C   UNL     1       2.354   1.141  -0.014  0.00  0.00    +0.273 C 
BRANCH  21  22
ATOM     22  C   UNL     1       3.554   2.090  -0.021  0.00  0.00    +0.270 C 
BRANCH  22  23
ATOM     23  O   UNL     1       3.587   2.825   1.204  0.00  0.00    -0.489 OA
BRANCH  23  24
ATOM     24  C   UNL     1       4.599   3.719   1.361  0.00  0.00    +0.121 A 
ATOM     25  C   UNL     1       5.545   3.880   0.358  0.00  0.00    +0.047 A 
ATOM     26  C   UNL     1       6.569   4.793   0.517  0.00  0.00    +0.032 A 
ATOM     27  C   UNL     1       6.659   5.537   1.679  0.00  0.00    +0.105 A 
ATOM     28  C   UNL     1       5.721   5.374   2.682  0.00  0.00    +0.032 A 
ATOM     29  C   UNL     1       4.691   4.467   2.525  0.00  0.00    +0.047 A 
BRANCH  27  30
ATOM     30  S   UNL     1       7.971   6.696   1.882  0.00  0.00    +0.056 S 
ATOM     31  O   UNL     1       8.403   7.053   0.576  0.00  0.00    -0.153 OA
ATOM     32  O   UNL     1       7.521   7.658   2.826  0.00  0.00    -0.153 OA
BRANCH  30  33
ATOM     33  N   UNL     1       9.231   5.889   2.592  0.00  0.00    -0.204 NA
ATOM     34  H   UNL     1      10.074   6.580   2.737  0.00  0.00    +0.144 HD
ATOM     35  H   UNL     1       9.546   5.057   1.945  0.00  0.00    +0.144 HD
ENDBRANCH  30  33
ENDBRANCH  27  30
ENDBRANCH  23  24
ENDBRANCH  22  23
ENDBRANCH  21  22
ENDBRANCH  20  21
ENDBRANCH   1  20
TORSDOF 11
