REMARK  Name = ZINC10735710
REMARK  9 active torsions:
REMARK  status: ('A' for Active; 'I' for Inactive)
REMARK    1  A    between atoms: C_1  and  C_2
REMARK    2  A    between atoms: C_2  and  O_3
REMARK    3  A    between atoms: O_3  and  C_4
REMARK    4  A    between atoms: C_9  and  C_10
REMARK    5  A    between atoms: N_12  and  C_13
REMARK    6  A    between atoms: C_13  and  C_14
REMARK    7  A    between atoms: N_16  and  N_17
REMARK    8  A    between atoms: C_18  and  C_20
REMARK    9  A    between atoms: C_23  and  C_25
REMARK                            x       y       z     vdW  Elec       q    Type
REMARK                         _______ _______ _______ _____ _____    ______ ____
ROOT
ATOM      1  C   UNL     1       2.406   0.752  -0.017  0.00  0.00    +0.246 C 
ATOM      2  O   UNL     1       2.201  -0.443  -0.021  0.00  0.00    -0.273 OA
ATOM      3  N   UNL     1       3.671   1.218  -0.026  0.00  0.00    -0.233 N 
ATOM      4  H   UNL     1       3.835   2.174  -0.023  0.00  0.00    +0.173 HD
ENDROOT
BRANCH   3   5
ATOM      5  N   UNL     1       4.748   0.323  -0.042  0.00  0.00    -0.230 N 
ATOM      6  C   UNL     1       6.012   0.789  -0.051  0.00  0.00    +0.267 C 
ATOM      7  O   UNL     1       6.218   1.989  -0.047  0.00  0.00    -0.268 OA
ATOM      8  H   UNL     1       4.583  -0.633  -0.045  0.00  0.00    +0.173 HD
BRANCH   6   9
ATOM      9  C   UNL     1       7.138  -0.147  -0.067  0.00  0.00    +0.076 A 
ATOM     10  C   UNL     1       8.498   0.125  -0.084  0.00  0.00    +0.021 A 
ATOM     11  C   UNL     1       9.377  -0.921  -0.092  0.00  0.00    +0.017 A 
ATOM     12  C   UNL     1       8.875  -2.213  -0.095  0.00  0.00    +0.020 A 
ATOM     13  S   UNL     1       7.112  -1.932  -0.077  0.00  0.00    -0.084 S 
BRANCH  12  14
ATOM     14  C   UNL     1       9.611  -3.494  -0.109  0.00  0.00    -0.011 A 
ATOM     15  C   UNL     1      11.007  -3.501  -0.127  0.00  0.00    +0.012 A 
ATOM     16  C   UNL     1      11.688  -4.699  -0.136  0.00  0.00    +0.039 A 
ATOM     17  C   UNL     1      10.990  -5.897  -0.136  0.00  0.00    +0.123 A 
ATOM     18  C   UNL     1       9.604  -5.896  -0.123  0.00  0.00    +0.039 A 
ATOM     19  C   UNL     1       8.912  -4.703  -0.110  0.00  0.00    +0.012 A 
ATOM     20  F   UNL     1      11.663  -7.068  -0.150  0.00  0.00    -0.205 F 
ENDBRANCH  12  14
ENDBRANCH   6   9
ENDBRANCH   3   5
BRANCH   1  21
ATOM     21  C   UNL     1       1.248   1.716  -0.001  0.00  0.00    +0.202 C 
BRANCH  21  24
ATOM     22  C   UNL     1      -1.187   1.624   0.017  0.00  0.00    +0.248 C 
ATOM     23  O   UNL     1      -1.204   2.840   0.023  0.00  0.00    -0.270 OA
ATOM     24  N   UNL     1      -0.011   0.966   0.007  0.00  0.00    -0.303 N 
ATOM     25  H   UNL     1       0.002  -0.004   0.002  0.00  0.00    +0.150 HD
BRANCH  22  31
ATOM     26  C   UNL     1      -3.680   1.549   0.028  0.00  0.00    +0.133 A 
ATOM     27  C   UNL     1      -4.866   0.829   0.029  0.00  0.00    +0.046 A 
ATOM     28  C   UNL     1      -4.837  -0.551   0.021  0.00  0.00    +0.004 A 
ATOM     29  C   UNL     1      -3.628  -1.227   0.011  0.00  0.00    +0.001 A 
ATOM     30  C   UNL     1      -2.441  -0.528   0.005  0.00  0.00    +0.017 A 
ATOM     31  C   UNL     1      -2.455   0.869   0.018  0.00  0.00    +0.078 A 
BRANCH  26  32
ATOM     32  O   UNL     1      -3.707   2.905   0.035  0.00  0.00    -0.491 OA
BRANCH  32  34
ATOM     33  C   UNL     1      -4.822   5.049   0.052  0.00  0.00    +0.048 C 
ATOM     34  C   UNL     1      -4.992   3.529   0.045  0.00  0.00    +0.226 C 
ENDBRANCH  32  34
ENDBRANCH  26  32
ENDBRANCH  22  31
ENDBRANCH  21  24
ENDBRANCH   1  21
TORSDOF 8
