REMARK  Name = ZINC10337107
REMARK  2 active torsions:
REMARK  status: ('A' for Active; 'I' for Inactive)
REMARK    1  A    between atoms: C_3  and  C_7
REMARK    2  A    between atoms: C_18  and  C_20
REMARK                            x       y       z     vdW  Elec       q    Type
REMARK                         _______ _______ _______ _____ _____    ______ ____
ROOT
ATOM      1  C   UNL     1       3.492   2.193  -0.095  0.00  0.00    +0.162 C 
ATOM      2  C   UNL     1       4.047   2.250   1.312  0.00  0.00    +0.027 C 
ATOM      3  C   UNL     1       5.226   1.641   1.555  0.00  0.00    +0.083 C 
ATOM      4  C   UNL     1       5.763   1.714   2.937  0.00  0.00    +0.044 A 
ATOM      5  C   UNL     1       6.781   0.873   3.364  0.00  0.00    +0.033 A 
ATOM      6  C   UNL     1       7.250   0.973   4.661  0.00  0.00    +0.042 A 
ATOM      7  C   UNL     1       6.707   1.907   5.528  0.00  0.00    +0.023 A 
ATOM      8  C   UNL     1       5.693   2.749   5.109  0.00  0.00    +0.048 A 
ATOM      9  C   UNL     1       5.215   2.660   3.813  0.00  0.00    +0.131 A 
ATOM     10  O   UNL     1       4.226   3.479   3.373  0.00  0.00    -0.479 OA
ATOM     11  C   UNL     1       3.308   2.953   2.413  0.00  0.00    +0.234 C 
ATOM     12 CL   UNL     1       8.523  -0.074   5.205  0.00  0.00    -0.084 Cl
ATOM     13  N   UNL     1       5.902   0.987   0.577  0.00  0.00    -0.213 NA
ATOM     14  C   UNL     1       5.492   0.890  -0.661  0.00  0.00    +0.232 C 
ATOM     15  N   UNL     1       4.306   1.461  -1.071  0.00  0.00    -0.193 N 
ATOM     16  N   UNL     1       4.191   1.162  -2.429  0.00  0.00    -0.165 N 
ATOM     17  N   UNL     1       5.228   0.471  -2.762  0.00  0.00    -0.086 NA
ATOM     18  N   UNL     1       6.009   0.293  -1.769  0.00  0.00    -0.231 N 
ATOM     19  H   UNL     1       3.465   1.425  -3.015  0.00  0.00    +0.195 HD
ATOM     20  H   UNL     1       6.845  -0.199  -1.799  0.00  0.00    +0.193 HD
ENDROOT
BRANCH  11  21
ATOM     21  C   UNL     1       2.381   1.978   3.093  0.00  0.00    -0.003 A 
ATOM     22  C   UNL     1       2.898   0.977   3.894  0.00  0.00    +0.009 A 
ATOM     23  C   UNL     1       2.049   0.082   4.517  0.00  0.00    +0.020 A 
ATOM     24  C   UNL     1       0.681   0.189   4.340  0.00  0.00    +0.041 A 
ATOM     25  C   UNL     1       0.164   1.192   3.538  0.00  0.00    +0.020 A 
ATOM     26  C   UNL     1       1.014   2.089   2.920  0.00  0.00    +0.009 A 
ATOM     27 CL   UNL     1      -0.387  -0.934   5.122  0.00  0.00    -0.084 Cl
ENDBRANCH  11  21
BRANCH   1  30
ATOM     28  C   UNL     1      -0.247   1.685  -0.049  0.00  0.00    +0.020 A 
ATOM     29  C   UNL     1       0.984   2.322  -0.105  0.00  0.00    +0.009 A 
ATOM     30  C   UNL     1       2.131   1.548  -0.038  0.00  0.00    -0.003 A 
ATOM     31  C   UNL     1       2.012   0.176   0.080  0.00  0.00    +0.116 A 
ATOM     32  N   UNL     1       0.825  -0.396   0.129  0.00  0.00    -0.263 NA
ATOM     33  C   UNL     1      -0.288   0.309   0.069  0.00  0.00    +0.111 A 
ENDBRANCH   1  30
TORSDOF 2
