REMARK  Name = ZINC42008811
REMARK  10 active torsions:
REMARK  status: ('A' for Active; 'I' for Inactive)
REMARK    1  A    between atoms: C_1  and  C_2
REMARK    2  A    between atoms: C_2  and  C_3
REMARK    3  A    between atoms: C_2  and  C_4
REMARK    4  A    between atoms: C_4  and  C_5
REMARK    5  A    between atoms: C_5  and  C_6
REMARK    6  A    between atoms: C_6  and  C_7
REMARK    7  A    between atoms: C_6  and  C_8
REMARK    8  A    between atoms: C_6  and  S_11
REMARK    9  A    between atoms: S_11  and  C_12
REMARK   10  A    between atoms: C_15  and  N_19
REMARK                            x       y       z     vdW  Elec       q    Type
REMARK                         _______ _______ _______ _____ _____    ______ ____
ROOT
ATOM      1  S   UNL     1      -3.477  -2.470   1.844  0.00  0.00    -0.106 S 
ENDROOT
BRANCH   1   2
ATOM      2  C   UNL     1      -2.169  -3.314   2.670  0.00  0.00    +0.027 A 
ATOM      3  C   UNL     1      -1.168  -3.934   1.934  0.00  0.00    +0.018 A 
ATOM      4  C   UNL     1      -0.143  -4.595   2.581  0.00  0.00    +0.024 A 
ATOM      5  C   UNL     1      -0.113  -4.639   3.969  0.00  0.00    +0.026 A 
ATOM      6  C   UNL     1      -1.113  -4.020   4.706  0.00  0.00    +0.043 A 
ATOM      7  C   UNL     1      -2.136  -3.353   4.059  0.00  0.00    +0.056 A 
ATOM      8 CL   UNL     1      -3.383  -2.572   4.980  0.00  0.00    -0.082 Cl
BRANCH   5   9
ATOM      9  N   UNL     1       0.927  -5.310   4.625  0.00  0.00    -0.358 N 
ATOM     10  H   UNL     1       1.626  -5.743   4.110  0.00  0.00    +0.142 HD
ATOM     11  H   UNL     1       0.949  -5.341   5.594  0.00  0.00    +0.142 HD
ENDBRANCH   5   9
ENDBRANCH   1   2
BRANCH   1  12
ATOM     12  C   UNL     1      -2.998  -2.525   0.095  0.00  0.00    +0.119 C 
ATOM     13  C   UNL     1      -4.051  -1.799  -0.745  0.00  0.00    +0.035 C 
BRANCH  12  14
ATOM     14  C   UNL     1      -2.900  -3.960  -0.354  0.00  0.00    +0.372 C 
ATOM     15  O   UNL     1      -3.131  -4.862   0.432  0.00  0.00    -0.245 OA
ATOM     16  O   UNL     1      -2.589  -4.219  -1.505  0.00  0.00    -0.245 OA
ENDBRANCH  12  14
BRANCH  12  17
ATOM     17  C   UNL     1      -1.642  -1.841  -0.085  0.00  0.00    +0.029 C 
BRANCH  17  18
ATOM     18  C   UNL     1      -1.774  -0.352   0.244  0.00  0.00    +0.005 C 
BRANCH  18  20
ATOM     19  C   UNL     1      -0.576   1.840   0.271  0.00  0.00    +0.007 C 
ATOM     20  C   UNL     1      -0.417   0.333   0.065  0.00  0.00    -0.017 C 
ATOM     21  C   UNL     1       0.573  -0.222   1.091  0.00  0.00    +0.007 C 
ENDBRANCH  18  20
ENDBRANCH  17  18
ENDBRANCH  12  17
ENDBRANCH   1  12
TORSDOF 7
