REMARK  Name = ZINC39755030
REMARK  8 active torsions:
REMARK  status: ('A' for Active; 'I' for Inactive)
REMARK    1  A    between atoms: C_1  and  C_2
REMARK    2  A    between atoms: C_2  and  N_3
REMARK    3  A    between atoms: C_4  and  C_23
REMARK    4  A    between atoms: C_7  and  S_8
REMARK    5  A    between atoms: S_8  and  C_9
REMARK    6  A    between atoms: C_9  and  C_10
REMARK    7  A    between atoms: N_12  and  C_13
REMARK    8  A    between atoms: C_24  and  C_32
REMARK                            x       y       z     vdW  Elec       q    Type
REMARK                         _______ _______ _______ _____ _____    ______ ____
ROOT
ATOM      1  N   UNL     1      -1.368  -0.524   0.013  0.00  0.00    -0.300 N 
ATOM      2  C   UNL     1      -2.138  -0.822   1.116  0.00  0.00    +0.201 A 
ATOM      3  N   UNL     1      -3.297  -1.254   0.671  0.00  0.00    -0.125 NA
ATOM      4  N   UNL     1      -3.304  -1.245  -0.614  0.00  0.00    -0.122 NA
ATOM      5  C   UNL     1      -2.153  -0.803  -1.070  0.00  0.00    +0.192 A 
ENDROOT
BRANCH   2   6
ATOM      6  C   UNL     1      -1.737  -0.684   2.525  0.00  0.00    +0.176 A 
ATOM      7  C   UNL     1      -2.518  -0.992   3.592  0.00  0.00    +0.006 A 
ATOM      8  C   UNL     1      -1.714  -0.699   4.780  0.00  0.00    +0.024 A 
ATOM      9  C   UNL     1      -1.937  -0.798   6.155  0.00  0.00    +0.012 A 
ATOM     10  C   UNL     1      -0.952  -0.433   7.029  0.00  0.00    +0.001 A 
ATOM     11  C   UNL     1       0.267   0.036   6.559  0.00  0.00    +0.004 A 
ATOM     12  C   UNL     1       0.506   0.141   5.205  0.00  0.00    +0.047 A 
ATOM     13  C   UNL     1      -0.481  -0.225   4.298  0.00  0.00    +0.136 A 
ATOM     14  O   UNL     1      -0.538  -0.238   2.950  0.00  0.00    -0.451 OA
ATOM     15  C   UNL     1      -3.926  -1.527   3.561  0.00  0.00    +0.048 C 
ENDBRANCH   2   6
BRANCH   1  17
ATOM     16  C   UNL     1      -0.027   1.521   0.018  0.00  0.00    +0.027 C 
ATOM     17  C   UNL     1       0.003  -0.008   0.002  0.00  0.00    +0.122 C 
ENDBRANCH   1  17
BRANCH   5  18
ATOM     18  S   UNL     1      -1.705  -0.610  -2.763  0.00  0.00    -0.077 S 
BRANCH  18  19
ATOM     19  C   UNL     1      -3.179  -1.150  -3.672  0.00  0.00    +0.173 C 
BRANCH  19  20
ATOM     20  C   UNL     1      -2.927  -1.034  -5.153  0.00  0.00    +0.227 C 
ATOM     21  O   UNL     1      -1.858  -0.627  -5.556  0.00  0.00    -0.275 OA
ATOM     22  N   UNL     1      -3.889  -1.383  -6.030  0.00  0.00    -0.285 N 
ATOM     23  H   UNL     1      -4.718  -1.771  -5.710  0.00  0.00    +0.155 HD
BRANCH  22  24
ATOM     24  C   UNL     1      -3.691  -1.184  -7.402  0.00  0.00    +0.037 A 
ATOM     25  C   UNL     1      -4.759  -0.823  -8.213  0.00  0.00    +0.027 A 
ATOM     26  C   UNL     1      -4.564  -0.628  -9.566  0.00  0.00    +0.051 A 
ATOM     27  C   UNL     1      -3.303  -0.792 -10.120  0.00  0.00    +0.162 A 
ATOM     28  C   UNL     1      -2.232  -1.151  -9.311  0.00  0.00    +0.164 A 
ATOM     29  C   UNL     1      -2.427  -1.343  -7.952  0.00  0.00    +0.072 A 
ATOM     30  O   UNL     1      -0.985  -1.308  -9.835  0.00  0.00    -0.485 OA
ATOM     31  C   UNL     1      -0.899  -1.467 -11.255  0.00  0.00    +0.270 C 
ATOM     32  C   UNL     1      -1.788  -0.403 -11.912  0.00  0.00    +0.270 C 
ATOM     33  O   UNL     1      -3.132  -0.599 -11.457  0.00  0.00    -0.485 OA
ENDBRANCH  22  24
ENDBRANCH  19  20
ENDBRANCH  18  19
ENDBRANCH   5  18
TORSDOF 6
