REMARK  Name = ZINC15318999
REMARK  10 active torsions:
REMARK  status: ('A' for Active; 'I' for Inactive)
REMARK    1  A    between atoms: C_1  and  C_2
REMARK    2  A    between atoms: C_2  and  O_3
REMARK    3  A    between atoms: O_3  and  C_4
REMARK    4  A    between atoms: C_4  and  C_6
REMARK    5  A    between atoms: C_9  and  O_26
REMARK    6  A    between atoms: N_13  and  C_24
REMARK    7  A    between atoms: C_14  and  C_15
REMARK    8  A    between atoms: C_15  and  N_54
REMARK    9  A    between atoms: C_18  and  C_21
REMARK   10  A    between atoms: O_26  and  C_27
REMARK                            x       y       z     vdW  Elec       q    Type
REMARK                         _______ _______ _______ _____ _____    ______ ____
ROOT
ATOM      1  C   UNL     1      -1.295   1.928   0.019  0.00  0.00    +0.086 A 
ATOM      2  C   UNL     1      -2.059   2.353   1.206  0.00  0.00    +0.018 A 
ATOM      3  C   UNL     1      -1.856   2.237   2.579  0.00  0.00    +0.057 A 
ATOM      4  C   UNL     1      -2.790   2.757   3.455  0.00  0.00    +0.135 A 
ATOM      5  C   UNL     1      -3.928   3.395   2.967  0.00  0.00    +0.061 A 
ATOM      6  C   UNL     1      -4.136   3.514   1.610  0.00  0.00    +0.045 A 
ATOM      7  C   UNL     1      -3.206   2.996   0.715  0.00  0.00    +0.051 A 
ATOM      8  N   UNL     1      -3.141   2.962  -0.664  0.00  0.00    -0.348 N 
ATOM      9  C   UNL     1      -2.010   2.338  -1.069  0.00  0.00    +0.017 A 
ATOM     10  C   UNL     1      -4.150   3.529  -1.563  0.00  0.00    +0.149 C 
ATOM     11 BR   UNL     1      -5.197   4.103   4.177  0.00  0.00    -0.046 Br
ENDROOT
BRANCH   1  12
ATOM     12  C   UNL     1      -0.014   1.212   0.009  0.00  0.00    +0.341 C 
ATOM     13  O   UNL     1       0.002  -0.004   0.002  0.00  0.00    -0.245 OA
BRANCH  12  14
ATOM     14  O   UNL     1       1.144   1.902   0.001  0.00  0.00    -0.461 OA
BRANCH  14  16
ATOM     15  C   UNL     1       3.573   2.076  -0.021  0.00  0.00    +0.048 C 
ATOM     16  C   UNL     1       2.372   1.128  -0.015  0.00  0.00    +0.229 C 
ENDBRANCH  14  16
ENDBRANCH  12  14
ENDBRANCH   1  12
BRANCH   4  17
ATOM     17  O   UNL     1      -2.597   2.647   4.796  0.00  0.00    -0.494 OA
ATOM     18  C   UNL     1      -1.408   1.981   5.228  0.00  0.00    +0.277 C 
ENDBRANCH   4  17
BRANCH   9  19
ATOM     19  C   UNL     1      -1.605   2.123  -2.505  0.00  0.00    -0.024 C 
BRANCH  19  25
ATOM     20  C   UNL     1       0.222   3.617  -1.964  0.00  0.00    -0.078 C 
ATOM     21  C   UNL     1       0.946   4.891  -2.404  0.00  0.00    -0.006 C 
ATOM     22  C   UNL     1       1.601   4.655  -3.768  0.00  0.00    +0.071 C 
ATOM     23  C   UNL     1       0.526   4.240  -4.776  0.00  0.00    -0.006 C 
ATOM     24  C   UNL     1      -0.186   2.984  -4.267  0.00  0.00    -0.078 C 
ATOM     25  N   UNL     1      -0.815   3.285  -2.963  0.00  0.00    +0.383 N 
ATOM     26  H   UNL     1      -1.442   4.091  -3.073  0.00  0.00    -0.081 HD
BRANCH  22  27
ATOM     27  C   UNL     1       2.265   5.925  -4.234  0.00  0.00    +0.213 C 
ATOM     28  O   UNL     1       1.914   6.447  -5.271  0.00  0.00    -0.276 OA
ATOM     29  N   UNL     1       3.249   6.480  -3.499  0.00  0.00    -0.329 N 
ATOM     30  H   UNL     1       3.530   6.062  -2.670  0.00  0.00    +0.145 HD
ATOM     31  H   UNL     1       3.676   7.297  -3.799  0.00  0.00    +0.145 HD
ENDBRANCH  22  27
ENDBRANCH  19  25
ENDBRANCH   9  19
TORSDOF 7
