REMARK  Name = ZINC20726543
REMARK  6 active torsions:
REMARK  status: ('A' for Active; 'I' for Inactive)
REMARK    1  A    between atoms: C_1  and  C_2
REMARK    2  A    between atoms: C_2  and  C_4
REMARK    3  A    between atoms: C_2  and  N_8
REMARK    4  A    between atoms: C_4  and  O_6
REMARK    5  A    between atoms: O_6  and  C_7
REMARK    6  A    between atoms: C_20  and  C_22
REMARK                            x       y       z     vdW  Elec       q    Type
REMARK                         _______ _______ _______ _____ _____    ______ ____
ROOT
ATOM      1  N   UNL     1      -1.601  -0.395   2.631  0.00  0.00    -0.286 N 
ATOM      2  C   UNL     1      -0.287  -0.577   2.389  0.00  0.00    +0.304 C 
ATOM      3  O   UNL     1       0.145  -0.460   1.259  0.00  0.00    -0.253 OA
ATOM      4  N   UNL     1       0.547  -0.888   3.401  0.00  0.00    -0.273 N 
ATOM      5  C   UNL     1       1.999  -0.973   3.180  0.00  0.00    +0.116 C 
ATOM      6  C   UNL     1       2.459  -2.416   3.419  0.00  0.00    +0.074 C 
ATOM      7  C   UNL     1       1.818  -2.928   4.682  0.00  0.00    +0.040 A 
ATOM      8  C   UNL     1       0.739  -2.377   5.277  0.00  0.00    +0.062 A 
ATOM      9  N   UNL     1       0.452  -3.096   6.365  0.00  0.00    -0.348 N 
ATOM     10  C   UNL     1       1.315  -4.073   6.471  0.00  0.00    +0.171 A 
ATOM     11  N   UNL     1       2.185  -4.000   5.438  0.00  0.00    -0.349 N 
ATOM     12  H   UNL     1       2.930  -4.598   5.268  0.00  0.00    +0.166 HD
ATOM     13  C   UNL     1       0.027  -1.147   4.755  0.00  0.00    +0.156 C 
ATOM     14  H   UNL     1      -1.958  -0.559   3.518  0.00  0.00    +0.151 HD
ATOM     15  H   UNL     1      -0.279  -2.922   6.978  0.00  0.00    +0.167 HD
ENDROOT
BRANCH  13  16
ATOM     16  C   UNL     1       0.313   0.033   5.648  0.00  0.00    -0.021 A 
ATOM     17  C   UNL     1       1.620   0.387   5.928  0.00  0.00    +0.007 A 
ATOM     18  C   UNL     1       1.883   1.470   6.746  0.00  0.00    +0.015 A 
ATOM     19  C   UNL     1       0.838   2.199   7.285  0.00  0.00    +0.018 A 
ATOM     20  C   UNL     1      -0.469   1.844   7.005  0.00  0.00    +0.015 A 
ATOM     21  C   UNL     1      -0.731   0.764   6.183  0.00  0.00    +0.007 A 
ATOM     22 BR   UNL     1       1.197   3.679   8.406  0.00  0.00    -0.050 Br
ENDBRANCH  13  16
BRANCH   1  24
ATOM     23  C   UNL     1      -2.955  -1.163   0.745  0.00  0.00    +0.040 C 
ATOM     24  C   UNL     1      -2.489   0.049   1.554  0.00  0.00    +0.180 C 
BRANCH  24  25
ATOM     25  C   UNL     1      -3.686   0.748   2.146  0.00  0.00    +0.327 C 
ATOM     26  O   UNL     1      -3.786   0.864   3.344  0.00  0.00    -0.249 OA
BRANCH  25  27
ATOM     27  O   UNL     1      -4.640   1.243   1.341  0.00  0.00    -0.467 OA
ATOM     28  C   UNL     1      -5.746   1.893   1.971  0.00  0.00    +0.280 C 
ENDBRANCH  25  27
ENDBRANCH  24  25
ENDBRANCH   1  24
TORSDOF 4
