REMARK  Name = ZINC22818768
REMARK  11 active torsions:
REMARK  status: ('A' for Active; 'I' for Inactive)
REMARK    1  A    between atoms: C_1  and  O_2
REMARK    2  A    between atoms: O_2  and  C_3
REMARK    3  A    between atoms: C_6  and  C_9
REMARK    4  A    between atoms: C_15  and  C_23
REMARK    5  A    between atoms: C_17  and  C_21
REMARK    6  A    between atoms: C_18  and  N_20
REMARK    7  A    between atoms: C_26  and  O_31
REMARK    8  A    between atoms: C_27  and  O_29
REMARK    9  A    between atoms: O_29  and  C_30
REMARK   10  A    between atoms: O_31  and  C_32
REMARK   11  A    between atoms: C_32  and  C_33
REMARK                            x       y       z     vdW  Elec       q    Type
REMARK                         _______ _______ _______ _____ _____    ______ ____
ROOT
ATOM      1  C   UNL     1      -4.953  -2.614   0.035  0.00  0.00    +0.084 C 
ATOM      2  N   UNL     1      -6.135  -2.057   0.040  0.00  0.00    -0.150 NA
ATOM      3  N   UNL     1      -7.163  -2.999   0.013  0.00  0.00    -0.115 NA
ATOM      4  C   UNL     1      -6.714  -4.200  -0.068  0.00  0.00    +0.227 C 
ATOM      5  C   UNL     1      -5.194  -4.106   0.035  0.00  0.00    +0.140 C 
ATOM      6  C   UNL     1      -4.646  -4.749  -1.245  0.00  0.00    +0.082 C 
ATOM      7  C   UNL     1      -5.437  -5.993  -1.547  0.00  0.00    +0.095 C 
ATOM      8  C   UNL     1      -6.674  -6.244  -1.069  0.00  0.00    +0.200 C 
ATOM      9  O   UNL     1      -7.330  -5.391  -0.236  0.00  0.00    -0.425 OA
ENDROOT
BRANCH   1  13
ATOM     10  C   UNL     1      -1.200  -0.637   0.010  0.00  0.00    +0.120 A 
ATOM     11  C   UNL     1      -2.373   0.106   0.019  0.00  0.00    +0.046 A 
ATOM     12  C   UNL     1      -3.595  -0.531   0.028  0.00  0.00    +0.013 A 
ATOM     13  C   UNL     1      -3.652  -1.929   0.026  0.00  0.00    -0.001 A 
ATOM     14  C   UNL     1      -2.466  -2.672   0.016  0.00  0.00    +0.013 A 
ATOM     15  C   UNL     1      -1.251  -2.026   0.003  0.00  0.00    +0.046 A 
BRANCH  10  17
ATOM     16  C   UNL     1      -0.017   1.425   0.010  0.00  0.00    +0.277 C 
ATOM     17  O   UNL     1       0.002  -0.004   0.002  0.00  0.00    -0.495 OA
ENDBRANCH  10  17
ENDBRANCH   1  13
BRANCH   6  18
ATOM     18  C   UNL     1      -4.773  -3.778  -2.390  0.00  0.00    -0.034 A 
ATOM     19  C   UNL     1      -6.019  -3.303  -2.757  0.00  0.00    +0.008 A 
ATOM     20  C   UNL     1      -6.140  -2.412  -3.807  0.00  0.00    +0.050 A 
ATOM     21  C   UNL     1      -5.013  -1.994  -4.495  0.00  0.00    +0.162 A 
ATOM     22  C   UNL     1      -3.759  -2.472  -4.126  0.00  0.00    +0.162 A 
ATOM     23  C   UNL     1      -3.643  -3.361  -3.069  0.00  0.00    +0.053 A 
BRANCH  22  24
ATOM     24  O   UNL     1      -2.649  -2.064  -4.798  0.00  0.00    -0.491 OA
ATOM     25  C   UNL     1      -1.396  -2.597  -4.364  0.00  0.00    +0.277 C 
ENDBRANCH  22  24
BRANCH  21  26
ATOM     26  O   UNL     1      -5.131  -1.118  -5.529  0.00  0.00    -0.484 OA
BRANCH  26  27
ATOM     27  C   UNL     1      -6.448  -0.670  -5.852  0.00  0.00    +0.264 C 
BRANCH  27  28
ATOM     28  C   UNL     1      -6.383   0.287  -7.014  0.00  0.00    -0.010 A 
ATOM     29  C   UNL     1      -6.222   1.641  -6.785  0.00  0.00    +0.010 A 
ATOM     30  C   UNL     1      -6.161   2.520  -7.850  0.00  0.00    +0.039 A 
ATOM     31  C   UNL     1      -6.261   2.044  -9.147  0.00  0.00    +0.123 A 
ATOM     32  C   UNL     1      -6.421   0.688  -9.374  0.00  0.00    +0.039 A 
ATOM     33  C   UNL     1      -6.477  -0.190  -8.308  0.00  0.00    +0.010 A 
ATOM     34  F   UNL     1      -6.201   2.902 -10.188  0.00  0.00    -0.205 F 
ENDBRANCH  27  28
ENDBRANCH  26  27
ENDBRANCH  21  26
ENDBRANCH   6  18
BRANCH   8  35
ATOM     35  N   UNL     1      -7.295  -7.412  -1.435  0.00  0.00    -0.328 N 
ATOM     36  H   UNL     1      -6.845  -8.037  -2.025  0.00  0.00    +0.145 HD
ATOM     37  H   UNL     1      -8.184  -7.613  -1.104  0.00  0.00    +0.145 HD
ENDBRANCH   8  35
BRANCH   7  38
ATOM     38  C   UNL     1      -4.837  -6.977  -2.397  0.00  0.00    +0.100 C 
ATOM     39  N   UNL     1      -4.361  -7.757  -3.072  0.00  0.00    -0.191 NA
ENDBRANCH   7  38
TORSDOF 9
