REMARK  Name = ZINC63187721
REMARK  8 active torsions:
REMARK  status: ('A' for Active; 'I' for Inactive)
REMARK    1  A    between atoms: C_1  and  N_2
REMARK    2  A    between atoms: N_2  and  C_3
REMARK    3  A    between atoms: C_3  and  C_4
REMARK    4  A    between atoms: C_8  and  C_10
REMARK    5  A    between atoms: C_17  and  C_19
REMARK    6  A    between atoms: C_19  and  N_20
REMARK    7  A    between atoms: C_23  and  C_28
REMARK    8  A    between atoms: C_28  and  C_29
REMARK                            x       y       z     vdW  Elec       q    Type
REMARK                         _______ _______ _______ _____ _____    ______ ____
ROOT
ATOM      1  N   UNL     1      -0.020  -0.857  -3.588  0.00  0.00    -0.216 N 
ATOM      2  C   UNL     1       1.096  -1.335  -4.174  0.00  0.00    +0.244 C 
ATOM      3  O   UNL     1       2.244  -1.073  -3.885  0.00  0.00    -0.273 OA
ATOM      4  C   UNL     1       0.617  -2.268  -5.268  0.00  0.00    +0.165 C 
ATOM      5  N   UNL     1      -0.851  -2.202  -5.162  0.00  0.00    -0.287 N 
ATOM      6  C   UNL     1      -1.126  -1.358  -4.152  0.00  0.00    +0.310 C 
ATOM      7  O   UNL     1      -2.253  -1.078  -3.792  0.00  0.00    -0.252 OA
ATOM      8  H   UNL     1      -1.493  -2.677  -5.712  0.00  0.00    +0.151 HD
ENDROOT
BRANCH   1   9
ATOM      9  C   UNL     1      -0.023   0.089  -2.470  0.00  0.00    +0.213 C 
BRANCH   9  12
ATOM     10  C   UNL     1      -0.018   1.461   0.010  0.00  0.00    +0.132 C 
ATOM     11  N   UNL     1       0.002  -0.004   0.002  0.00  0.00    -0.300 N 
ATOM     12  C   UNL     1       0.000  -0.672  -1.169  0.00  0.00    +0.233 C 
ATOM     13  O   UNL     1       0.017  -1.884  -1.175  0.00  0.00    -0.274 OA
BRANCH  11  14
ATOM     14  C   UNL     1       0.024  -0.743   1.267  0.00  0.00    +0.152 C 
BRANCH  14  15
ATOM     15  C   UNL     1      -1.411  -1.020   1.720  0.00  0.00    +0.194 C 
ATOM     16  C   UNL     1      -1.427  -1.757   3.082  0.00  0.00    +0.077 C 
ATOM     17  C   UNL     1      -2.590  -2.718   2.900  0.00  0.00    +0.023 C 
ATOM     18  C   UNL     1      -2.863  -2.763   1.599  0.00  0.00    +0.124 C 
ATOM     19  O   UNL     1      -2.049  -1.977   0.854  0.00  0.00    -0.487 OA
BRANCH  18  20
ATOM     20  C   UNL     1      -3.949  -3.589   1.022  0.00  0.00    +0.016 A 
ATOM     21  C   UNL     1      -4.752  -4.369   1.854  0.00  0.00    +0.013 A 
ATOM     22  C   UNL     1      -5.762  -5.136   1.312  0.00  0.00    +0.021 A 
ATOM     23  C   UNL     1      -5.979  -5.133  -0.056  0.00  0.00    +0.041 A 
ATOM     24  C   UNL     1      -5.185  -4.360  -0.886  0.00  0.00    +0.021 A 
ATOM     25  C   UNL     1      -4.176  -3.584  -0.354  0.00  0.00    +0.013 A 
ATOM     26 CL   UNL     1      -7.252  -6.101  -0.731  0.00  0.00    -0.084 Cl
ENDBRANCH  18  20
ENDBRANCH  14  15
ENDBRANCH  11  14
ENDBRANCH   9  12
ENDBRANCH   1   9
BRANCH   4  27
ATOM     27  C   UNL     1       1.084  -1.775  -6.639  0.00  0.00    +0.065 C 
BRANCH  27  28
ATOM     28  C   UNL     1       0.702  -2.783  -7.692  0.00  0.00    -0.039 C 
ATOM     29  C   UNL     1      -0.405  -2.766  -8.470  0.00  0.00    -0.001 A 
ATOM     30  C   UNL     1      -1.540  -1.840  -8.564  0.00  0.00    +0.010 A 
ATOM     31  C   UNL     1      -2.520  -2.093  -9.461  0.00  0.00    +0.001 A 
ATOM     32  C   UNL     1      -2.480  -3.215 -10.300  0.00  0.00    +0.002 A 
ATOM     33  C   UNL     1      -1.470  -4.111 -10.272  0.00  0.00    +0.026 A 
ATOM     34  C   UNL     1      -0.385  -3.943  -9.368  0.00  0.00    +0.043 A 
ATOM     35  N   UNL     1       0.691  -4.660  -9.153  0.00  0.00    -0.380 N 
ATOM     36  C   UNL     1       1.480  -4.014  -8.098  0.00  0.00    +0.144 C 
ATOM     37  H   UNL     1       0.928  -5.478  -9.617  0.00  0.00    +0.160 HD
ENDBRANCH  27  28
ENDBRANCH   4  27
TORSDOF 7
