REMARK  Name = ZINC33300294
REMARK  8 active torsions:
REMARK  status: ('A' for Active; 'I' for Inactive)
REMARK    1  A    between atoms: C_1  and  C_2
REMARK    2  A    between atoms: C_2  and  N_3
REMARK    3  A    between atoms: C_8  and  C_11
REMARK    4  A    between atoms: C_14  and  C_17
REMARK    5  A    between atoms: C_19  and  S_20
REMARK    6  A    between atoms: S_20  and  C_21
REMARK    7  A    between atoms: C_21  and  C_22
REMARK    8  A    between atoms: N_24  and  C_25
REMARK                            x       y       z     vdW  Elec       q    Type
REMARK                         _______ _______ _______ _____ _____    ______ ____
ROOT
ATOM      1  N   UNL     1       9.086  -4.352   5.672  0.00  0.00    -0.287 N 
ATOM      2  C   UNL     1      10.316  -4.227   6.228  0.00  0.00    +0.271 A 
ATOM      3  O   UNL     1      10.828  -5.152   6.835  0.00  0.00    -0.266 OA
ATOM      4  C   UNL     1      10.976  -3.003   6.089  0.00  0.00    +0.123 A 
ATOM      5  C   UNL     1      10.384  -1.938   5.389  0.00  0.00    +0.114 A 
ATOM      6  C   UNL     1      11.263  -0.783   5.383  0.00  0.00    +0.106 A 
ATOM      7  N   UNL     1      12.417  -0.872   5.990  0.00  0.00    -0.207 NA
ATOM      8  S   UNL     1      12.526  -2.322   6.597  0.00  0.00    +0.019 S 
ATOM      9  N   UNL     1       9.154  -2.149   4.859  0.00  0.00    -0.220 NA
ATOM     10  C   UNL     1       8.542  -3.299   4.993  0.00  0.00    +0.173 A 
ENDROOT
BRANCH   6  11
ATOM     11  C   UNL     1      10.860   0.471   4.704  0.00  0.00    +0.003 A 
ATOM     12  C   UNL     1      10.110   0.421   3.530  0.00  0.00    +0.010 A 
ATOM     13  C   UNL     1       9.733   1.592   2.904  0.00  0.00    +0.004 A 
ATOM     14  C   UNL     1      10.107   2.814   3.435  0.00  0.00    -0.050 A 
ATOM     15  C   UNL     1      10.855   2.870   4.597  0.00  0.00    +0.004 A 
ATOM     16  C   UNL     1      11.233   1.705   5.234  0.00  0.00    +0.010 A 
ATOM     17  C   UNL     1       9.698   4.089   2.744  0.00  0.00    +0.044 C 
ENDBRANCH   6  11
BRANCH   1  19
ATOM     18  C   UNL     1       8.697  -6.523   4.614  0.00  0.00    +0.027 C 
ATOM     19  C   UNL     1       8.348  -5.612   5.792  0.00  0.00    +0.124 C 
ENDBRANCH   1  19
BRANCH  10  20
ATOM     20  S   UNL     1       6.945  -3.493   4.274  0.00  0.00    -0.078 S 
BRANCH  20  21
ATOM     21  C   UNL     1       6.728  -1.853   3.541  0.00  0.00    +0.173 C 
BRANCH  21  22
ATOM     22  C   UNL     1       5.391  -1.783   2.851  0.00  0.00    +0.227 C 
ATOM     23  O   UNL     1       4.656  -2.748   2.854  0.00  0.00    -0.275 OA
ATOM     24  N   UNL     1       5.011  -0.649   2.229  0.00  0.00    -0.285 N 
ATOM     25  H   UNL     1       5.710   0.196   2.151  0.00  0.00    +0.155 HD
BRANCH  24  26
ATOM     26  C   UNL     1       3.725  -0.547   1.683  0.00  0.00    +0.037 A 
ATOM     27  C   UNL     1       2.657  -1.191   2.295  0.00  0.00    +0.027 A 
ATOM     28  C   UNL     1       1.388  -1.090   1.758  0.00  0.00    +0.051 A 
ATOM     29  C   UNL     1       1.177  -0.347   0.608  0.00  0.00    +0.166 A 
ATOM     30  C   UNL     1       2.246   0.301  -0.008  0.00  0.00    +0.168 A 
ATOM     31  C   UNL     1       3.517   0.199   0.531  0.00  0.00    +0.072 A 
ATOM     32  O   UNL     1       1.781   0.958  -1.110  0.00  0.00    -0.453 OA
ATOM     33  C   UNL     1       0.354   1.044  -0.934  0.00  0.00    +0.466 C 
ATOM     34  O   UNL     1       0.042  -0.094  -0.110  0.00  0.00    -0.453 OA
ENDBRANCH  24  26
ENDBRANCH  21  22
ENDBRANCH  20  21
ENDBRANCH  10  20
TORSDOF 6
