REMARK  Name = ZINC39666637
REMARK  8 active torsions:
REMARK  status: ('A' for Active; 'I' for Inactive)
REMARK    1  A    between atoms: C_1  and  C_2
REMARK    2  A    between atoms: C_6  and  C_7
REMARK    3  A    between atoms: C_11  and  C_20
REMARK    4  A    between atoms: N_22  and  C_23
REMARK    5  A    between atoms: C_23  and  C_24
REMARK    6  A    between atoms: C_24  and  C_26
REMARK    7  A    between atoms: C_24  and  O_27
REMARK    8  A    between atoms: O_27  and  C_28
REMARK                            x       y       z     vdW  Elec       q    Type
REMARK                         _______ _______ _______ _____ _____    ______ ____
ROOT
ATOM      1  C   UNL     1      -0.090  -0.509   2.236  0.00  0.00    +0.254 C 
ATOM      2  O   UNL     1      -0.018   0.692   2.421  0.00  0.00    -0.269 OA
ATOM      3  N   UNL     1      -0.154  -1.350   3.288  0.00  0.00    -0.296 N 
ATOM      4  C   UNL     1      -0.123  -2.831   3.269  0.00  0.00    +0.121 C 
ATOM      5  C   UNL     1       0.742  -3.219   4.489  0.00  0.00    +0.100 C 
ATOM      6  C   UNL     1       0.640  -2.015   5.441  0.00  0.00    -0.004 C 
ATOM      7  C   UNL     1      -0.263  -1.001   4.724  0.00  0.00    +0.115 C 
ATOM      8  C   UNL     1       2.021  -1.409   5.676  0.00  0.00    -0.010 C 
ATOM      9  C   UNL     1       1.902  -0.250   6.669  0.00  0.00    -0.082 C 
ATOM     10  N   UNL     1       1.340  -0.742   7.933  0.00  0.00    +0.379 N 
ATOM     11  C   UNL     1      -0.024  -1.239   7.715  0.00  0.00    -0.082 C 
ATOM     12  C   UNL     1       0.013  -2.439   6.766  0.00  0.00    -0.010 C 
ATOM     13  H   UNL     1       1.916  -1.491   8.287  0.00  0.00    -0.086 HD
ATOM     14  H   UNL     1       1.319   0.010   8.606  0.00  0.00    -0.086 HD
ENDROOT
BRANCH   1  20
ATOM     15  C   UNL     1      -0.149   1.150  -0.399  0.00  0.00    +0.045 C 
ATOM     16  C   UNL     1      -0.136  -0.355  -0.334  0.00  0.00    -0.031 A 
ATOM     17  C   UNL     1      -0.143  -1.136  -1.466  0.00  0.00    +0.011 A 
ATOM     18  C   UNL     1      -0.130  -2.485  -1.335  0.00  0.00    +0.046 A 
ATOM     19  S   UNL     1      -0.107  -2.739   0.325  0.00  0.00    -0.092 S 
ATOM     20  C   UNL     1      -0.109  -1.041   0.870  0.00  0.00    +0.077 A 
ENDBRANCH   1  20
BRANCH   5  21
ATOM     21  C   UNL     1       0.195  -4.459   5.148  0.00  0.00    +0.218 C 
ATOM     22  O   UNL     1      -0.980  -4.740   5.032  0.00  0.00    -0.275 OA
ATOM     23  N   UNL     1       1.010  -5.256   5.867  0.00  0.00    -0.312 N 
ATOM     24  H   UNL     1       1.949  -5.032   5.960  0.00  0.00    +0.149 HD
BRANCH  23  25
ATOM     25  C   UNL     1       0.478  -6.462   6.507  0.00  0.00    +0.148 C 
BRANCH  25  26
ATOM     26  C   UNL     1       1.602  -7.182   7.254  0.00  0.00    +0.187 C 
ATOM     27  C   UNL     1       1.047  -8.441   7.922  0.00  0.00    +0.053 C 
BRANCH  26  28
ATOM     28  O   UNL     1       2.630  -7.547   6.330  0.00  0.00    -0.486 OA
BRANCH  28  29
ATOM     29  C   UNL     1       3.908  -7.539   6.794  0.00  0.00    +0.139 A 
ATOM     30  C   UNL     1       4.157  -7.319   8.141  0.00  0.00    +0.047 A 
ATOM     31  C   UNL     1       5.456  -7.312   8.610  0.00  0.00    +0.004 A 
ATOM     32  C   UNL     1       6.508  -7.525   7.739  0.00  0.00    +0.002 A 
ATOM     33  C   UNL     1       6.264  -7.744   6.396  0.00  0.00    +0.023 A 
ATOM     34  C   UNL     1       4.965  -7.758   5.922  0.00  0.00    +0.083 A 
ATOM     35 CL   UNL     1       4.658  -8.041   4.237  0.00  0.00    -0.080 Cl
ENDBRANCH  28  29
ENDBRANCH  26  28
ENDBRANCH  25  26
ENDBRANCH  23  25
ENDBRANCH   5  21
TORSDOF 6
