REMARK  Name = ZINC36807364
REMARK  9 active torsions:
REMARK  status: ('A' for Active; 'I' for Inactive)
REMARK    1  A    between atoms: C_1  and  C_2
REMARK    2  A    between atoms: C_3  and  N_14
REMARK    3  A    between atoms: C_4  and  C_13
REMARK    4  A    between atoms: N_5  and  C_7
REMARK    5  A    between atoms: C_15  and  C_17
REMARK    6  A    between atoms: C_17  and  S_18
REMARK    7  A    between atoms: S_18  and  C_19
REMARK    8  A    between atoms: C_22  and  C_25
REMARK    9  A    between atoms: N_23  and  N_24
REMARK                            x       y       z     vdW  Elec       q    Type
REMARK                         _______ _______ _______ _____ _____    ______ ____
ROOT
ATOM      1  N   UNL     1      -0.364  -0.429  -2.431  0.00  0.00    -0.282 N 
ATOM      2  C   UNL     1       0.068   0.764  -2.885  0.00  0.00    +0.228 C 
ATOM      3  O   UNL     1       0.754   1.470  -2.176  0.00  0.00    -0.275 OA
ATOM      4  H   UNL     1      -0.866  -1.018  -3.016  0.00  0.00    +0.155 HD
ENDROOT
BRANCH   1   7
ATOM      5  C   UNL     1      -0.192   1.524  -0.010  0.00  0.00    +0.069 C 
ATOM      6  C   UNL     1      -0.002   0.029   0.005  0.00  0.00    +0.082 A 
ATOM      7  C   UNL     1      -0.087  -0.821  -1.108  0.00  0.00    +0.078 A 
ATOM      8  C   UNL     1       0.145  -2.089  -0.682  0.00  0.00    +0.063 A 
ATOM      9  N   UNL     1       0.369  -2.036   0.659  0.00  0.00    -0.235 N 
ATOM     10  N   UNL     1       0.276  -0.697   1.058  0.00  0.00    -0.170 NA
ATOM     11  C   UNL     1       0.153  -3.329  -1.538  0.00  0.00    +0.068 C 
BRANCH   9  12
ATOM     12  C   UNL     1       0.649  -3.128   1.492  0.00  0.00    +0.066 A 
ATOM     13  C   UNL     1       1.537  -4.111   1.077  0.00  0.00    +0.028 A 
ATOM     14  C   UNL     1       1.811  -5.185   1.901  0.00  0.00    +0.002 A 
ATOM     15  C   UNL     1       1.201  -5.283   3.138  0.00  0.00    +0.000 A 
ATOM     16  C   UNL     1       0.316  -4.306   3.554  0.00  0.00    +0.002 A 
ATOM     17  C   UNL     1       0.042  -3.226   2.738  0.00  0.00    +0.028 A 
ENDBRANCH   9  12
ENDBRANCH   1   7
BRANCH   2  18
ATOM     18  C   UNL     1      -0.302   1.222  -4.272  0.00  0.00    +0.173 C 
BRANCH  18  19
ATOM     19  S   UNL     1       0.424   2.854  -4.584  0.00  0.00    -0.075 S 
BRANCH  19  20
ATOM     20  C   UNL     1      -0.092   3.244  -6.223  0.00  0.00    +0.209 A 
ATOM     21  N   UNL     1      -0.839   2.497  -7.004  0.00  0.00    -0.121 NA
ATOM     22  N   UNL     1      -1.024   3.083  -8.132  0.00  0.00    -0.127 NA
ATOM     23  C   UNL     1      -0.406   4.242  -8.141  0.00  0.00    +0.183 A 
ATOM     24  N   UNL     1       0.205   4.383  -6.917  0.00  0.00    -0.224 N 
BRANCH  23  25
ATOM     25  C   UNL     1      -0.377   5.213  -9.255  0.00  0.00    +0.035 A 
ATOM     26  C   UNL     1       0.834   5.771  -9.668  0.00  0.00    +0.013 A 
ATOM     27  C   UNL     1       0.854   6.676 -10.708  0.00  0.00    +0.001 A 
ATOM     28  C   UNL     1      -0.323   7.033 -11.342  0.00  0.00    +0.001 A 
ATOM     29  C   UNL     1      -1.527   6.485 -10.939  0.00  0.00    +0.016 A 
ATOM     30  C   UNL     1      -1.561   5.573  -9.903  0.00  0.00    +0.029 A 
ATOM     31 BR   UNL     1      -3.207   4.818  -9.357  0.00  0.00    -0.050 Br
ENDBRANCH  23  25
BRANCH  24  32
ATOM     32  N   UNL     1       0.955   5.440  -6.486  0.00  0.00    -0.295 N 
ATOM     33  H   UNL     1       1.913   5.350  -6.787  0.00  0.00    +0.163 HD
ATOM     34  H   UNL     1       0.559   6.315  -6.796  0.00  0.00    +0.163 HD
ENDBRANCH  24  32
ENDBRANCH  19  20
ENDBRANCH  18  19
ENDBRANCH   2  18
TORSDOF 7
