REMARK  Name = ZINC15220355
REMARK  5 active torsions:
REMARK  status: ('A' for Active; 'I' for Inactive)
REMARK    1  A    between atoms: C_4  and  C_7
REMARK    2  A    between atoms: N_11  and  C_20
REMARK    3  A    between atoms: C_12  and  C_14
REMARK    4  A    between atoms: C_23  and  N_27
REMARK    5  A    between atoms: C_25  and  O_26
REMARK                            x       y       z     vdW  Elec       q    Type
REMARK                         _______ _______ _______ _____ _____    ______ ____
ROOT
ATOM      1  C   UNL     1       7.156   2.419   0.087  0.00  0.00    +0.041 C 
ATOM      2  C   UNL     1       5.809   2.559   0.335  0.00  0.00    +0.129 C 
ATOM      3  C   UNL     1       5.119   3.765   0.833  0.00  0.00    +0.275 C 
ATOM      4  O   UNL     1       5.619   4.839   1.110  0.00  0.00    -0.268 OA
ATOM      5  N   UNL     1       3.814   3.424   0.916  0.00  0.00    -0.215 N 
ATOM      6  C   UNL     1       3.683   2.116   0.506  0.00  0.00    +0.140 C 
ATOM      7  N   UNL     1       4.842   1.612   0.174  0.00  0.00    -0.226 NA
ENDROOT
BRANCH   1  11
ATOM      8  C   UNL     1       9.708   5.798   0.262  0.00  0.00    +0.000 A 
ATOM      9  C   UNL     1      10.138   4.584   0.771  0.00  0.00    +0.001 A 
ATOM     10  C   UNL     1       9.314   3.479   0.718  0.00  0.00    +0.008 A 
ATOM     11  C   UNL     1       8.039   3.588   0.148  0.00  0.00    -0.023 A 
ATOM     12  C   UNL     1       7.615   4.819  -0.368  0.00  0.00    +0.008 A 
ATOM     13  C   UNL     1       8.449   5.914  -0.303  0.00  0.00    +0.001 A 
ENDBRANCH   1  11
BRANCH   6  14
ATOM     14  C   UNL     1       2.404   1.379   0.456  0.00  0.00    +0.016 A 
ATOM     15  C   UNL     1       1.235   1.969   0.939  0.00  0.00    +0.011 A 
ATOM     16  C   UNL     1       0.044   1.274   0.890  0.00  0.00    +0.001 A 
ATOM     17  C   UNL     1       0.007  -0.005   0.361  0.00  0.00    +0.000 A 
ATOM     18  C   UNL     1       1.162  -0.595  -0.120  0.00  0.00    +0.001 A 
ATOM     19  C   UNL     1       2.360   0.088  -0.076  0.00  0.00    +0.011 A 
ENDBRANCH   6  14
BRANCH   5  20
ATOM     20  C   UNL     1       2.771   4.259   1.345  0.00  0.00    +0.085 A 
ATOM     21  C   UNL     1       2.420   4.299   2.687  0.00  0.00    +0.030 A 
ATOM     22  C   UNL     1       1.396   5.125   3.108  0.00  0.00    +0.035 A 
ATOM     23  C   UNL     1       0.713   5.907   2.194  0.00  0.00    +0.130 A 
ATOM     24  C   UNL     1       1.054   5.869   0.855  0.00  0.00    +0.080 A 
ATOM     25  C   UNL     1       2.083   5.046   0.425  0.00  0.00    +0.141 A 
BRANCH  23  26
ATOM     26  N   UNL     1      -0.386   6.787   2.651  0.00  0.00    +0.057 N 
ATOM     27  O   UNL     1      -0.989   7.476   1.848  0.00  0.00    -0.126 OA
ATOM     28  O   UNL     1      -0.688   6.821   3.831  0.00  0.00    -0.126 OA
ENDBRANCH  23  26
BRANCH  25  29
ATOM     29  O   UNL     1       2.419   5.007  -0.891  0.00  0.00    -0.505 OA
ATOM     30  H   UNL     1       1.938   4.340  -1.401  0.00  0.00    +0.292 HD
ENDBRANCH  25  29
ENDBRANCH   5  20
TORSDOF 5
