REMARK  Name = ZINC14276490
REMARK  11 active torsions:
REMARK  status: ('A' for Active; 'I' for Inactive)
REMARK    1  A    between atoms: C_1  and  C_2
REMARK    2  A    between atoms: C_2  and  C_3
REMARK    3  A    between atoms: C_2  and  C_4
REMARK    4  A    between atoms: C_2  and  C_5
REMARK    5  A    between atoms: C_12  and  N_16
REMARK    6  A    between atoms: C_13  and  C_14
REMARK    7  A    between atoms: N_16  and  C_17
REMARK    8  A    between atoms: C_17  and  N_19
REMARK    9  A    between atoms: C_20  and  C_22
REMARK   10  A    between atoms: C_25  and  C_27
REMARK   11  A    between atoms: C_31  and  N_33
REMARK                            x       y       z     vdW  Elec       q    Type
REMARK                         _______ _______ _______ _____ _____    ______ ____
ROOT
ATOM      1  C   UNL     1       3.643   9.493   0.020  0.00  0.00    +0.142 C 
ATOM      2  S   UNL     1       2.973  11.069   0.035  0.00  0.00    -0.018 S 
ENDROOT
BRANCH   1   3
ATOM      3  N   UNL     1       2.833   8.416   0.021  0.00  0.00    -0.261 N 
ATOM      4  C   UNL     1       1.495   8.580   0.035  0.00  0.00    +0.285 C 
ATOM      5  O   UNL     1       1.019   9.700   0.045  0.00  0.00    -0.266 OA
ATOM      6  H   UNL     1       3.212   7.524   0.013  0.00  0.00    +0.157 HD
BRANCH   4   7
ATOM      7  C   UNL     1       0.614   7.410   0.036  0.00  0.00    +0.190 A 
ATOM      8  C   UNL     1      -0.764   7.434   0.049  0.00  0.00    +0.055 A 
ATOM      9  C   UNL     1      -1.190   6.103   0.041  0.00  0.00    +0.050 A 
ATOM     10  C   UNL     1      -0.070   5.322   0.032  0.00  0.00    +0.136 A 
ATOM     11  O   UNL     1       1.011   6.120   0.026  0.00  0.00    -0.450 OA
BRANCH  10  12
ATOM     12  C   UNL     1      -0.050   3.845   0.023  0.00  0.00    +0.019 A 
ATOM     13  C   UNL     1      -1.248   3.127   0.031  0.00  0.00    +0.012 A 
ATOM     14  C   UNL     1      -1.222   1.748   0.017  0.00  0.00    +0.003 A 
ATOM     15  C   UNL     1      -0.013   1.076   0.008  0.00  0.00    +0.033 A 
ATOM     16  C   UNL     1       1.178   1.781   0.000  0.00  0.00    +0.127 A 
ATOM     17  C   UNL     1       1.167   3.160   0.008  0.00  0.00    +0.044 A 
BRANCH  16  18
ATOM     18  N   UNL     1       2.467   1.053  -0.015  0.00  0.00    +0.056 N 
ATOM     19  O   UNL     1       2.478  -0.165  -0.022  0.00  0.00    -0.126 OA
ATOM     20  O   UNL     1       3.516   1.672  -0.022  0.00  0.00    -0.126 OA
ENDBRANCH  16  18
ENDBRANCH  10  12
ENDBRANCH   4   7
ENDBRANCH   1   3
BRANCH   1  21
ATOM     21  N   UNL     1       4.981   9.330   0.007  0.00  0.00    -0.290 N 
ATOM     22  H   UNL     1       5.360   8.437  -0.002  0.00  0.00    +0.154 HD
BRANCH  21  29
ATOM     23  C   UNL     1       8.850  14.405   0.378  0.00  0.00    -0.000 C 
ATOM     24  C   UNL     1       9.649  13.412  -0.472  0.00  0.00    +0.009 C 
ATOM     25  C   UNL     1       9.351  11.982  -0.020  0.00  0.00    +0.037 C 
ATOM     26  C   UNL     1       7.841  11.777  -0.005  0.00  0.00    -0.018 A 
ATOM     27  C   UNL     1       6.996  12.832   0.009  0.00  0.00    -0.004 A 
ATOM     28  S   UNL     1       5.378  12.114   0.011  0.00  0.00    -0.077 S 
ATOM     29  C   UNL     1       5.815  10.438   0.006  0.00  0.00    +0.089 A 
ATOM     30  C   UNL     1       7.202  10.473  -0.007  0.00  0.00    +0.084 A 
ATOM     31  C   UNL     1       7.364  14.284   0.014  0.00  0.00    +0.047 C 
BRANCH  23  33
ATOM     32  C   UNL     1       9.131  16.150  -1.387  0.00  0.00    +0.011 C 
ATOM     33  C   UNL     1       9.334  15.828   0.095  0.00  0.00    -0.035 C 
ATOM     34  C   UNL     1       8.534  16.817   0.945  0.00  0.00    +0.011 C 
ATOM     35  C   UNL     1      10.819  15.941   0.443  0.00  0.00    +0.011 C 
ENDBRANCH  23  33
BRANCH  30  36
ATOM     36  C   UNL     1       7.974   9.268  -0.020  0.00  0.00    +0.102 C 
ATOM     37  N   UNL     1       8.588   8.311  -0.031  0.00  0.00    -0.191 NA
ENDBRANCH  30  36
ENDBRANCH  21  29
ENDBRANCH   1  21
TORSDOF 8
