REMARK  Name = ZINC48026483
REMARK  11 active torsions:
REMARK  status: ('A' for Active; 'I' for Inactive)
REMARK    1  A    between atoms: C_1  and  C_2
REMARK    2  A    between atoms: C_7  and  C_8
REMARK    3  A    between atoms: C_8  and  C_10
REMARK    4  A    between atoms: C_8  and  O_16
REMARK    5  A    between atoms: O_16  and  C_17
REMARK    6  A    between atoms: C_17  and  C_18
REMARK    7  A    between atoms: C_18  and  C_20
REMARK    8  A    between atoms: C_18  and  O_31
REMARK    9  A    between atoms: C_20  and  N_21
REMARK   10  A    between atoms: C_24  and  C_27
REMARK   11  A    between atoms: C_27  and  C_28
REMARK                            x       y       z     vdW  Elec       q    Type
REMARK                         _______ _______ _______ _____ _____    ______ ____
ROOT
ATOM      1  C   UNL     1       2.697   0.022   5.300  0.00  0.00    +0.124 C 
ENDROOT
BRANCH   1   2
ATOM      2  O   UNL     1       3.728  -0.746   4.677  0.00  0.00    -0.391 OA
ATOM      3  H   UNL     1       4.296  -0.235   4.084  0.00  0.00    +0.210 HD
ENDBRANCH   1   2
BRANCH   1   4
ATOM      4  C   UNL     1       1.794   0.631   4.224  0.00  0.00    +0.190 C 
BRANCH   4   5
ATOM      5  O   UNL     1       1.117  -0.414   3.524  0.00  0.00    -0.365 OA
BRANCH   5   6
ATOM      6  C   UNL     1       0.243   0.049   2.492  0.00  0.00    +0.179 C 
BRANCH   6  13
ATOM      7  C   UNL     1      -0.376   0.853  -0.213  0.00  0.00    +0.044 C 
ATOM      8  C   UNL     1      -0.130  -0.600   0.104  0.00  0.00    -0.044 A 
ATOM      9  C   UNL     1      -0.195  -1.547  -0.901  0.00  0.00    +0.004 A 
ATOM     10  C   UNL     1       0.031  -2.880  -0.611  0.00  0.00    +0.000 A 
ATOM     11  C   UNL     1       0.322  -3.265   0.685  0.00  0.00    +0.000 A 
ATOM     12  C   UNL     1       0.388  -2.318   1.689  0.00  0.00    +0.007 A 
ATOM     13  C   UNL     1       0.166  -0.985   1.398  0.00  0.00    -0.012 A 
ENDBRANCH   6  13
BRANCH   6  14
ATOM     14  C   UNL     1      -1.132   0.278   3.064  0.00  0.00    -0.014 A 
ATOM     15  C   UNL     1      -1.689  -0.653   3.921  0.00  0.00    +0.006 A 
ATOM     16  C   UNL     1      -2.950  -0.442   4.445  0.00  0.00    +0.000 A 
ATOM     17  C   UNL     1      -3.655   0.700   4.113  0.00  0.00    +0.000 A 
ATOM     18  C   UNL     1      -3.098   1.631   3.257  0.00  0.00    +0.000 A 
ATOM     19  C   UNL     1      -1.835   1.423   2.736  0.00  0.00    +0.006 A 
ENDBRANCH   6  14
ENDBRANCH   5   6
ENDBRANCH   4   5
ENDBRANCH   1   4
BRANCH   1  20
ATOM     20  C   UNL     1       3.326   1.142   6.131  0.00  0.00    -0.045 C 
BRANCH  20  21
ATOM     21  N   UNL     1       4.193   0.558   7.163  0.00  0.00    +0.381 N 
ATOM     22  C   UNL     1       3.376  -0.221   8.102  0.00  0.00    -0.078 C 
ATOM     23  C   UNL     1       4.283  -0.898   9.132  0.00  0.00    -0.015 C 
ATOM     24  C   UNL     1       5.063   0.173   9.899  0.00  0.00    -0.006 C 
ATOM     25  C   UNL     1       5.853   1.027   8.903  0.00  0.00    -0.015 C 
ATOM     26  C   UNL     1       4.888   1.633   7.881  0.00  0.00    -0.078 C 
ATOM     27  H   UNL     1       4.872  -0.048   6.728  0.00  0.00    -0.082 HD
BRANCH  24  28
ATOM     28  C   UNL     1       6.029  -0.499  10.876  0.00  0.00    +0.099 C 
BRANCH  28  29
ATOM     29  C   UNL     1       6.707   0.553  11.716  0.00  0.00    +0.211 C 
ATOM     30  O   UNL     1       6.443   1.725  11.550  0.00  0.00    -0.276 OA
ATOM     31  N   UNL     1       7.607   0.191  12.653  0.00  0.00    -0.329 N 
ATOM     32  H   UNL     1       7.818  -0.746  12.786  0.00  0.00    +0.145 HD
ATOM     33  H   UNL     1       8.043   0.868  13.193  0.00  0.00    +0.145 HD
ENDBRANCH  28  29
ENDBRANCH  24  28
ENDBRANCH  20  21
ENDBRANCH   1  20
TORSDOF 10
