REMARK  Name = ZINC43746931
REMARK  7 active torsions:
REMARK  status: ('A' for Active; 'I' for Inactive)
REMARK    1  A    between atoms: C_1  and  C_2
REMARK    2  A    between atoms: C_6  and  O_30
REMARK    3  A    between atoms: C_12  and  C_13
REMARK    4  A    between atoms: C_13  and  C_14
REMARK    5  A    between atoms: N_16  and  C_17
REMARK    6  A    between atoms: C_17  and  C_18
REMARK    7  A    between atoms: O_30  and  C_31
REMARK                            x       y       z     vdW  Elec       q    Type
REMARK                         _______ _______ _______ _____ _____    ______ ____
ROOT
ATOM      1  C   UNL     1       0.025   0.016   2.486  0.00  0.00    +0.138 C 
ENDROOT
BRANCH   1  13
ATOM      2  C   UNL     1      -0.018   1.503   0.010  0.00  0.00    +0.045 C 
ATOM      3  C   UNL     1       0.002  -0.004   0.002  0.00  0.00    -0.029 A 
ATOM      4  C   UNL     1       0.006  -0.749  -1.258  0.00  0.00    +0.022 A 
ATOM      5  C   UNL     1      -0.008  -0.083  -2.490  0.00  0.00    +0.035 A 
ATOM      6  C   UNL     1      -0.003  -0.802  -3.650  0.00  0.00    +0.083 A 
ATOM      7  C   UNL     1       0.016  -2.196  -3.617  0.00  0.00    +0.142 A 
ATOM      8  C   UNL     1       0.030  -2.871  -2.408  0.00  0.00    +0.094 A 
ATOM      9  C   UNL     1       0.026  -2.156  -1.219  0.00  0.00    +0.143 A 
ATOM     10  O   UNL     1       0.041  -2.795  -0.029  0.00  0.00    -0.422 OA
ATOM     11  C   UNL     1       0.038  -2.117   1.129  0.00  0.00    +0.341 A 
ATOM     12  O   UNL     1       0.052  -2.736   2.178  0.00  0.00    -0.245 OA
ATOM     13  C   UNL     1       0.023  -0.708   1.164  0.00  0.00    +0.049 A 
ATOM     14 CL   UNL     1      -0.021   0.024  -5.177  0.00  0.00    -0.080 Cl
BRANCH   7  15
ATOM     15  O   UNL     1       0.019  -2.897  -4.779  0.00  0.00    -0.494 OA
ATOM     16  C   UNL     1       0.039  -4.323  -4.677  0.00  0.00    +0.277 C 
ENDBRANCH   7  15
ENDBRANCH   1  13
BRANCH   1  17
ATOM     17  C   UNL     1      -1.388   0.129   2.999  0.00  0.00    +0.218 C 
ATOM     18  O   UNL     1      -2.306  -0.333   2.355  0.00  0.00    -0.275 OA
ATOM     19  N   UNL     1      -1.631   0.743   4.174  0.00  0.00    -0.315 N 
ATOM     20  H   UNL     1      -0.896   1.112   4.689  0.00  0.00    +0.149 HD
BRANCH  19  21
ATOM     21  C   UNL     1      -3.004   0.852   4.673  0.00  0.00    +0.106 C 
BRANCH  21  22
ATOM     22  C   UNL     1      -3.002   1.587   6.015  0.00  0.00    -0.008 C 
ATOM     23  C   UNL     1      -2.256   0.747   7.053  0.00  0.00    +0.002 C 
ATOM     24  C   UNL     1      -2.319   1.468   8.404  0.00  0.00    -0.018 C 
ATOM     25  C   UNL     1      -3.784   1.676   8.784  0.00  0.00    -0.078 C 
ATOM     26  N   UNL     1      -4.460   2.499   7.770  0.00  0.00    +0.382 N 
ATOM     27  C   UNL     1      -4.446   1.814   6.473  0.00  0.00    -0.064 C 
ATOM     28  C   UNL     1      -5.151   2.674   5.419  0.00  0.00    -0.015 C 
ATOM     29  C   UNL     1      -6.594   2.942   5.851  0.00  0.00    -0.003 C 
ATOM     30  C   UNL     1      -6.577   3.623   7.223  0.00  0.00    -0.019 C 
ATOM     31  C   UNL     1      -5.844   2.721   8.212  0.00  0.00    -0.078 C 
ATOM     32  H   UNL     1      -3.986   3.387   7.687  0.00  0.00    -0.081 HD
ENDBRANCH  21  22
ENDBRANCH  19  21
ENDBRANCH   1  17
TORSDOF 5
