REMARK  Name = ZINC39707571
REMARK  3 active torsions:
REMARK  status: ('A' for Active; 'I' for Inactive)
REMARK    1  A    between atoms: C_6  and  C_7
REMARK    2  A    between atoms: C_19  and  N_23
REMARK    3  A    between atoms: C_20  and  C_21
REMARK                            x       y       z     vdW  Elec       q    Type
REMARK                         _______ _______ _______ _____ _____    ______ ____
ROOT
ATOM      1  C   UNL     1      -1.293  -0.775   0.011  0.00  0.00    +0.085 C 
ATOM      2  C   UNL     1      -1.350  -1.666   1.258  0.00  0.00    +0.171 C 
ATOM      3  C   UNL     1      -1.677  -0.833   2.463  0.00  0.00    +0.233 C 
ATOM      4  O   UNL     1      -0.942   0.081   2.768  0.00  0.00    -0.274 OA
ATOM      5  N   UNL     1      -2.766  -1.077   3.210  0.00  0.00    -0.238 N 
ATOM      6  C   UNL     1      -3.614  -2.072   2.905  0.00  0.00    +0.332 C 
ATOM      7  O   UNL     1      -4.574  -2.274   3.624  0.00  0.00    -0.250 OA
ATOM      8  N   UNL     1      -3.429  -2.848   1.827  0.00  0.00    -0.131 NA
ATOM      9  C   UNL     1      -2.414  -2.711   1.026  0.00  0.00    +0.204 C 
ATOM     10  O   UNL     1      -2.277  -3.498  -0.065  0.00  0.00    -0.428 OA
ATOM     11  C   UNL     1      -1.851  -2.898  -1.198  0.00  0.00    +0.200 C 
ATOM     12  C   UNL     1      -1.373  -1.636  -1.221  0.00  0.00    +0.095 C 
ATOM     13  H   UNL     1      -2.943  -0.522   3.986  0.00  0.00    +0.159 HD
ENDROOT
BRANCH   1  19
ATOM     14  C   UNL     1      -0.017   1.378   0.010  0.00  0.00    +0.006 A 
ATOM     15  C   UNL     1       1.171   2.086   0.002  0.00  0.00    +0.022 A 
ATOM     16  C   UNL     1       2.378   1.412  -0.013  0.00  0.00    +0.059 A 
ATOM     17  C   UNL     1       2.397   0.027  -0.021  0.00  0.00    +0.060 A 
ATOM     18  C   UNL     1       1.208  -0.680  -0.013  0.00  0.00    +0.025 A 
ATOM     19  C   UNL     1       0.002  -0.004   0.002  0.00  0.00    -0.036 A 
ATOM     20 CL   UNL     1       3.912  -0.821  -0.040  0.00  0.00    -0.082 Cl
ATOM     21 CL   UNL     1       3.869   2.301  -0.023  0.00  0.00    -0.082 Cl
ENDBRANCH   1  19
BRANCH  11  22
ATOM     22  N   UNL     1      -1.907  -3.602  -2.376  0.00  0.00    -0.328 N 
ATOM     23  H   UNL     1      -2.247  -4.510  -2.382  0.00  0.00    +0.145 HD
ATOM     24  H   UNL     1      -1.606  -3.191  -3.201  0.00  0.00    +0.145 HD
ENDBRANCH  11  22
BRANCH  12  25
ATOM     25  C   UNL     1      -0.924  -1.093  -2.468  0.00  0.00    +0.100 C 
ATOM     26  N   UNL     1      -0.568  -0.663  -3.457  0.00  0.00    -0.191 NA
ENDBRANCH  12  25
TORSDOF 3
