REMARK  Name = ZINC09100941
REMARK  11 active torsions:
REMARK  status: ('A' for Active; 'I' for Inactive)
REMARK    1  A    between atoms: C_1  and  C_2
REMARK    2  A    between atoms: C_2  and  C_4
REMARK    3  A    between atoms: C_2  and  N_53
REMARK    4  A    between atoms: C_7  and  S_16
REMARK    5  A    between atoms: N_8  and  C_9
REMARK    6  A    between atoms: S_16  and  C_17
REMARK    7  A    between atoms: C_17  and  C_19
REMARK    8  A    between atoms: C_17  and  C_20
REMARK    9  A    between atoms: N_22  and  C_23
REMARK   10  A    between atoms: C_31  and  N_53
REMARK   11  A    between atoms: C_32  and  N_53
REMARK                            x       y       z     vdW  Elec       q    Type
REMARK                         _______ _______ _______ _____ _____    ______ ____
ROOT
ATOM      1  C   UNL     1      -1.462   3.522   2.482  0.00  0.00    +0.125 A 
ATOM      2  N   UNL     1      -2.574   3.031   2.953  0.00  0.00    -0.135 NA
ATOM      3  N   UNL     1      -2.898   3.633   4.040  0.00  0.00    -0.122 NA
ATOM      4  C   UNL     1      -2.003   4.551   4.327  0.00  0.00    +0.197 A 
ATOM      5  N   UNL     1      -1.054   4.505   3.343  0.00  0.00    -0.275 N 
ENDROOT
BRANCH   5   6
ATOM      6  C   UNL     1       0.095   5.302   3.237  0.00  0.00    +0.050 A 
ATOM      7  C   UNL     1       1.353   4.724   3.333  0.00  0.00    +0.028 A 
ATOM      8  C   UNL     1       2.484   5.510   3.223  0.00  0.00    +0.022 A 
ATOM      9  C   UNL     1       2.363   6.874   3.028  0.00  0.00    +0.041 A 
ATOM     10  C   UNL     1       1.110   7.454   2.937  0.00  0.00    +0.022 A 
ATOM     11  C   UNL     1      -0.024   6.671   3.041  0.00  0.00    +0.028 A 
ATOM     12 CL   UNL     1       3.786   7.860   2.897  0.00  0.00    -0.084 Cl
ENDBRANCH   5   6
BRANCH   1  14
ATOM     13  C   UNL     1      -1.505   3.618   0.004  0.00  0.00    -0.005 C 
ATOM     14  C   UNL     1      -0.754   3.084   1.226  0.00  0.00    -0.003 C 
BRANCH  14  17
ATOM     15  C   UNL     1      -0.028   1.153  -0.041  0.00  0.00    -0.096 C 
ATOM     16  C   UNL     1      -0.081   1.064   2.378  0.00  0.00    -0.096 C 
ATOM     17  N   UNL     1      -0.740   1.607   1.172  0.00  0.00    +0.382 N 
ATOM     18  H   UNL     1      -1.708   1.266   1.138  0.00  0.00    -0.082 HD
ENDBRANCH  14  17
ENDBRANCH   1  14
BRANCH   4  19
ATOM     19  S   UNL     1      -2.018   5.630   5.720  0.00  0.00    -0.073 S 
BRANCH  19  20
ATOM     20  C   UNL     1      -3.543   5.081   6.526  0.00  0.00    +0.137 C 
ATOM     21  C   UNL     1      -3.378   3.636   7.000  0.00  0.00    +0.029 C 
BRANCH  20  22
ATOM     22  C   UNL     1      -3.833   5.968   7.710  0.00  0.00    +0.230 C 
ATOM     23  O   UNL     1      -2.944   6.628   8.205  0.00  0.00    -0.274 OA
ATOM     24  N   UNL     1      -5.080   6.028   8.218  0.00  0.00    -0.283 N 
ATOM     25  H   UNL     1      -5.804   5.552   7.783  0.00  0.00    +0.155 HD
BRANCH  24  26
ATOM     26  C   UNL     1      -5.329   6.779   9.374  0.00  0.00    +0.052 A 
ATOM     27  C   UNL     1      -4.630   7.956   9.603  0.00  0.00    +0.026 A 
ATOM     28  C   UNL     1      -4.878   8.694  10.744  0.00  0.00    +0.022 A 
ATOM     29  C   UNL     1      -5.823   8.261  11.658  0.00  0.00    +0.042 A 
ATOM     30  C   UNL     1      -6.521   7.089  11.433  0.00  0.00    +0.041 A 
ATOM     31  C   UNL     1      -6.282   6.349  10.290  0.00  0.00    +0.064 A 
ATOM     32 CL   UNL     1      -7.163   4.881  10.004  0.00  0.00    -0.082 Cl
ATOM     33 CL   UNL     1      -6.132   9.192  13.091  0.00  0.00    -0.083 Cl
ENDBRANCH  24  26
ENDBRANCH  20  22
ENDBRANCH  19  20
ENDBRANCH   4  19
TORSDOF 7
