REMARK  Name = ZINC01439882
REMARK  7 active torsions:
REMARK  status: ('A' for Active; 'I' for Inactive)
REMARK    1  A    between atoms: C_1  and  C_2
REMARK    2  A    between atoms: C_2  and  O_3
REMARK    3  A    between atoms: O_3  and  C_4
REMARK    4  A    between atoms: C_7  and  C_12
REMARK    5  A    between atoms: C_9  and  O_10
REMARK    6  A    between atoms: O_10  and  C_11
REMARK    7  A    between atoms: C_17  and  C_27
REMARK                            x       y       z     vdW  Elec       q    Type
REMARK                         _______ _______ _______ _____ _____    ______ ____
ROOT
ATOM      1  C   UNL     1       0.425   1.281   0.205  0.00  0.00    +0.032 C 
ATOM      2  C   UNL     1      -0.399   1.768  -0.985  0.00  0.00    +0.059 C 
ATOM      3  C   UNL     1       0.182   1.218  -2.278  0.00  0.00    +0.017 C 
ATOM      4  C   UNL     1       1.502   1.001  -2.392  0.00  0.00    +0.036 C 
ATOM      5  C   UNL     1       2.208   0.452  -3.610  0.00  0.00    +0.137 C 
ATOM      6  N   UNL     1       1.388   0.398  -4.801  0.00  0.00    -0.331 N 
ATOM      7  C   UNL     1       0.268  -0.428  -4.863  0.00  0.00    +0.049 A 
ATOM      8  C   UNL     1       0.226  -1.523  -5.713  0.00  0.00    +0.025 A 
ATOM      9  C   UNL     1      -0.873  -2.363  -5.686  0.00  0.00    +0.002 A 
ATOM     10  C   UNL     1      -1.924  -2.116  -4.822  0.00  0.00    +0.002 A 
ATOM     11  C   UNL     1      -1.896  -1.010  -3.989  0.00  0.00    +0.025 A 
ATOM     12  C   UNL     1      -0.806  -0.160  -4.029  0.00  0.00    +0.052 A 
ATOM     13  N   UNL     1      -0.733   0.995  -3.256  0.00  0.00    -0.316 N 
ATOM     14  C   UNL     1       2.367   1.277  -1.307  0.00  0.00    +0.163 C 
ATOM     15  O   UNL     1       3.561   1.101  -1.449  0.00  0.00    -0.292 OA
ATOM     16  C   UNL     1       1.862   1.780   0.012  0.00  0.00    +0.088 C 
ATOM     17  H   UNL     1       1.622   0.944  -5.567  0.00  0.00    +0.147 HD
ATOM     18  H   UNL     1      -1.384   1.693  -3.430  0.00  0.00    +0.152 HD
ENDROOT
BRANCH   5  19
ATOM     19  C   UNL     1       2.689  -0.941  -3.296  0.00  0.00    -0.001 A 
ATOM     20  C   UNL     1       2.164  -1.625  -2.215  0.00  0.00    +0.056 A 
ATOM     21  C   UNL     1       2.600  -2.908  -1.927  0.00  0.00    +0.167 A 
ATOM     22  C   UNL     1       3.577  -3.503  -2.723  0.00  0.00    +0.168 A 
ATOM     23  C   UNL     1       4.103  -2.811  -3.801  0.00  0.00    +0.070 A 
ATOM     24  C   UNL     1       3.658  -1.531  -4.086  0.00  0.00    +0.050 A 
ATOM     25 CL   UNL     1       4.319  -0.666  -5.438  0.00  0.00    -0.083 Cl
ATOM     26  O   UNL     1       3.837  -4.751  -2.235  0.00  0.00    -0.453 OA
ATOM     27  C   UNL     1       2.721  -5.070  -1.383  0.00  0.00    +0.466 C 
ATOM     28  O   UNL     1       2.249  -3.784  -0.941  0.00  0.00    -0.453 OA
ENDBRANCH   5  19
BRANCH   1  32
ATOM     29  C   UNL     1      -1.186   2.874   3.833  0.00  0.00    +0.162 A 
ATOM     30  C   UNL     1      -0.747   3.727   2.833  0.00  0.00    +0.050 A 
ATOM     31  C   UNL     1      -0.227   3.209   1.661  0.00  0.00    +0.008 A 
ATOM     32  C   UNL     1      -0.143   1.841   1.484  0.00  0.00    -0.040 A 
ATOM     33  C   UNL     1      -0.584   0.984   2.476  0.00  0.00    +0.053 A 
ATOM     34  C   UNL     1      -1.101   1.497   3.654  0.00  0.00    +0.162 A 
BRANCH  34  35
ATOM     35  O   UNL     1      -1.531   0.656   4.633  0.00  0.00    -0.491 OA
ATOM     36  C   UNL     1      -1.413  -0.746   4.381  0.00  0.00    +0.277 C 
ENDBRANCH  34  35
BRANCH  29  37
ATOM     37  O   UNL     1      -1.698   3.382   4.985  0.00  0.00    -0.489 OA
BRANCH  37  39
ATOM     38  C   UNL     1      -2.355   5.187   6.453  0.00  0.00    +0.048 C 
ATOM     39  C   UNL     1      -1.754   4.806   5.098  0.00  0.00    +0.226 C 
ENDBRANCH  37  39
ENDBRANCH  29  37
ENDBRANCH   1  32
TORSDOF 5
