REMARK  Name = ZINC04188447
REMARK  11 active torsions:
REMARK  status: ('A' for Active; 'I' for Inactive)
REMARK    1  A    between atoms: C_1  and  C_2
REMARK    2  A    between atoms: C_2  and  C_3
REMARK    3  A    between atoms: C_2  and  C_4
REMARK    4  A    between atoms: C_4  and  C_5
REMARK    5  A    between atoms: C_5  and  N_6
REMARK    6  A    between atoms: C_7  and  C_9
REMARK    7  A    between atoms: C_9  and  N_10
REMARK    8  A    between atoms: N_10  and  C_11
REMARK    9  A    between atoms: C_18  and  C_20
REMARK   10  A    between atoms: C_21  and  N_28
REMARK   11  A    between atoms: C_22  and  C_25
REMARK                            x       y       z     vdW  Elec       q    Type
REMARK                         _______ _______ _______ _____ _____    ______ ____
ROOT
ATOM      1  N   UNL     1      -1.191   1.871   0.018  0.00  0.00    -0.255 N 
ATOM      2  C   UNL     1      -0.014   1.213   0.009  0.00  0.00    +0.261 C 
ATOM      3  O   UNL     1       0.002  -0.004   0.002  0.00  0.00    -0.269 OA
ENDROOT
BRANCH   1   4
ATOM      4  C   UNL     1      -1.210   3.271   0.026  0.00  0.00    +0.072 A 
ATOM      5  C   UNL     1      -1.219   3.973  -1.172  0.00  0.00    +0.026 A 
ATOM      6  C   UNL     1      -1.243   5.354  -1.161  0.00  0.00    +0.002 A 
ATOM      7  C   UNL     1      -1.247   6.039   0.040  0.00  0.00    +0.003 A 
ATOM      8  C   UNL     1      -1.232   5.344   1.236  0.00  0.00    +0.040 A 
ATOM      9  C   UNL     1      -1.213   3.961   1.233  0.00  0.00    +0.145 A 
ATOM     10  F   UNL     1      -1.198   3.282   2.401  0.00  0.00    -0.204 F 
ENDBRANCH   1   4
BRANCH   2  11
ATOM     11  C   UNL     1       1.243   1.962   0.001  0.00  0.00    +0.116 A 
ATOM     12  C   UNL     1       2.556   1.487  -0.009  0.00  0.00    +0.076 A 
ATOM     13  C   UNL     1       3.497   2.518  -0.018  0.00  0.00    +0.155 A 
ATOM     14  N   UNL     1       3.084   3.766  -0.007  0.00  0.00    -0.203 NA
ATOM     15  S   UNL     1       1.508   3.723   0.008  0.00  0.00    +0.019 S 
BRANCH  13  16
ATOM     16  C   UNL     1       4.939   2.210  -0.034  0.00  0.00    +0.262 C 
ATOM     17  O   UNL     1       5.313   1.053  -0.043  0.00  0.00    -0.269 OA
ATOM     18  N   UNL     1       5.841   3.211  -0.037  0.00  0.00    -0.324 N 
ATOM     19  H   UNL     1       5.542   4.134  -0.029  0.00  0.00    +0.145 HD
ATOM     20  H   UNL     1       6.790   3.008  -0.047  0.00  0.00    +0.145 HD
ENDBRANCH  13  16
BRANCH  12  21
ATOM     21  N   UNL     1       2.889   0.139  -0.011  0.00  0.00    -0.355 N 
ATOM     22  H   UNL     1       2.189  -0.533  -0.007  0.00  0.00    +0.142 HD
ATOM     23  H   UNL     1       3.821  -0.130  -0.018  0.00  0.00    +0.142 HD
ENDBRANCH  12  21
ENDBRANCH   2  11
BRANCH   1  24
ATOM     24  C   UNL     1      -2.449   1.121   0.020  0.00  0.00    +0.209 C 
BRANCH  24  26
ATOM     25  N   UNL     1      -4.011   0.177   1.689  0.00  0.00    -0.314 N 
ATOM     26  C   UNL     1      -2.874   0.857   1.441  0.00  0.00    +0.231 C 
ATOM     27  O   UNL     1      -2.193   1.255   2.362  0.00  0.00    -0.274 OA
ATOM     28  H   UNL     1      -4.556  -0.141   0.953  0.00  0.00    +0.149 HD
BRANCH  25  29
ATOM     29  C   UNL     1      -4.424  -0.080   3.071  0.00  0.00    +0.104 C 
BRANCH  29  30
ATOM     30  C   UNL     1      -5.739  -0.863   3.073  0.00  0.00    +0.022 C 
BRANCH  30  32
ATOM     31  C   UNL     1      -7.545  -1.804   4.521  0.00  0.00    +0.007 C 
ATOM     32  C   UNL     1      -6.170  -1.132   4.516  0.00  0.00    -0.016 C 
ATOM     33  C   UNL     1      -5.150  -2.052   5.190  0.00  0.00    +0.007 C 
ENDBRANCH  30  32
ENDBRANCH  29  30
ENDBRANCH  25  29
ENDBRANCH  24  26
ENDBRANCH   1  24
TORSDOF 9
