REMARK  Name = ZINC15869722
REMARK  5 active torsions:
REMARK  status: ('A' for Active; 'I' for Inactive)
REMARK    1  A    between atoms: C_7  and  C_8
REMARK    2  A    between atoms: C_7  and  N_69
REMARK    3  A    between atoms: C_8  and  C_9
REMARK    4  A    between atoms: C_9  and  N_10
REMARK    5  A    between atoms: C_11  and  C_13
REMARK                            x       y       z     vdW  Elec       q    Type
REMARK                         _______ _______ _______ _____ _____    ______ ____
ROOT
ATOM      1  C   UNL     1       6.995   1.919   1.121  0.00  0.00    +0.092 C 
ATOM      2  C   UNL     1       7.688   2.251  -0.204  0.00  0.00    +0.016 C 
ATOM      3  C   UNL     1       6.893   1.629  -1.356  0.00  0.00    +0.020 C 
ATOM      4  C   UNL     1       5.457   2.158  -1.322  0.00  0.00    +0.107 C 
ATOM      5  N   UNL     1       4.838   1.815  -0.036  0.00  0.00    -0.307 N 
ATOM      6  C   UNL     1       5.556   2.440   1.083  0.00  0.00    +0.119 C 
ATOM      7  C   UNL     1       3.499   2.163  -0.021  0.00  0.00    +0.184 A 
ATOM      8  N   UNL     1       2.448   1.388  -0.013  0.00  0.00    -0.139 NA
ATOM      9  N   UNL     1       1.159   1.912   0.001  0.00  0.00    -0.169 N 
ATOM     10  C   UNL     1      -0.015   1.217   0.009  0.00  0.00    +0.279 A 
ATOM     11  O   UNL     1       0.002  -0.004   0.002  0.00  0.00    -0.265 OA
ATOM     12  C   UNL     1      -1.240   1.898   0.018  0.00  0.00    +0.040 A 
ATOM     13  C   UNL     1      -1.246   3.270   0.036  0.00  0.00    +0.053 A 
ATOM     14  N   UNL     1      -0.079   3.918   0.025  0.00  0.00    -0.226 NA
ATOM     15  C   UNL     1       1.058   3.275   0.009  0.00  0.00    +0.201 A 
ATOM     16  S   UNL     1       2.761   3.790  -0.007  0.00  0.00    -0.013 S 
ATOM     17  C   UNL     1      -2.513   4.081   0.070  0.00  0.00    +0.056 C 
ATOM     18  C   UNL     1      -3.706   3.226  -0.367  0.00  0.00    +0.006 C 
ATOM     19  C   UNL     1      -3.694   1.933   0.457  0.00  0.00    +0.005 C 
ATOM     20  C   UNL     1      -2.506   1.084   0.008  0.00  0.00    +0.042 C 
ENDROOT
BRANCH   1  22
ATOM     21  N   UNL     1       7.304   2.425   3.522  0.00  0.00    -0.315 N 
ATOM     22  C   UNL     1       7.738   2.576   2.255  0.00  0.00    +0.218 C 
ATOM     23  O   UNL     1       8.726   3.241   2.029  0.00  0.00    -0.275 OA
ATOM     24  H   UNL     1       6.513   1.892   3.704  0.00  0.00    +0.149 HD
BRANCH  21  25
ATOM     25  C   UNL     1       8.026   3.063   4.625  0.00  0.00    +0.102 C 
BRANCH  25  26
ATOM     26  C   UNL     1       7.330   2.735   5.948  0.00  0.00    +0.000 C 
BRANCH  26  27
ATOM     27  C   UNL     1       8.084   3.401   7.100  0.00  0.00    -0.077 C 
BRANCH  27  34
ATOM     28  C   UNL     1       5.614   4.908  10.442  0.00  0.00    -0.002 C 
ATOM     29  C   UNL     1       6.963   5.041  10.983  0.00  0.00    -0.002 C 
ATOM     30  C   UNL     1       8.043   4.956   9.885  0.00  0.00    -0.019 C 
ATOM     31  C   UNL     1       8.242   3.509   9.523  0.00  0.00    -0.079 C 
ATOM     32  C   UNL     1       6.029   3.603   8.382  0.00  0.00    -0.079 C 
ATOM     33  C   UNL     1       5.398   3.547   9.747  0.00  0.00    -0.019 C 
ATOM     34  N   UNL     1       7.419   3.032   8.360  0.00  0.00    +0.380 N 
ATOM     35  H   UNL     1       7.350   2.009   8.410  0.00  0.00    -0.082 HD
ENDBRANCH  27  34
ENDBRANCH  26  27
ENDBRANCH  25  26
ENDBRANCH  21  25
ENDBRANCH   1  22
TORSDOF 5
