REMARK  Name = ZINC20830511
REMARK  9 active torsions:
REMARK  status: ('A' for Active; 'I' for Inactive)
REMARK    1  A    between atoms: C_1  and  O_2
REMARK    2  A    between atoms: O_2  and  C_3
REMARK    3  A    between atoms: C_5  and  N_10
REMARK    4  A    between atoms: C_11  and  C_13
REMARK    5  A    between atoms: C_13  and  C_14
REMARK    6  A    between atoms: C_14  and  S_15
REMARK    7  A    between atoms: S_15  and  C_16
REMARK    8  A    between atoms: C_19  and  C_22
REMARK    9  A    between atoms: N_20  and  N_21
REMARK                            x       y       z     vdW  Elec       q    Type
REMARK                         _______ _______ _______ _____ _____    ______ ____
ROOT
ATOM      1  S   UNL     1       5.232   0.853   0.345  0.00  0.00    -0.084 S 
ENDROOT
BRANCH   1   2
ATOM      2  C   UNL     1       6.397   2.148   0.081  0.00  0.00    +0.209 A 
ATOM      3  N   UNL     1       6.119   3.394  -0.232  0.00  0.00    -0.121 NA
ATOM      4  N   UNL     1       7.205   4.072  -0.346  0.00  0.00    -0.127 NA
ATOM      5  C   UNL     1       8.242   3.299  -0.124  0.00  0.00    +0.182 A 
ATOM      6  N   UNL     1       7.756   2.043   0.157  0.00  0.00    -0.224 N 
BRANCH   5   7
ATOM      7  C   UNL     1       9.664   3.703  -0.166  0.00  0.00    +0.021 A 
ATOM      8  C   UNL     1      10.011   5.053  -0.113  0.00  0.00    +0.013 A 
ATOM      9  C   UNL     1      11.339   5.423  -0.148  0.00  0.00    +0.016 A 
ATOM     10  C   UNL     1      12.327   4.458  -0.247  0.00  0.00    +0.018 A 
ATOM     11  C   UNL     1      11.989   3.117  -0.306  0.00  0.00    +0.016 A 
ATOM     12  C   UNL     1      10.664   2.734  -0.266  0.00  0.00    +0.013 A 
ATOM     13 BR   UNL     1      14.145   4.974  -0.302  0.00  0.00    -0.050 Br
ENDBRANCH   5   7
BRANCH   6  14
ATOM     14  N   UNL     1       8.483   0.924   0.450  0.00  0.00    -0.295 N 
ATOM     15  H   UNL     1       9.581   0.973   0.479  0.00  0.00    +0.163 HD
ATOM     16  H   UNL     1       7.969  -0.027   0.656  0.00  0.00    +0.163 HD
ENDBRANCH   6  14
ENDBRANCH   1   2
BRANCH   1  17
ATOM     17  C   UNL     1       3.688   1.757   0.072  0.00  0.00    +0.086 C 
BRANCH  17  18
ATOM     18  C   UNL     1       2.502   0.808   0.253  0.00  0.00    +0.107 C 
BRANCH  18  20
ATOM     19  N   UNL     1       0.034   0.924   0.133  0.00  0.00    -0.285 N 
ATOM     20  C   UNL     1       1.217   1.561   0.026  0.00  0.00    +0.218 C 
ATOM     21  O   UNL     1       1.246   2.741  -0.253  0.00  0.00    -0.275 OA
ATOM     22  H   UNL     1       0.008  -0.162   0.306  0.00  0.00    +0.155 HD
BRANCH  19  25
ATOM     23  C   UNL     1      -3.497   1.729  -0.526  0.00  0.00    +0.140 A 
ATOM     24  C   UNL     1      -2.314   1.013  -0.420  0.00  0.00    +0.070 A 
ATOM     25  C   UNL     1      -1.161   1.644   0.025  0.00  0.00    +0.037 A 
ATOM     26  C   UNL     1      -1.196   2.990   0.368  0.00  0.00    +0.025 A 
ATOM     27  C   UNL     1      -2.374   3.702   0.257  0.00  0.00    +0.025 A 
ATOM     28  C   UNL     1      -3.525   3.075  -0.186  0.00  0.00    +0.083 A 
ATOM     29 CL   UNL     1      -5.005   3.971  -0.319  0.00  0.00    -0.080 Cl
BRANCH  23  31
ATOM     30  C   UNL     1      -4.525  -0.273  -1.294  0.00  0.00    +0.277 C 
ATOM     31  O   UNL     1      -4.627   1.113  -0.962  0.00  0.00    -0.494 OA
ENDBRANCH  23  31
ENDBRANCH  19  25
ENDBRANCH  18  20
ENDBRANCH  17  18
ENDBRANCH   1  17
TORSDOF 8
