REMARK  Name = ZINC39021611
REMARK  8 active torsions:
REMARK  status: ('A' for Active; 'I' for Inactive)
REMARK    1  A    between atoms: C_1  and  C_2
REMARK    2  A    between atoms: C_4  and  O_31
REMARK    3  A    between atoms: C_11  and  C_16
REMARK    4  A    between atoms: C_13  and  C_15
REMARK    5  A    between atoms: C_16  and  C_17
REMARK    6  A    between atoms: N_19  and  C_20
REMARK    7  A    between atoms: C_20  and  C_21
REMARK    8  A    between atoms: C_21  and  C_22
REMARK                            x       y       z     vdW  Elec       q    Type
REMARK                         _______ _______ _______ _____ _____    ______ ____
ROOT
ATOM      1  C   UNL     1      -2.028  -4.348   1.292  0.00  0.00    +0.111 C 
ENDROOT
BRANCH   1  12
ATOM      2  C   UNL     1       0.713   1.448  -0.559  0.00  0.00    +0.044 C 
ATOM      3  C   UNL     1       0.543  -0.043  -0.420  0.00  0.00    -0.044 A 
ATOM      4  C   UNL     1       0.517  -0.844  -1.546  0.00  0.00    +0.049 A 
ATOM      5  C   UNL     1       0.365  -2.216  -1.415  0.00  0.00    +0.124 A 
ATOM      6  C   UNL     1       0.235  -2.790  -0.155  0.00  0.00    +0.040 A 
ATOM      7  C   UNL     1       0.255  -1.985   0.968  0.00  0.00    +0.139 A 
ATOM      8  C   UNL     1       0.418  -0.609   0.832  0.00  0.00    +0.050 A 
ATOM      9  O   UNL     1       0.111  -2.497   2.221  0.00  0.00    -0.425 OA
ATOM     10  C   UNL     1       0.167  -3.837   2.356  0.00  0.00    +0.317 C 
ATOM     11  O   UNL     1       0.746  -4.356   3.281  0.00  0.00    -0.250 OA
ATOM     12  C   UNL     1      -0.530  -4.662   1.293  0.00  0.00    +0.114 C 
ATOM     13  C   UNL     1       0.082  -4.287  -0.060  0.00  0.00    +0.037 C 
ATOM     14  C   UNL     1      -0.831  -4.777  -1.185  0.00  0.00    +0.013 C 
BRANCH   5  15
ATOM     15  O   UNL     1       0.341  -3.002  -2.523  0.00  0.00    -0.506 OA
ATOM     16  H   UNL     1       1.212  -3.323  -2.796  0.00  0.00    +0.292 HD
ENDBRANCH   5  15
ENDBRANCH   1  12
BRANCH   1  17
ATOM     17  C   UNL     1      -2.635  -4.793   2.597  0.00  0.00    +0.214 C 
ATOM     18  O   UNL     1      -1.939  -5.309   3.445  0.00  0.00    -0.276 OA
ATOM     19  N   UNL     1      -3.952  -4.616   2.822  0.00  0.00    -0.315 N 
ATOM     20  H   UNL     1      -4.509  -4.202   2.144  0.00  0.00    +0.149 HD
BRANCH  19  21
ATOM     21  C   UNL     1      -4.543  -5.047   4.092  0.00  0.00    +0.109 C 
BRANCH  21  22
ATOM     22  C   UNL     1      -6.040  -4.734   4.090  0.00  0.00    +0.056 C 
BRANCH  22  23
ATOM     23  C   UNL     1      -6.648  -5.178   5.396  0.00  0.00    -0.021 A 
ATOM     24  C   UNL     1      -6.686  -4.412   6.644  0.00  0.00    +0.003 A 
ATOM     25  C   UNL     1      -6.229  -3.149   7.022  0.00  0.00    +0.010 A 
ATOM     26  C   UNL     1      -6.426  -2.710   8.301  0.00  0.00    +0.001 A 
ATOM     27  C   UNL     1      -7.078  -3.511   9.228  0.00  0.00    +0.002 A 
ATOM     28  C   UNL     1      -7.538  -4.762   8.877  0.00  0.00    +0.026 A 
ATOM     29  C   UNL     1      -7.348  -5.228   7.580  0.00  0.00    +0.047 A 
ATOM     30  N   UNL     1      -7.681  -6.398   6.935  0.00  0.00    -0.360 N 
ATOM     31  C   UNL     1      -7.261  -6.348   5.634  0.00  0.00    +0.087 A 
ATOM     32  H   UNL     1      -8.148  -7.145   7.342  0.00  0.00    +0.165 HD
ENDBRANCH  22  23
ENDBRANCH  21  22
ENDBRANCH  19  21
ENDBRANCH   1  17
TORSDOF 6
