REMARK  Name = ZINC38803958
REMARK  8 active torsions:
REMARK  status: ('A' for Active; 'I' for Inactive)
REMARK    1  A    between atoms: C_1  and  C_2
REMARK    2  A    between atoms: C_6  and  C_15
REMARK    3  A    between atoms: C_13  and  C_14
REMARK    4  A    between atoms: C_15  and  N_16
REMARK    5  A    between atoms: N_16  and  C_17
REMARK    6  A    between atoms: C_17  and  C_18
REMARK    7  A    between atoms: C_18  and  O_19
REMARK    8  A    between atoms: C_20  and  C_22
REMARK                            x       y       z     vdW  Elec       q    Type
REMARK                         _______ _______ _______ _____ _____    ______ ____
ROOT
ATOM      1  N   UNL     1      -1.050  -6.338  -3.112  0.00  0.00    -0.294 N 
ATOM      2  C   UNL     1      -0.341  -6.774  -4.172  0.00  0.00    +0.255 C 
ATOM      3  O   UNL     1       0.064  -5.981  -5.001  0.00  0.00    -0.269 OA
ENDROOT
BRANCH   2   4
ATOM      4  C   UNL     1      -0.058  -8.207  -4.326  0.00  0.00    +0.093 A 
ATOM      5  C   UNL     1       0.731  -8.820  -5.250  0.00  0.00    +0.068 A 
ATOM      6  C   UNL     1       0.875 -10.220  -5.230  0.00  0.00    +0.008 A 
ATOM      7  C   UNL     1       1.643 -11.037  -6.099  0.00  0.00    +0.010 A 
ATOM      8  C   UNL     1       1.673 -12.385  -5.941  0.00  0.00    +0.001 A 
ATOM      9  C   UNL     1       0.959 -13.016  -4.929  0.00  0.00    +0.001 A 
ATOM     10  C   UNL     1       0.199 -12.259  -4.061  0.00  0.00    +0.016 A 
ATOM     11  C   UNL     1       0.159 -10.889  -4.209  0.00  0.00    +0.021 A 
ATOM     12  S   UNL     1      -0.655  -9.571  -3.343  0.00  0.00    -0.082 S 
ATOM     13 CL   UNL     1       1.556  -7.878  -6.452  0.00  0.00    -0.082 Cl
ENDBRANCH   2   4
BRANCH   1  14
ATOM     14  C   UNL     1      -1.243  -4.902  -2.900  0.00  0.00    +0.125 C 
BRANCH  14  20
ATOM     15  C   UNL     1       5.298  -2.323  -4.157  0.00  0.00    +0.044 C 
ATOM     16  C   UNL     1       3.939  -2.287  -3.507  0.00  0.00    -0.047 A 
ATOM     17  C   UNL     1       3.233  -3.440  -3.378  0.00  0.00    +0.013 A 
ATOM     18  C   UNL     1       1.915  -3.393  -2.745  0.00  0.00    -0.007 A 
ATOM     19  C   UNL     1       1.171  -4.525  -2.593  0.00  0.00    -0.003 C 
ATOM     20  C   UNL     1      -0.183  -4.383  -1.926  0.00  0.00    +0.116 C 
ATOM     21  C   UNL     1      -0.598  -2.998  -1.484  0.00  0.00    +0.226 C 
ATOM     22  O   UNL     1      -1.675  -2.826  -0.944  0.00  0.00    -0.275 OA
ATOM     23  N   UNL     1       0.213  -1.974  -1.688  0.00  0.00    -0.284 N 
ATOM     24  C   UNL     1       1.404  -2.094  -2.273  0.00  0.00    +0.041 A 
ATOM     25  C   UNL     1       2.216  -0.959  -2.457  0.00  0.00    +0.027 A 
ATOM     26  C   UNL     1       3.434  -1.071  -3.047  0.00  0.00    -0.046 A 
ATOM     27  C   UNL     1       4.272   0.171  -3.217  0.00  0.00    +0.044 C 
ATOM     28  H   UNL     1      -0.072  -1.093  -1.397  0.00  0.00    +0.155 HD
ENDBRANCH  14  20
ENDBRANCH   1  14
BRANCH   1  29
ATOM     29  C   UNL     1      -1.629  -7.301  -2.171  0.00  0.00    +0.136 C 
BRANCH  29  30
ATOM     30  C   UNL     1      -2.999  -7.752  -2.681  0.00  0.00    +0.174 C 
BRANCH  30  31
ATOM     31  O   UNL     1      -2.840  -8.469  -3.906  0.00  0.00    -0.393 OA
ATOM     32  H   UNL     1      -3.670  -8.786  -4.287  0.00  0.00    +0.209 HD
ENDBRANCH  30  31
ENDBRANCH  29  30
ENDBRANCH   1  29
TORSDOF 6
