REMARK  Name = ZINC63588649
REMARK  8 active torsions:
REMARK  status: ('A' for Active; 'I' for Inactive)
REMARK    1  A    between atoms: C_1  and  C_2
REMARK    2  A    between atoms: C_7  and  C_8
REMARK    3  A    between atoms: C_8  and  N_10
REMARK    4  A    between atoms: N_12  and  C_13
REMARK    5  A    between atoms: C_18  and  C_19
REMARK    6  A    between atoms: N_21  and  C_22
REMARK    7  A    between atoms: C_22  and  C_23
REMARK    8  A    between atoms: C_23  and  C_24
REMARK                            x       y       z     vdW  Elec       q    Type
REMARK                         _______ _______ _______ _____ _____    ______ ____
ROOT
ATOM      1  N   UNL     1      -0.102  -0.920   3.818  0.00  0.00    -0.143 NA
ATOM      2  C   UNL     1      -0.344  -0.070   4.804  0.00  0.00    +0.194 C 
ATOM      3  N   UNL     1       0.193   1.185   4.771  0.00  0.00    -0.328 N 
ATOM      4  N   UNL     1      -1.132  -0.447   5.852  0.00  0.00    -0.357 N 
ATOM      5  H   UNL     1       0.274   1.656   3.927  0.00  0.00    +0.169 HD
ATOM      6  H   UNL     1      -1.237  -1.387   6.066  0.00  0.00    +0.162 HD
ENDROOT
BRANCH   3   7
ATOM      7  C   UNL     1       0.628   1.791   5.955  0.00  0.00    +0.045 A 
ATOM      8  C   UNL     1       1.161   1.017   6.977  0.00  0.00    +0.027 A 
ATOM      9  C   UNL     1       1.590   1.617   8.144  0.00  0.00    +0.022 A 
ATOM     10  C   UNL     1       1.489   2.990   8.296  0.00  0.00    +0.041 A 
ATOM     11  C   UNL     1       0.958   3.763   7.279  0.00  0.00    +0.025 A 
ATOM     12  C   UNL     1       0.533   3.168   6.107  0.00  0.00    -0.026 A 
ATOM     13  C   UNL     1      -0.039   4.011   4.997  0.00  0.00    +0.046 C 
ATOM     14 CL   UNL     1       2.028   3.741   9.764  0.00  0.00    -0.084 Cl
ENDBRANCH   3   7
BRANCH   1  15
ATOM     15  C   UNL     1       0.653  -0.543   2.778  0.00  0.00    +0.270 C 
ATOM     16  O   UNL     1       1.188   0.552   2.779  0.00  0.00    -0.268 OA
BRANCH  15  23
ATOM     17  C   UNL     1       2.415   0.220   0.613  0.00  0.00    +0.044 C 
ATOM     18  C   UNL     1       1.685  -1.098   0.578  0.00  0.00    -0.038 A 
ATOM     19  C   UNL     1       1.858  -1.956  -0.489  0.00  0.00    +0.004 A 
ATOM     20  C   UNL     1       1.188  -3.166  -0.522  0.00  0.00    +0.000 A 
ATOM     21  C   UNL     1       0.342  -3.524   0.512  0.00  0.00    +0.001 A 
ATOM     22  C   UNL     1       0.161  -2.675   1.584  0.00  0.00    +0.013 A 
ATOM     23  C   UNL     1       0.838  -1.456   1.627  0.00  0.00    +0.042 A 
ENDBRANCH  15  23
ENDBRANCH   1  15
BRANCH   4  24
ATOM     24  C   UNL     1      -1.818   0.568   6.655  0.00  0.00    +0.120 C 
BRANCH  24  25
ATOM     25  C   UNL     1      -2.590  -0.113   7.787  0.00  0.00    +0.054 C 
BRANCH  25  26
ATOM     26  C   UNL     1      -3.393   0.917   8.538  0.00  0.00    -0.040 C 
ATOM     27  C   UNL     1      -4.683   1.261   8.320  0.00  0.00    -0.001 A 
ATOM     28  C   UNL     1      -5.686   0.797   7.353  0.00  0.00    +0.010 A 
ATOM     29  C   UNL     1      -6.923   1.343   7.378  0.00  0.00    +0.001 A 
ATOM     30  C   UNL     1      -7.270   2.339   8.301  0.00  0.00    +0.002 A 
ATOM     31  C   UNL     1      -6.404   2.816   9.220  0.00  0.00    +0.026 A 
ATOM     32  C   UNL     1      -5.075   2.313   9.284  0.00  0.00    +0.043 A 
ATOM     33  N   UNL     1      -4.067   2.608  10.069  0.00  0.00    -0.380 N 
ATOM     34  C   UNL     1      -2.922   1.772   9.694  0.00  0.00    +0.144 C 
ATOM     35  H   UNL     1      -4.078   3.267  10.780  0.00  0.00    +0.160 HD
ENDBRANCH  25  26
ENDBRANCH  24  25
ENDBRANCH   4  24
TORSDOF 6
