REMARK  Name = ZINC43764272
REMARK  16 active torsions:
REMARK  status: ('A' for Active; 'I' for Inactive)
REMARK    1  A    between atoms: C_1  and  C_2
REMARK    2  A    between atoms: C_2  and  C_4
REMARK    3  A    between atoms: C_2  and  C_10
REMARK    4  A    between atoms: C_4  and  C_5
REMARK    5  A    between atoms: C_5  and  C_6
REMARK    6  A    between atoms: C_6  and  C_7
REMARK    7  A    between atoms: C_7  and  C_8
REMARK    8  A    between atoms: C_7  and  C_9
REMARK    9  A    between atoms: C_16  and  C_43
REMARK   10  A    between atoms: C_24  and  O_39
REMARK   11  A    between atoms: C_26  and  N_35
REMARK   12  A    between atoms: C_27  and  C_34
REMARK   13  A    between atoms: C_31  and  O_33
REMARK   14  A    between atoms: C_36  and  C_38
REMARK   15  A    between atoms: O_39  and  C_40
REMARK   16  A    between atoms: C_40  and  C_42
REMARK                            x       y       z     vdW  Elec       q    Type
REMARK                         _______ _______ _______ _____ _____    ______ ____
ROOT
ATOM      1  C   UNL     1       0.166  -0.912   1.930  0.00  0.00    -0.002 C 
ATOM      2  C   UNL     1       1.554  -0.245   1.910  0.00  0.00    +0.004 C 
ATOM      3  C   UNL     1       2.547  -1.308   1.387  0.00  0.00    +0.004 C 
ATOM      4  C   UNL     1       1.650  -2.278   0.595  0.00  0.00    -0.001 C 
ATOM      5  C   UNL     1       0.377  -2.375   1.457  0.00  0.00    -0.026 C 
ATOM      6  C   UNL     1       0.635  -3.210   2.713  0.00  0.00    +0.007 C 
ATOM      7  C   UNL     1       1.203  -4.579   2.346  0.00  0.00    +0.005 C 
ATOM      8  C   UNL     1       2.552  -4.377   1.647  0.00  0.00    +0.001 C 
ATOM      9  C   UNL     1       2.308  -3.616   0.360  0.00  0.00    -0.000 C 
ATOM     10  C   UNL     1       3.645  -3.434  -0.362  0.00  0.00    +0.051 C 
ATOM     11  C   UNL     1       4.255  -4.805  -0.661  0.00  0.00    +0.203 C 
ATOM     12  C   UNL     1       4.482  -5.559   0.651  0.00  0.00    +0.103 C 
ATOM     13  C   UNL     1       3.175  -5.742   1.349  0.00  0.00    -0.002 C 
ATOM     14  C   UNL     1       3.416  -6.490   2.661  0.00  0.00    +0.009 C 
ATOM     15  C   UNL     1       4.043  -7.854   2.364  0.00  0.00    +0.003 C 
ATOM     16  C   UNL     1       5.375  -7.656   1.638  0.00  0.00    +0.033 C 
ATOM     17  C   UNL     1       5.096  -6.928   0.353  0.00  0.00    +0.142 C 
ATOM     18  C   UNL     1       2.227  -6.554   0.465  0.00  0.00    +0.014 C 
ATOM     19  C   UNL     1      -0.816  -2.889   0.649  0.00  0.00    +0.012 C 
ENDROOT
BRANCH  12  20
ATOM     20  N   UNL     1       5.392  -4.791   1.504  0.00  0.00    -0.304 N 
ATOM     21  C   UNL     1       6.647  -4.530   1.088  0.00  0.00    +0.211 C 
ATOM     22  O   UNL     1       6.993  -4.847  -0.030  0.00  0.00    -0.276 OA
ATOM     23  C   UNL     1       7.620  -3.844   2.012  0.00  0.00    +0.109 C 
ATOM     24  H   UNL     1       5.091  -4.470   2.369  0.00  0.00    +0.149 HD
ENDBRANCH  12  20
BRANCH   1  26
ATOM     25  C   UNL     1      -0.118  -0.048  -0.397  0.00  0.00    +0.008 C 
ATOM     26  C   UNL     1      -0.781  -0.183   0.975  0.00  0.00    -0.010 C 
BRANCH  26  27
ATOM     27  C   UNL     1      -1.092   1.209   1.530  0.00  0.00    +0.003 C 
BRANCH  27  28
ATOM     28  C   UNL     1      -2.132   1.892   0.639  0.00  0.00    +0.001 C 
BRANCH  28  29
ATOM     29  C   UNL     1      -2.443   3.284   1.194  0.00  0.00    +0.003 C 
BRANCH  29  30
ATOM     30  C   UNL     1      -3.483   3.967   0.303  0.00  0.00    -0.017 C 
ATOM     31  C   UNL     1      -3.886   5.306   0.925  0.00  0.00    +0.007 C 
ATOM     32  C   UNL     1      -2.886   4.208  -1.085  0.00  0.00    +0.007 C 
ENDBRANCH  29  30
ENDBRANCH  28  29
ENDBRANCH  27  28
ENDBRANCH  26  27
ENDBRANCH   1  26
BRANCH  17  33
ATOM     33  O   UNL     1       6.346  -6.755  -0.316  0.00  0.00    -0.390 OA
ATOM     34  H   UNL     1       6.793  -7.583  -0.536  0.00  0.00    +0.210 HD
ENDBRANCH  17  33
BRANCH  11  35
ATOM     35  O   UNL     1       5.504  -4.634  -1.335  0.00  0.00    -0.459 OA
BRANCH  35  36
ATOM     36  C   UNL     1       5.471  -4.583  -2.675  0.00  0.00    +0.304 C 
ATOM     37  O   UNL     1       4.417  -4.681  -3.258  0.00  0.00    -0.251 OA
ATOM     38  C   UNL     1       6.749  -4.405  -3.454  0.00  0.00    +0.136 C 
ENDBRANCH  35  36
ENDBRANCH  11  35
TORSDOF 9
