REMARK  Name = ZINC35000156
REMARK  12 active torsions:
REMARK  status: ('A' for Active; 'I' for Inactive)
REMARK    1  A    between atoms: C_1  and  C_2
REMARK    2  A    between atoms: C_2  and  C_3
REMARK    3  A    between atoms: C_3  and  C_4
REMARK    4  A    between atoms: C_4  and  N_5
REMARK    5  A    between atoms: C_13  and  C_15
REMARK    6  A    between atoms: C_16  and  C_18
REMARK    7  A    between atoms: C_18  and  C_20
REMARK    8  A    between atoms: C_18  and  N_31
REMARK    9  A    between atoms: C_20  and  C_21
REMARK   10  A    between atoms: C_32  and  C_34
REMARK   11  A    between atoms: C_34  and  O_35
REMARK   12  A    between atoms: O_35  and  C_36
REMARK                            x       y       z     vdW  Elec       q    Type
REMARK                         _______ _______ _______ _____ _____    ______ ____
ROOT
ATOM      1  C   UNL     1       5.195  -4.370   7.406  0.00  0.00    +0.163 C 
ENDROOT
BRANCH   1  12
ATOM      2  N   UNL     1       3.630  -5.450   0.536  0.00  0.00    -0.299 N 
ATOM      3  C   UNL     1       4.193  -4.492   1.298  0.00  0.00    +0.303 C 
ATOM      4  O   UNL     1       4.299  -3.359   0.870  0.00  0.00    -0.253 OA
ATOM      5  N   UNL     1       4.639  -4.789   2.535  0.00  0.00    -0.280 N 
ATOM      6  C   UNL     1       4.634  -6.177   3.018  0.00  0.00    +0.128 C 
ATOM      7  C   UNL     1       3.852  -6.235   4.336  0.00  0.00    +0.127 C 
ATOM      8  N   UNL     1       4.353  -5.177   5.225  0.00  0.00    -0.297 N 
ATOM      9  C   UNL     1       4.358  -3.789   4.742  0.00  0.00    +0.130 C 
ATOM     10  C   UNL     1       5.145  -3.733   3.422  0.00  0.00    +0.092 C 
ATOM     11  C   UNL     1       4.945  -2.368   2.761  0.00  0.00    +0.030 C 
ATOM     12  C   UNL     1       4.799  -5.475   6.462  0.00  0.00    +0.236 C 
ATOM     13  O   UNL     1       4.881  -6.632   6.814  0.00  0.00    -0.274 OA
ATOM     14  H   UNL     1       3.611  -6.369   0.847  0.00  0.00    +0.150 HD
BRANCH   2  15
ATOM     15  C   UNL     1       3.045  -5.104  -0.762  0.00  0.00    +0.106 C 
BRANCH  15  16
ATOM     16  C   UNL     1       2.478  -6.365  -1.418  0.00  0.00    +0.018 C 
BRANCH  16  18
ATOM     17  C   UNL     1       1.300  -7.265  -3.429  0.00  0.00    +0.004 C 
ATOM     18  C   UNL     1       1.868  -6.004  -2.773  0.00  0.00    -0.002 C 
ENDBRANCH  16  18
ENDBRANCH  15  16
ENDBRANCH   2  15
ENDBRANCH   1  12
BRANCH   1  19
ATOM     19  N   UNL     1       6.005  -4.924   8.494  0.00  0.00    -0.301 N 
ATOM     20  C   UNL     1       6.875  -4.135   9.156  0.00  0.00    +0.251 C 
ATOM     21  O   UNL     1       6.987  -2.967   8.851  0.00  0.00    -0.272 OA
ATOM     22  H   UNL     1       5.914  -5.858   8.739  0.00  0.00    +0.150 HD
BRANCH  20  23
ATOM     23  C   UNL     1       7.707  -4.705  10.276  0.00  0.00    +0.324 C 
BRANCH  23  24
ATOM     24  O   UNL     1       8.544  -3.681  10.816  0.00  0.00    -0.483 OA
BRANCH  24  25
ATOM     25  C   UNL     1       9.365  -4.032  11.841  0.00  0.00    +0.121 A 
ATOM     26  C   UNL     1       9.367  -5.336  12.314  0.00  0.00    +0.045 A 
ATOM     27  C   UNL     1      10.202  -5.690  13.356  0.00  0.00    +0.004 A 
ATOM     28  C   UNL     1      11.034  -4.745  13.928  0.00  0.00    +0.000 A 
ATOM     29  C   UNL     1      11.033  -3.445  13.459  0.00  0.00    +0.004 A 
ATOM     30  C   UNL     1      10.205  -3.087  12.413  0.00  0.00    +0.045 A 
ENDBRANCH  24  25
ENDBRANCH  23  24
ENDBRANCH  20  23
ENDBRANCH   1  19
BRANCH   1  31
ATOM     31  C   UNL     1       3.938  -3.719   7.986  0.00  0.00    +0.069 C 
BRANCH  31  32
ATOM     32  C   UNL     1       4.329  -2.525   8.819  0.00  0.00    -0.020 A 
ATOM     33  C   UNL     1       4.525  -2.508  10.147  0.00  0.00    +0.087 A 
ATOM     34  N   UNL     1       4.869  -1.247  10.552  0.00  0.00    -0.360 N 
ATOM     35  H   UNL     1       5.060  -0.989  11.467  0.00  0.00    +0.165 HD
ATOM     36  C   UNL     1       4.903  -0.400   9.467  0.00  0.00    +0.047 A 
ATOM     37  C   UNL     1       4.573  -1.165   8.333  0.00  0.00    +0.003 A 
ATOM     38  C   UNL     1       4.534  -0.563   7.074  0.00  0.00    +0.010 A 
ATOM     39  C   UNL     1       4.821   0.767   6.949  0.00  0.00    +0.001 A 
ATOM     40  C   UNL     1       5.152   1.525   8.063  0.00  0.00    +0.002 A 
ATOM     41  C   UNL     1       5.187   0.953   9.317  0.00  0.00    +0.026 A 
ENDBRANCH  31  32
ENDBRANCH   1  31
TORSDOF 10
