REMARK  Name = ZINC64757591
REMARK  3 active torsions:
REMARK  status: ('A' for Active; 'I' for Inactive)
REMARK    1  A    between atoms: C_3  and  C_23
REMARK    2  A    between atoms: C_6  and  C_7
REMARK    3  A    between atoms: C_7  and  N_8
REMARK                            x       y       z     vdW  Elec       q    Type
REMARK                         _______ _______ _______ _____ _____    ______ ____
ROOT
ATOM      1  N   UNL     1      -1.725  -1.018  -1.369  0.00  0.00    -0.295 N 
ATOM      2  C   UNL     1      -2.870  -1.688  -1.607  0.00  0.00    +0.303 C 
ATOM      3  O   UNL     1      -3.496  -2.170  -0.683  0.00  0.00    -0.253 OA
ATOM      4  N   UNL     1      -3.321  -1.823  -2.870  0.00  0.00    -0.284 N 
ATOM      5  C   UNL     1      -2.475  -1.322  -3.953  0.00  0.00    +0.111 C 
ATOM      6  C   UNL     1      -1.696  -2.492  -4.519  0.00  0.00    +0.038 C 
ATOM      7  C   UNL     1      -2.514  -3.204  -5.599  0.00  0.00    +0.108 C 
ATOM      8  N   UNL     1      -3.933  -3.337  -5.238  0.00  0.00    -0.308 N 
ATOM      9  C   UNL     1      -4.385  -3.724  -3.913  0.00  0.00    +0.126 C 
ATOM     10  C   UNL     1      -4.584  -2.447  -3.058  0.00  0.00    +0.128 C 
ATOM     11  C   UNL     1      -4.887  -3.079  -6.210  0.00  0.00    +0.161 A 
ATOM     12  N   UNL     1      -4.702  -2.723  -7.463  0.00  0.00    -0.233 NA
ATOM     13  C   UNL     1      -5.727  -2.513  -8.271  0.00  0.00    +0.120 A 
ATOM     14  C   UNL     1      -6.966  -2.680  -7.750  0.00  0.00    +0.068 A 
ATOM     15  S   UNL     1      -6.563  -3.152  -6.075  0.00  0.00    -0.061 S 
ATOM     16  H   UNL     1      -1.186  -0.699  -2.110  0.00  0.00    +0.151 HD
ENDROOT
BRANCH   1  17
ATOM     17  C   UNL     1      -1.294  -0.772   0.010  0.00  0.00    +0.141 C 
BRANCH  17  23
ATOM     18  C   UNL     1      -0.005   1.373   0.002  0.00  0.00    +0.006 A 
ATOM     19  C   UNL     1       1.182   2.076  -0.006  0.00  0.00    +0.010 A 
ATOM     20  C   UNL     1       2.396   1.388  -0.015  0.00  0.00    -0.000 A 
ATOM     21  C   UNL     1       2.401  -0.007  -0.016  0.00  0.00    +0.010 A 
ATOM     22  C   UNL     1       1.207  -0.698  -0.008  0.00  0.00    +0.006 A 
ATOM     23  C   UNL     1       0.007  -0.011   0.001  0.00  0.00    -0.030 A 
BRANCH  20  24
ATOM     24  C   UNL     1       3.673   2.136  -0.025  0.00  0.00    +0.066 A 
ATOM     25  C   UNL     1       4.928   1.595  -0.040  0.00  0.00    +0.049 A 
ATOM     26  C   UNL     1       5.846   2.646  -0.044  0.00  0.00    +0.135 A 
ATOM     27  N   UNL     1       5.187   3.776  -0.032  0.00  0.00    -0.182 NA
ATOM     28  N   UNL     1       3.815   3.492  -0.026  0.00  0.00    -0.277 N 
ATOM     29  H   UNL     1       3.096   4.142  -0.021  0.00  0.00    +0.189 HD
ENDBRANCH  20  24
ENDBRANCH  17  23
ENDBRANCH   1  17
TORSDOF 3
