REMARK  Name = ZINC09129074
REMARK  7 active torsions:
REMARK  status: ('A' for Active; 'I' for Inactive)
REMARK    1  A    between atoms: C_1  and  O_2
REMARK    2  A    between atoms: O_2  and  C_3
REMARK    3  A    between atoms: C_6  and  C_11
REMARK    4  A    between atoms: C_8  and  O_9
REMARK    5  A    between atoms: O_9  and  C_10
REMARK    6  A    between atoms: C_11  and  C_12
REMARK    7  A    between atoms: C_12  and  N_13
REMARK                            x       y       z     vdW  Elec       q    Type
REMARK                         _______ _______ _______ _____ _____    ______ ____
ROOT
ATOM      1  N   UNL     1      -0.296   7.258  -2.540  0.00  0.00    -0.224 N 
ATOM      2  C   UNL     1      -0.416   8.581  -2.363  0.00  0.00    +0.240 C 
ATOM      3  O   UNL     1      -0.992   8.993  -1.379  0.00  0.00    -0.274 OA
ATOM      4  C   UNL     1       0.146   9.569  -3.346  0.00  0.00    +0.146 C 
ATOM      5  C   UNL     1      -0.972  10.487  -3.843  0.00  0.00    +0.064 C 
ATOM      6  C   UNL     1      -0.365  11.548  -4.709  0.00  0.00    -0.025 A 
ATOM      7  C   UNL     1      -1.160  12.152  -5.667  0.00  0.00    +0.005 A 
ATOM      8  C   UNL     1      -0.627  13.107  -6.513  0.00  0.00    +0.000 A 
ATOM      9  C   UNL     1       0.706  13.457  -6.396  0.00  0.00    +0.002 A 
ATOM     10  C   UNL     1       1.496  12.863  -5.438  0.00  0.00    +0.023 A 
ATOM     11  C   UNL     1       0.963  11.898  -4.573  0.00  0.00    +0.033 A 
ATOM     12  N   UNL     1       1.833  11.364  -3.627  0.00  0.00    -0.325 N 
ATOM     13  C   UNL     1       1.218  10.418  -2.653  0.00  0.00    +0.098 C 
ATOM     14  C   UNL     1       2.352   9.426  -2.255  0.00  0.00    +0.024 C 
ATOM     15  C   UNL     1       3.544  10.230  -1.803  0.00  0.00    +0.002 C 
ATOM     16  C   UNL     1       4.173  11.016  -2.904  0.00  0.00    +0.002 C 
ATOM     17  C   UNL     1       3.857  12.524  -2.805  0.00  0.00    +0.019 C 
ATOM     18  C   UNL     1       2.294  12.486  -2.765  0.00  0.00    +0.105 C 
ATOM     19  C   UNL     1       0.768   8.856  -4.515  0.00  0.00    +0.238 C 
ATOM     20  O   UNL     1       1.234   9.510  -5.423  0.00  0.00    -0.274 OA
ATOM     21  N   UNL     1       0.824   7.519  -4.581  0.00  0.00    -0.239 N 
ATOM     22  C   UNL     1       0.316   6.739  -3.615  0.00  0.00    +0.315 C 
ATOM     23  O   UNL     1       0.413   5.532  -3.716  0.00  0.00    -0.252 OA
ATOM     24  H   UNL     1       1.243   7.103  -5.351  0.00  0.00    +0.159 HD
ENDROOT
BRANCH   1  25
ATOM     25  C   UNL     1      -0.855   6.352  -1.533  0.00  0.00    +0.122 C 
BRANCH  25  26
ATOM     26  C   UNL     1       0.207   6.050  -0.474  0.00  0.00    +0.055 C 
BRANCH  26  30
ATOM     27  C   UNL     1      -1.432   3.411   2.465  0.00  0.00    +0.161 A 
ATOM     28  C   UNL     1      -1.532   4.784   2.629  0.00  0.00    +0.049 A 
ATOM     29  C   UNL     1      -1.003   5.634   1.677  0.00  0.00    +0.007 A 
ATOM     30  C   UNL     1      -0.368   5.119   0.562  0.00  0.00    -0.042 A 
ATOM     31  C   UNL     1      -0.259   3.751   0.395  0.00  0.00    +0.053 A 
ATOM     32  C   UNL     1      -0.787   2.893   1.346  0.00  0.00    +0.162 A 
BRANCH  27  34
ATOM     33  C   UNL     1      -2.603   3.176   4.521  0.00  0.00    +0.277 C 
ATOM     34  O   UNL     1      -1.957   2.573   3.399  0.00  0.00    -0.491 OA
ENDBRANCH  27  34
BRANCH  32  35
ATOM     35  O   UNL     1      -0.682   1.547   1.184  0.00  0.00    -0.491 OA
ATOM     36  C   UNL     1      -0.013   1.086   0.008  0.00  0.00    +0.277 C 
ENDBRANCH  32  35
ENDBRANCH  26  30
ENDBRANCH  25  26
ENDBRANCH   1  25
TORSDOF 5
