REMARK  Name = ZINC43740208
REMARK  7 active torsions:
REMARK  status: ('A' for Active; 'I' for Inactive)
REMARK    1  A    between atoms: C_1  and  C_2
REMARK    2  A    between atoms: C_19  and  C_21
REMARK    3  A    between atoms: C_21  and  N_22
REMARK    4  A    between atoms: N_25  and  C_28
REMARK    5  A    between atoms: C_28  and  C_29
REMARK    6  A    between atoms: C_28  and  C_35
REMARK    7  A    between atoms: C_28  and  O_41
REMARK                            x       y       z     vdW  Elec       q    Type
REMARK                         _______ _______ _______ _____ _____    ______ ____
ROOT
ATOM      1  N   UNL     1      -1.410  -6.359   0.896  0.00  0.00    +0.382 N 
ATOM      2  C   UNL     1      -1.607  -6.378  -0.559  0.00  0.00    -0.063 C 
ATOM      3  C   UNL     1      -1.441  -7.807  -1.079  0.00  0.00    +0.069 C 
ATOM      4  N   UNL     1      -2.425  -8.681  -0.423  0.00  0.00    -0.271 NA
ATOM      5  C   UNL     1      -2.256  -8.654   1.036  0.00  0.00    +0.069 C 
ATOM      6  C   UNL     1      -2.415  -7.217   1.539  0.00  0.00    -0.063 C 
ATOM      7  H   UNL     1      -0.487  -6.702   1.115  0.00  0.00    -0.082 HD
ENDROOT
BRANCH   1   8
ATOM      8  C   UNL     1      -1.552  -4.984   1.392  0.00  0.00    -0.064 C 
BRANCH   8  24
ATOM      9  C   UNL     1       4.939  -3.160   2.479  0.00  0.00    +0.012 C 
ATOM     10  C   UNL     1       3.516  -3.197   1.919  0.00  0.00    -0.022 C 
ATOM     11  C   UNL     1       3.198  -1.857   1.259  0.00  0.00    +0.007 C 
ATOM     12  C   UNL     1       4.263  -1.540   0.206  0.00  0.00    +0.005 C 
ATOM     13  C   UNL     1       4.231  -2.605  -0.894  0.00  0.00    +0.030 C 
ATOM     14  C   UNL     1       4.359  -3.972  -0.258  0.00  0.00    -0.073 C 
ATOM     15  C   UNL     1       5.259  -4.829  -0.672  0.00  0.00    +0.008 C 
ATOM     16  C   UNL     1       3.410  -4.316   0.875  0.00  0.00    +0.021 C 
ATOM     17  C   UNL     1       1.991  -4.321   0.309  0.00  0.00    +0.016 C 
ATOM     18  C   UNL     1       0.959  -4.598   1.402  0.00  0.00    +0.042 C 
ATOM     19  C   UNL     1       1.131  -3.609   2.573  0.00  0.00    +0.181 C 
ATOM     20  C   UNL     1       2.537  -3.472   3.053  0.00  0.00    +0.052 C 
ATOM     21  O   UNL     1       0.609  -2.380   2.057  0.00  0.00    -0.461 OA
ATOM     22  C   UNL     1      -0.513  -2.677   1.364  0.00  0.00    +0.309 C 
ATOM     23  O   UNL     1      -1.446  -1.931   1.185  0.00  0.00    -0.251 OA
ATOM     24  C   UNL     1      -0.415  -4.122   0.838  0.00  0.00    +0.088 C 
ENDBRANCH   8  24
ENDBRANCH   1   8
BRANCH   4  25
ATOM     25  C   UNL     1      -2.335 -10.054  -0.938  0.00  0.00    +0.172 C 
BRANCH  25  26
ATOM     26  C   UNL     1      -3.356 -10.918  -0.244  0.00  0.00    +0.003 A 
ATOM     27  C   UNL     1      -4.543 -10.365   0.199  0.00  0.00    +0.008 A 
ATOM     28  C   UNL     1      -5.479 -11.158   0.835  0.00  0.00    +0.000 A 
ATOM     29  C   UNL     1      -5.229 -12.504   1.028  0.00  0.00    +0.000 A 
ATOM     30  C   UNL     1      -4.043 -13.057   0.584  0.00  0.00    +0.000 A 
ATOM     31  C   UNL     1      -3.108 -12.265  -0.056  0.00  0.00    +0.008 A 
ENDBRANCH  25  26
BRANCH  25  32
ATOM     32  C   UNL     1      -2.603 -10.053  -2.421  0.00  0.00    +0.003 A 
ATOM     33  C   UNL     1      -3.353  -9.039  -2.987  0.00  0.00    +0.008 A 
ATOM     34  C   UNL     1      -3.598  -9.037  -4.348  0.00  0.00    +0.000 A 
ATOM     35  C   UNL     1      -3.093 -10.050  -5.142  0.00  0.00    +0.000 A 
ATOM     36  C   UNL     1      -2.342 -11.063  -4.576  0.00  0.00    +0.000 A 
ATOM     37  C   UNL     1      -2.093 -11.062  -3.216  0.00  0.00    +0.008 A 
ENDBRANCH  25  32
BRANCH  25  38
ATOM     38  O   UNL     1      -1.026 -10.571  -0.691  0.00  0.00    -0.366 OA
ATOM     39  H   UNL     1      -0.785 -10.601   0.245  0.00  0.00    +0.212 HD
ENDBRANCH  25  38
ENDBRANCH   4  25
TORSDOF 6
