REMARK  Name = ZINC13384441
REMARK  14 active torsions:
REMARK  status: ('A' for Active; 'I' for Inactive)
REMARK    1  A    between atoms: C_4  and  C_7
REMARK    2  A    between atoms: C_7  and  O_8
REMARK    3  A    between atoms: O_8  and  C_9
REMARK    4  A    between atoms: C_11  and  O_40
REMARK    5  A    between atoms: C_13  and  O_39
REMARK    6  A    between atoms: C_15  and  O_22
REMARK    7  A    between atoms: C_17  and  C_20
REMARK    8  A    between atoms: C_20  and  O_21
REMARK    9  A    between atoms: O_22  and  C_23
REMARK   10  A    between atoms: C_25  and  O_38
REMARK   11  A    between atoms: C_27  and  O_37
REMARK   12  A    between atoms: C_29  and  O_36
REMARK   13  A    between atoms: C_31  and  C_34
REMARK   14  A    between atoms: C_34  and  O_35
REMARK                            x       y       z     vdW  Elec       q    Type
REMARK                         _______ _______ _______ _____ _____    ______ ____
ROOT
ATOM      1  C   UNL     1       3.839  -3.296  -1.167  0.00  0.00    +0.282 C 
ATOM      2  C   UNL     1       4.390  -1.974  -0.626  0.00  0.00    +0.201 C 
ATOM      3  C   UNL     1       4.412  -0.939  -1.755  0.00  0.00    +0.179 C 
ATOM      4  C   UNL     1       2.997  -0.790  -2.324  0.00  0.00    +0.183 C 
ATOM      5  C   UNL     1       2.501  -2.158  -2.799  0.00  0.00    +0.178 C 
ATOM      6  O   UNL     1       2.535  -3.081  -1.709  0.00  0.00    -0.341 OA
ENDROOT
BRANCH   3   7
ATOM      7  O   UNL     1       4.855   0.319  -1.242  0.00  0.00    -0.386 OA
ATOM      8  H   UNL     1       5.745   0.298  -0.865  0.00  0.00    +0.210 HD
ENDBRANCH   3   7
BRANCH   2   9
ATOM      9  O   UNL     1       3.554  -1.507   0.435  0.00  0.00    -0.384 OA
ATOM     10  H   UNL     1       3.491  -2.117   1.183  0.00  0.00    +0.210 HD
ENDBRANCH   2   9
BRANCH   1  11
ATOM     11  O   UNL     1       3.764  -4.250  -0.106  0.00  0.00    -0.344 OA
BRANCH  11  12
ATOM     12  C   UNL     1       3.476  -5.581  -0.540  0.00  0.00    +0.198 C 
BRANCH  12  16
ATOM     13  C   UNL     1       3.316  -8.181   2.845  0.00  0.00    +0.000 A 
ATOM     14  C   UNL     1       2.170  -7.543   2.409  0.00  0.00    +0.000 A 
ATOM     15  C   UNL     1       2.222  -6.702   1.313  0.00  0.00    +0.006 A 
ATOM     16  C   UNL     1       3.420  -6.498   0.654  0.00  0.00    -0.022 A 
ATOM     17  C   UNL     1       4.565  -7.140   1.088  0.00  0.00    +0.006 A 
ATOM     18  C   UNL     1       4.514  -7.978   2.186  0.00  0.00    +0.000 A 
ENDBRANCH  12  16
ENDBRANCH  11  12
ENDBRANCH   1  11
BRANCH   5  19
ATOM     19  C   UNL     1       1.066  -2.030  -3.314  0.00  0.00    +0.190 C 
BRANCH  19  20
ATOM     20  O   UNL     1       0.643  -3.279  -3.864  0.00  0.00    -0.392 OA
ATOM     21  H   UNL     1      -0.260  -3.271  -4.211  0.00  0.00    +0.210 HD
ENDBRANCH  19  20
ENDBRANCH   5  19
BRANCH   4  22
ATOM     22  O   UNL     1       2.124  -0.292  -1.309  0.00  0.00    -0.340 OA
BRANCH  22  23
ATOM     23  C   UNL     1       2.038   1.134  -1.265  0.00  0.00    +0.282 C 
ATOM     24  C   UNL     1       1.286   1.562  -0.002  0.00  0.00    +0.201 C 
ATOM     25  C   UNL     1       1.146   3.087   0.008  0.00  0.00    +0.179 C 
ATOM     26  C   UNL     1       0.432   3.531  -1.272  0.00  0.00    +0.177 C 
ATOM     27  C   UNL     1       1.217   3.027  -2.486  0.00  0.00    +0.178 C 
ATOM     28  O   UNL     1       1.337   1.605  -2.418  0.00  0.00    -0.341 OA
BRANCH  26  29
ATOM     29  O   UNL     1      -0.888   2.984  -1.297  0.00  0.00    -0.386 OA
ATOM     30  H   UNL     1      -1.441   3.258  -0.552  0.00  0.00    +0.210 HD
ENDBRANCH  26  29
BRANCH  25  31
ATOM     31  O   UNL     1       0.382   3.490   1.146  0.00  0.00    -0.386 OA
ATOM     32  H   UNL     1       0.773   3.235   1.993  0.00  0.00    +0.210 HD
ENDBRANCH  25  31
BRANCH  24  33
ATOM     33  O   UNL     1      -0.011   0.963   0.007  0.00  0.00    -0.384 OA
ATOM     34  H   UNL     1       0.002  -0.004   0.002  0.00  0.00    +0.210 HD
ENDBRANCH  24  33
BRANCH  27  35
ATOM     35  C   UNL     1       0.478   3.416  -3.769  0.00  0.00    +0.190 C 
BRANCH  35  36
ATOM     36  O   UNL     1       1.266   3.049  -4.903  0.00  0.00    -0.392 OA
ATOM     37  H   UNL     1       0.859   3.266  -5.752  0.00  0.00    +0.210 HD
ENDBRANCH  35  36
ENDBRANCH  27  35
ENDBRANCH  22  23
ENDBRANCH   4  22
TORSDOF 14
