REMARK  Name = ZINC66977027
REMARK  9 active torsions:
REMARK  status: ('A' for Active; 'I' for Inactive)
REMARK    1  A    between atoms: C_1  and  N_2
REMARK    2  A    between atoms: N_2  and  C_3
REMARK    3  A    between atoms: N_2  and  C_4
REMARK    4  A    between atoms: C_4  and  C_6
REMARK    5  A    between atoms: C_4  and  C_22
REMARK    6  A    between atoms: C_6  and  N_7
REMARK    7  A    between atoms: N_10  and  N_11
REMARK    8  A    between atoms: C_12  and  C_14
REMARK    9  A    between atoms: C_14  and  C_15
REMARK                            x       y       z     vdW  Elec       q    Type
REMARK                         _______ _______ _______ _____ _____    ______ ____
ROOT
ATOM      1  N   UNL     1      -1.707  -0.721  -2.271  0.00  0.00    -0.300 N 
ATOM      2  C   UNL     1      -2.259  -0.426  -3.465  0.00  0.00    +0.316 C 
ATOM      3  O   UNL     1      -3.201   0.341  -3.526  0.00  0.00    -0.251 OA
ATOM      4  N   UNL     1      -1.768  -0.981  -4.590  0.00  0.00    -0.218 N 
ATOM      5  H   UNL     1      -0.956  -1.332  -2.222  0.00  0.00    +0.150 HD
ATOM      6  H   UNL     1      -2.165  -0.769  -5.449  0.00  0.00    +0.174 HD
ENDROOT
BRANCH   4   7
ATOM      7  N   UNL     1      -0.682  -1.864  -4.519  0.00  0.00    -0.233 N 
ATOM      8  C   UNL     1      -0.191  -2.420  -5.645  0.00  0.00    +0.234 C 
ATOM      9  O   UNL     1      -0.688  -2.155  -6.719  0.00  0.00    -0.274 OA
ATOM     10  H   UNL     1      -0.285  -2.076  -3.660  0.00  0.00    +0.173 HD
BRANCH   8  11
ATOM     11  C   UNL     1       0.977  -3.370  -5.569  0.00  0.00    +0.135 C 
BRANCH  11  12
ATOM     12  C   UNL     1       1.329  -3.845  -6.955  0.00  0.00    -0.003 A 
ATOM     13  C   UNL     1       0.809  -5.034  -7.431  0.00  0.00    +0.007 A 
ATOM     14  C   UNL     1       1.132  -5.471  -8.702  0.00  0.00    +0.000 A 
ATOM     15  C   UNL     1       1.975  -4.718  -9.499  0.00  0.00    +0.003 A 
ATOM     16  C   UNL     1       2.495  -3.529  -9.026  0.00  0.00    +0.038 A 
ATOM     17  C   UNL     1       2.168  -3.088  -7.754  0.00  0.00    +0.127 A 
ATOM     18  F   UNL     1       2.672  -1.923  -7.292  0.00  0.00    -0.205 F 
ENDBRANCH  11  12
ENDBRANCH   8  11
ENDBRANCH   4   7
BRANCH   1  19
ATOM     19  C   UNL     1      -2.241  -0.117  -1.048  0.00  0.00    +0.091 C 
BRANCH  19  20
ATOM     20  C   UNL     1      -1.540  -0.724   0.169  0.00  0.00    -0.049 C 
BRANCH  20  21
ATOM     21  C   UNL     1      -1.973  -2.182   0.333  0.00  0.00    -0.023 C 
ATOM     22  C   UNL     1      -1.637  -2.961  -0.940  0.00  0.00    +0.002 C 
ATOM     23  C   UNL     1      -2.070  -4.419  -0.776  0.00  0.00    +0.000 C 
ATOM     24  C   UNL     1      -3.579  -4.477  -0.526  0.00  0.00    +0.000 C 
ATOM     25  C   UNL     1      -3.916  -3.698   0.747  0.00  0.00    +0.000 C 
ATOM     26  C   UNL     1      -3.482  -2.240   0.583  0.00  0.00    +0.002 C 
ENDBRANCH  20  21
BRANCH  20  28
ATOM     27  C   UNL     1       0.322   0.727  -0.261  0.00  0.00    -0.096 C 
ATOM     28  N   UNL     1      -0.085  -0.665  -0.025  0.00  0.00    +0.379 N 
ATOM     29  C   UNL     1       0.591  -1.176   1.175  0.00  0.00    -0.096 C 
ATOM     30  H   UNL     1       0.172  -1.230  -0.821  0.00  0.00    -0.082 HD
ENDBRANCH  20  28
ENDBRANCH  19  20
ENDBRANCH   1  19
TORSDOF 7
