REMARK  Name = ZINC36266016
REMARK  4 active torsions:
REMARK  status: ('A' for Active; 'I' for Inactive)
REMARK    1  A    between atoms: C_1  and  C_2
REMARK    2  A    between atoms: C_5  and  S_9
REMARK    3  A    between atoms: S_9  and  N_12
REMARK    4  A    between atoms: N_12  and  C_13
REMARK                            x       y       z     vdW  Elec       q    Type
REMARK                         _______ _______ _______ _____ _____    ______ ____
ROOT
ATOM      1  N   UNL     1       1.558  -5.005   0.505  0.00  0.00    -0.187 NA
ATOM      2  H   UNL     1       2.215  -5.324  -0.132  0.00  0.00    +0.148 HD
ENDROOT
BRANCH   1   3
ATOM      3  C   UNL     1       1.933  -4.810   1.908  0.00  0.00    +0.074 C 
ATOM      4  C   UNL     1       2.595  -3.440   2.076  0.00  0.00    +0.001 C 
ATOM      5  C   UNL     1       3.021  -3.255   3.534  0.00  0.00    -0.080 C 
ATOM      6  N   UNL     1       4.006  -4.282   3.896  0.00  0.00    +0.383 N 
ATOM      7  C   UNL     1       3.407  -5.612   3.750  0.00  0.00    -0.067 C 
ATOM      8  C   UNL     1       2.923  -5.901   2.330  0.00  0.00    +0.008 C 
ATOM      9  C   UNL     1       4.263  -6.738   4.344  0.00  0.00    -0.012 C 
ATOM     10  C   UNL     1       3.519  -6.495   5.669  0.00  0.00    -0.003 C 
ATOM     11  C   UNL     1       2.361  -5.934   4.826  0.00  0.00    -0.012 C 
ATOM     12  H   UNL     1       4.808  -4.207   3.288  0.00  0.00    -0.085 HD
ATOM     13  H   UNL     1       4.296  -4.148   4.853  0.00  0.00    -0.085 HD
ENDBRANCH   1   3
BRANCH   1  14
ATOM     14  S   UNL     1       0.012  -4.678   0.009  0.00  0.00    +0.060 S 
ATOM     15  O   UNL     1      -0.856  -5.316   0.936  0.00  0.00    -0.153 OA
ATOM     16  O   UNL     1      -0.032  -4.949  -1.386  0.00  0.00    -0.153 OA
BRANCH  14  21
ATOM     17  C   UNL     1      -0.849   1.260   0.645  0.00  0.00    +0.044 C 
ATOM     18  C   UNL     1      -0.634  -0.223   0.486  0.00  0.00    -0.049 A 
ATOM     19  C   UNL     1      -1.378  -1.114   1.236  0.00  0.00    +0.005 A 
ATOM     20  C   UNL     1      -1.181  -2.474   1.091  0.00  0.00    +0.030 A 
ATOM     21  C   UNL     1      -0.240  -2.944   0.194  0.00  0.00    +0.119 A 
ATOM     22  C   UNL     1       0.504  -2.053  -0.558  0.00  0.00    +0.044 A 
ATOM     23  C   UNL     1       0.303  -0.692  -0.415  0.00  0.00    +0.020 A 
ATOM     24 BR   UNL     1       1.793  -2.696  -1.784  0.00  0.00    -0.048 Br
ENDBRANCH  14  21
ENDBRANCH   1  14
TORSDOF 3
