REMARK  Name = ZINC63641163
REMARK  7 active torsions:
REMARK  status: ('A' for Active; 'I' for Inactive)
REMARK    1  A    between atoms: C_1  and  C_2
REMARK    2  A    between atoms: C_2  and  C_3
REMARK    3  A    between atoms: C_2  and  N_15
REMARK    4  A    between atoms: N_5  and  C_6
REMARK    5  A    between atoms: N_15  and  C_16
REMARK    6  A    between atoms: C_21  and  O_22
REMARK    7  A    between atoms: O_22  and  C_23
REMARK                            x       y       z     vdW  Elec       q    Type
REMARK                         _______ _______ _______ _____ _____    ______ ____
ROOT
ATOM      1  C   UNL     1      -0.037   1.513   0.004  0.00  0.00    +0.038 C 
ATOM      2  C   UNL     1      -0.007  -0.017   0.002  0.00  0.00    +0.154 C 
ENDROOT
BRANCH   2   3
ATOM      3  C   UNL     1       0.729  -0.506   1.223  0.00  0.00    +0.237 C 
ATOM      4  O   UNL     1       1.726  -1.184   1.098  0.00  0.00    -0.273 OA
ATOM      5  N   UNL     1       0.278  -0.191   2.453  0.00  0.00    -0.282 N 
ATOM      6  H   UNL     1      -0.472   0.417   2.554  0.00  0.00    +0.155 HD
BRANCH   5   7
ATOM      7  C   UNL     1       0.892  -0.740   3.587  0.00  0.00    +0.072 A 
ATOM      8  C   UNL     1       1.576  -1.944   3.492  0.00  0.00    +0.029 A 
ATOM      9  C   UNL     1       2.181  -2.485   4.610  0.00  0.00    +0.043 A 
ATOM     10  C   UNL     1       2.107  -1.828   5.826  0.00  0.00    +0.161 A 
ATOM     11  C   UNL     1       1.426  -0.624   5.926  0.00  0.00    +0.195 A 
ATOM     12  C   UNL     1       0.823  -0.076   4.806  0.00  0.00    +0.182 A 
ATOM     13  F   UNL     1       0.164   1.099   4.900  0.00  0.00    -0.200 F 
ATOM     14  F   UNL     1       1.355   0.015   7.113  0.00  0.00    -0.199 F 
ATOM     15  F   UNL     1       2.700  -2.359   6.917  0.00  0.00    -0.202 F 
ENDBRANCH   5   7
ENDBRANCH   2   3
BRANCH   2  16
ATOM     16  N   UNL     1       0.677  -0.491  -1.203  0.00  0.00    -0.330 N 
ATOM     17  H   UNL     1       1.623  -0.703  -1.172  0.00  0.00    +0.147 HD
BRANCH  16  18
ATOM     18  C   UNL     1      -0.034  -0.637  -2.400  0.00  0.00    +0.071 A 
ATOM     19  C   UNL     1      -1.386  -0.328  -2.448  0.00  0.00    +0.027 A 
ATOM     20  C   UNL     1      -2.087  -0.473  -3.630  0.00  0.00    +0.003 A 
ATOM     21  C   UNL     1      -1.444  -0.926  -4.768  0.00  0.00    +0.024 A 
ATOM     22  C   UNL     1      -0.096  -1.237  -4.728  0.00  0.00    +0.084 A 
ATOM     23  C   UNL     1       0.615  -1.087  -3.547  0.00  0.00    +0.159 A 
ATOM     24 CL   UNL     1       0.706  -1.806  -6.158  0.00  0.00    -0.080 Cl
BRANCH  23  25
ATOM     25  O   UNL     1       1.941  -1.386  -3.507  0.00  0.00    -0.492 OA
ATOM     26  C   UNL     1       2.293  -2.731  -3.175  0.00  0.00    +0.277 C 
ENDBRANCH  23  25
ENDBRANCH  16  18
ENDBRANCH   2  16
TORSDOF 5
