REMARK  Name = ZINC15675940
REMARK  3 active torsions:
REMARK  status: ('A' for Active; 'I' for Inactive)
REMARK    1  A    between atoms: C_6  and  C_11
REMARK    2  A    between atoms: C_13  and  C_16
REMARK    3  A    between atoms: N_29  and  C_30
REMARK                            x       y       z     vdW  Elec       q    Type
REMARK                         _______ _______ _______ _____ _____    ______ ____
ROOT
ATOM      1  C   UNL     1       6.980  -5.739  -0.104  0.00  0.00    +0.172 C 
ATOM      2  C   UNL     1       7.531  -6.084   1.286  0.00  0.00    +0.087 C 
ATOM      3  C   UNL     1       8.830  -5.349   1.489  0.00  0.00    +0.040 A 
ATOM      4  C   UNL     1       9.574  -4.810   0.499  0.00  0.00    +0.054 A 
ATOM      5  N   UNL     1      10.652  -4.247   1.050  0.00  0.00    -0.348 N 
ATOM      6  C   UNL     1      10.606  -4.412   2.346  0.00  0.00    +0.171 A 
ATOM      7  N   UNL     1       9.481  -5.096   2.658  0.00  0.00    -0.349 N 
ATOM      8  H   UNL     1       9.192  -5.357   3.547  0.00  0.00    +0.166 HD
ATOM      9  C   UNL     1       9.193  -4.863  -0.961  0.00  0.00    +0.165 C 
ATOM     10  N   UNL     1       8.071  -5.813  -1.087  0.00  0.00    -0.268 N 
ATOM     11  C   UNL     1       8.047  -6.727  -2.077  0.00  0.00    +0.303 C 
ATOM     12  O   UNL     1       7.165  -7.564  -2.110  0.00  0.00    -0.253 OA
ATOM     13  N   UNL     1       8.999  -6.714  -3.031  0.00  0.00    -0.296 N 
ATOM     14  H   UNL     1       9.742  -6.093  -2.966  0.00  0.00    +0.151 HD
ATOM     15  H   UNL     1      11.357  -3.788   0.566  0.00  0.00    +0.166 HD
ENDROOT
BRANCH  13  16
ATOM     16  C   UNL     1       8.913  -7.636  -4.165  0.00  0.00    +0.074 C 
ATOM     17  C   UNL     1       9.528  -8.982  -3.776  0.00  0.00    +0.022 C 
ATOM     18  C   UNL     1       9.439  -9.945  -4.962  0.00  0.00    +0.002 C 
ATOM     19  C   UNL     1      10.201  -9.361  -6.153  0.00  0.00    +0.000 C 
ATOM     20  C   UNL     1       9.585  -8.016  -6.542  0.00  0.00    +0.002 C 
ATOM     21  C   UNL     1       9.675  -7.052  -5.357  0.00  0.00    +0.022 C 
ENDBRANCH  13  16
BRANCH   1  24
ATOM     22  C   UNL     1       4.991  -2.704  -0.065  0.00  0.00    +0.202 A 
ATOM     23  N   UNL     1       5.143  -4.040  -0.079  0.00  0.00    -0.190 NA
ATOM     24  C   UNL     1       6.410  -4.344  -0.088  0.00  0.00    +0.249 A 
ATOM     25  O   UNL     1       7.120  -3.209  -0.080  0.00  0.00    -0.336 OA
ATOM     26  N   UNL     1       6.177  -2.147  -0.071  0.00  0.00    -0.056 NA
BRANCH  22  32
ATOM     27  C   UNL     1       0.005   1.383  -0.008  0.00  0.00    +0.001 A 
ATOM     28  C   UNL     1       1.192   2.113  -0.012  0.00  0.00    +0.001 A 
ATOM     29  C   UNL     1       2.400   1.486  -0.024  0.00  0.00    +0.008 A 
ATOM     30  C   UNL     1       2.454   0.080  -0.033  0.00  0.00    -0.017 A 
ATOM     31  C   UNL     1       3.682  -0.599  -0.044  0.00  0.00    +0.020 A 
ATOM     32  C   UNL     1       3.695  -1.980  -0.052  0.00  0.00    +0.023 A 
ATOM     33  C   UNL     1       2.493  -2.706  -0.048  0.00  0.00    +0.012 A 
ATOM     34  C   UNL     1       1.294  -2.068  -0.037  0.00  0.00    +0.009 A 
ATOM     35  C   UNL     1       1.246  -0.662  -0.029  0.00  0.00    -0.018 A 
ATOM     36  C   UNL     1       0.019   0.021  -0.016  0.00  0.00    +0.008 A 
ENDBRANCH  22  32
ENDBRANCH   1  24
TORSDOF 3
