REMARK  Name = ZINC11347575
REMARK  5 active torsions:
REMARK  status: ('A' for Active; 'I' for Inactive)
REMARK    1  A    between atoms: C_1  and  C_2
REMARK    2  A    between atoms: C_2  and  C_4
REMARK    3  A    between atoms: C_2  and  S_16
REMARK    4  A    between atoms: S_16  and  C_17
REMARK    5  A    between atoms: C_20  and  C_22
REMARK                            x       y       z     vdW  Elec       q    Type
REMARK                         _______ _______ _______ _____ _____    ______ ____
ROOT
ATOM      1  S   UNL     1       4.787  -4.474   0.062  0.00  0.00    -0.053 S 
ENDROOT
BRANCH   1   2
ATOM      2  C   UNL     1       3.365  -3.434   0.012  0.00  0.00    +0.278 A 
ATOM      3  N   UNL     1       2.121  -3.828  -0.112  0.00  0.00    -0.101 NA
ATOM      4  N   UNL     1       1.344  -2.802  -0.106  0.00  0.00    -0.106 NA
ATOM      5  C   UNL     1       2.062  -1.712   0.013  0.00  0.00    +0.251 A 
ATOM      6  O   UNL     1       3.358  -2.089   0.093  0.00  0.00    -0.411 OA
BRANCH   5   7
ATOM      7  C   UNL     1       1.551  -0.328   0.057  0.00  0.00    +0.063 A 
ATOM      8  C   UNL     1       2.287   0.806   0.185  0.00  0.00    +0.097 A 
ATOM      9  N   UNL     1       1.463   1.893   0.186  0.00  0.00    -0.360 N 
ATOM     10  H   UNL     1       1.758   2.813   0.265  0.00  0.00    +0.165 HD
ATOM     11  C   UNL     1       0.149   1.494   0.056  0.00  0.00    +0.047 A 
ATOM     12  C   UNL     1       0.141   0.092  -0.030  0.00  0.00    +0.012 A 
ATOM     13  C   UNL     1      -1.065  -0.592  -0.168  0.00  0.00    +0.011 A 
ATOM     14  C   UNL     1      -2.247   0.114  -0.219  0.00  0.00    +0.001 A 
ATOM     15  C   UNL     1      -2.240   1.499  -0.134  0.00  0.00    +0.002 A 
ATOM     16  C   UNL     1      -1.056   2.188   0.007  0.00  0.00    +0.026 A 
ENDBRANCH   5   7
ENDBRANCH   1   2
BRANCH   1  18
ATOM     17  C   UNL     1       3.125  -6.361   1.128  0.00  0.00    +0.029 C 
ATOM     18  C   UNL     1       3.998  -6.094  -0.100  0.00  0.00    +0.139 C 
BRANCH  18  19
ATOM     19  C   UNL     1       5.057  -7.161  -0.205  0.00  0.00    +0.233 C 
ATOM     20  O   UNL     1       6.161  -6.967   0.259  0.00  0.00    -0.274 OA
ATOM     21  N   UNL     1       4.778  -8.330  -0.814  0.00  0.00    -0.270 N 
ATOM     22  C   UNL     1       3.468  -8.552  -1.441  0.00  0.00    +0.114 C 
ATOM     23  C   UNL     1       2.984  -9.949  -1.047  0.00  0.00    +0.024 C 
ATOM     24  C   UNL     1       3.956 -10.987  -1.607  0.00  0.00    +0.038 C 
ATOM     25  C   UNL     1       5.372 -10.644  -1.227  0.00  0.00    -0.026 A 
ATOM     26  C   UNL     1       5.730  -9.358  -0.854  0.00  0.00    +0.039 A 
ATOM     27  C   UNL     1       7.048  -9.074  -0.514  0.00  0.00    +0.024 A 
ATOM     28  C   UNL     1       8.000 -10.073  -0.544  0.00  0.00    +0.002 A 
ATOM     29  C   UNL     1       7.642 -11.356  -0.914  0.00  0.00    +0.000 A 
ATOM     30  C   UNL     1       6.333 -11.640  -1.254  0.00  0.00    +0.005 A 
ENDBRANCH  18  19
ENDBRANCH   1  18
TORSDOF 4
