REMARK  Name = ZINC13063758
REMARK  13 active torsions:
REMARK  status: ('A' for Active; 'I' for Inactive)
REMARK    1  A    between atoms: C_1  and  C_2
REMARK    2  A    between atoms: C_2  and  C_3
REMARK    3  A    between atoms: C_10  and  C_15
REMARK    4  A    between atoms: C_15  and  N_72
REMARK    5  A    between atoms: C_16  and  C_17
REMARK    6  A    between atoms: C_16  and  N_72
REMARK    7  A    between atoms: C_23  and  C_25
REMARK    8  A    between atoms: C_23  and  C_27
REMARK    9  A    between atoms: C_23  and  N_72
REMARK   10  A    between atoms: C_25  and  C_26
REMARK   11  A    between atoms: N_31  and  C_32
REMARK   12  A    between atoms: C_32  and  C_33
REMARK   13  A    between atoms: C_33  and  C_34
REMARK                            x       y       z     vdW  Elec       q    Type
REMARK                         _______ _______ _______ _____ _____    ______ ____
ROOT
ATOM      1  N   UNL     1       4.062  -0.760  -1.329  0.00  0.00    +0.392 N 
ATOM      2  H   UNL     1       4.157   0.058  -1.942  0.00  0.00    -0.080 HD
ENDROOT
BRANCH   1   3
ATOM      3  C   UNL     1       2.923  -1.579  -1.796  0.00  0.00    -0.036 C 
BRANCH   3  11
ATOM      4  C   UNL     1       0.861  -5.221   2.762  0.00  0.00    -0.047 A 
ATOM      5  C   UNL     1       1.615  -6.336   2.423  0.00  0.00    +0.005 A 
ATOM      6  C   UNL     1       2.465  -6.308   1.339  0.00  0.00    +0.026 A 
ATOM      7  C   UNL     1       2.572  -5.149   0.576  0.00  0.00    +0.049 A 
ATOM      8  C   UNL     1       1.807  -4.020   0.923  0.00  0.00    -0.001 A 
ATOM      9  C   UNL     1       0.950  -4.072   2.027  0.00  0.00    +0.013 A 
ATOM     10  C   UNL     1       1.931  -2.804   0.118  0.00  0.00    +0.017 A 
ATOM     11  C   UNL     1       2.775  -2.813  -0.943  0.00  0.00    +0.001 A 
ATOM     12  C   UNL     1       3.520  -3.972  -1.249  0.00  0.00    +0.251 A 
ATOM     13  O   UNL     1       4.277  -3.957  -2.204  0.00  0.00    -0.268 OA
ATOM     14  N   UNL     1       3.417  -5.092  -0.512  0.00  0.00    -0.322 N 
ATOM     15  H   UNL     1       3.943  -5.871  -0.750  0.00  0.00    +0.169 HD
BRANCH   4  17
ATOM     16  C   UNL     1      -1.444  -5.758   3.502  0.00  0.00    +0.009 C 
ATOM     17  C   UNL     1      -0.063  -5.277   3.951  0.00  0.00    +0.032 C 
ENDBRANCH   4  17
ENDBRANCH   3  11
ENDBRANCH   1   3
BRANCH   1  18
ATOM     18  C   UNL     1       3.819  -0.298   0.053  0.00  0.00    -0.042 C 
BRANCH  18  19
ATOM     19  C   UNL     1       2.836   0.844   0.016  0.00  0.00    -0.064 A 
ATOM     20  C   UNL     1       1.478   0.586  -0.002  0.00  0.00    +0.002 A 
ATOM     21  C   UNL     1       0.577   1.634  -0.037  0.00  0.00    +0.000 A 
ATOM     22  C   UNL     1       1.033   2.938  -0.054  0.00  0.00    +0.000 A 
ATOM     23  C   UNL     1       2.391   3.196  -0.036  0.00  0.00    +0.000 A 
ATOM     24  C   UNL     1       3.293   2.148  -0.001  0.00  0.00    +0.002 A 
ENDBRANCH  18  19
ENDBRANCH   1  18
BRANCH   1  25
ATOM     25  C   UNL     1       5.309  -1.551  -1.386  0.00  0.00    +0.003 C 
BRANCH  25  26
ATOM     26  C   UNL     1       6.407  -0.791  -0.688  0.00  0.00    +0.138 A 
ATOM     27  N   UNL     1       6.673   0.487  -0.806  0.00  0.00    -0.115 NA
ATOM     28  N   UNL     1       7.680   0.756  -0.050  0.00  0.00    -0.023 NA
ATOM     29  N   UNL     1       8.070  -0.319   0.542  0.00  0.00    -0.044 NA
ATOM     30  N   UNL     1       7.310  -1.295   0.175  0.00  0.00    -0.231 N 
BRANCH  30  31
ATOM     31  C   UNL     1       7.410  -2.688   0.614  0.00  0.00    +0.152 C 
BRANCH  31  32
ATOM     32  C   UNL     1       8.337  -3.456  -0.331  0.00  0.00    +0.058 C 
BRANCH  32  33
ATOM     33  C   UNL     1       8.440  -4.890   0.121  0.00  0.00    -0.046 A 
ATOM     34  C   UNL     1       9.428  -5.264   1.013  0.00  0.00    +0.004 A 
ATOM     35  C   UNL     1       9.519  -6.578   1.431  0.00  0.00    +0.000 A 
ATOM     36  C   UNL     1       8.629  -7.520   0.950  0.00  0.00    +0.000 A 
ATOM     37  C   UNL     1       7.645  -7.147   0.055  0.00  0.00    +0.000 A 
ATOM     38  C   UNL     1       7.550  -5.832  -0.360  0.00  0.00    +0.004 A 
ENDBRANCH  32  33
ENDBRANCH  31  32
ENDBRANCH  30  31
ENDBRANCH  25  26
BRANCH  25  39
ATOM     39  C   UNL     1       5.690  -1.765  -2.853  0.00  0.00    -0.011 C 
ATOM     40  C   UNL     1       5.950  -0.410  -3.515  0.00  0.00    +0.002 C 
ENDBRANCH  25  39
ENDBRANCH   1  25
TORSDOF 11
