REMARK  Name = ZINC35888489
REMARK  7 active torsions:
REMARK  status: ('A' for Active; 'I' for Inactive)
REMARK    1  A    between atoms: C_7  and  C_11
REMARK    2  A    between atoms: C_11  and  C_13
REMARK    3  A    between atoms: C_11  and  C_27
REMARK    4  A    between atoms: C_13  and  C_14
REMARK    5  A    between atoms: N_16  and  C_17
REMARK    6  A    between atoms: C_17  and  C_18
REMARK    7  A    between atoms: C_18  and  C_19
REMARK                            x       y       z     vdW  Elec       q    Type
REMARK                         _______ _______ _______ _____ _____    ______ ____
ROOT
ATOM      1  C   UNL     1       0.666  -3.275  -0.021  0.00  0.00    +0.060 C 
ENDROOT
BRANCH   1   8
ATOM      2  C   UNL     1      -0.017   1.362   0.009  0.00  0.00    +0.001 A 
ATOM      3  C   UNL     1       1.170   2.083   0.002  0.00  0.00    +0.002 A 
ATOM      4  C   UNL     1       2.386   1.436  -0.013  0.00  0.00    +0.026 A 
ATOM      5  C   UNL     1       2.428   0.046  -0.021  0.00  0.00    +0.047 A 
ATOM      6  C   UNL     1       1.223  -0.681  -0.013  0.00  0.00    +0.003 A 
ATOM      7  C   UNL     1       0.002  -0.004   0.002  0.00  0.00    +0.010 A 
ATOM      8  C   UNL     1       1.604  -2.095  -0.025  0.00  0.00    -0.015 A 
ATOM      9  C   UNL     1       2.945  -2.141  -0.038  0.00  0.00    +0.087 A 
ATOM     10  N   UNL     1       3.455  -0.871  -0.036  0.00  0.00    -0.360 N 
ATOM     11  H   UNL     1       4.399  -0.650  -0.044  0.00  0.00    +0.165 HD
ENDBRANCH   1   8
BRANCH   1  12
ATOM     12  C   UNL     1       0.898  -4.104  -1.258  0.00  0.00    -0.036 A 
ATOM     13  C   UNL     1       2.139  -4.669  -1.488  0.00  0.00    +0.008 A 
ATOM     14  C   UNL     1       2.356  -5.430  -2.622  0.00  0.00    +0.050 A 
ATOM     15  C   UNL     1       1.329  -5.629  -3.530  0.00  0.00    +0.166 A 
ATOM     16  C   UNL     1       0.079  -5.060  -3.299  0.00  0.00    +0.167 A 
ATOM     17  C   UNL     1      -0.133  -4.303  -2.158  0.00  0.00    +0.053 A 
ATOM     18  O   UNL     1      -0.752  -5.399  -4.327  0.00  0.00    -0.453 OA
ATOM     19  C   UNL     1       0.113  -5.838  -5.392  0.00  0.00    +0.466 C 
ATOM     20  O   UNL     1       1.281  -6.324  -4.704  0.00  0.00    -0.453 OA
ENDBRANCH   1  12
BRANCH   1  21
ATOM     21  C   UNL     1       0.927  -4.130   1.221  0.00  0.00    +0.108 C 
BRANCH  21  22
ATOM     22  C   UNL     1      -0.090  -5.240   1.289  0.00  0.00    +0.214 C 
ATOM     23  O   UNL     1      -0.939  -5.338   0.429  0.00  0.00    -0.276 OA
ATOM     24  N   UNL     1      -0.055  -6.124   2.306  0.00  0.00    -0.315 N 
ATOM     25  H   UNL     1       0.624  -6.045   2.994  0.00  0.00    +0.149 HD
BRANCH  24  26
ATOM     26  C   UNL     1      -1.044  -7.204   2.372  0.00  0.00    +0.109 C 
BRANCH  26  27
ATOM     27  C   UNL     1      -0.783  -8.058   3.615  0.00  0.00    +0.055 C 
BRANCH  27  28
ATOM     28  C   UNL     1      -1.800  -9.168   3.683  0.00  0.00    -0.027 A 
ATOM     29  C   UNL     1      -2.950  -9.007   4.433  0.00  0.00    +0.006 A 
ATOM     30  C   UNL     1      -3.882 -10.025   4.496  0.00  0.00    +0.020 A 
ATOM     31  C   UNL     1      -3.666 -11.206   3.807  0.00  0.00    +0.042 A 
ATOM     32  C   UNL     1      -2.516 -11.367   3.056  0.00  0.00    +0.040 A 
ATOM     33  C   UNL     1      -1.585 -10.346   2.990  0.00  0.00    +0.046 A 
ATOM     34 CL   UNL     1      -0.144 -10.546   2.043  0.00  0.00    -0.083 Cl
ATOM     35 CL   UNL     1      -4.838 -12.485   3.887  0.00  0.00    -0.083 Cl
ENDBRANCH  27  28
ENDBRANCH  26  27
ENDBRANCH  24  26
ENDBRANCH  21  22
ENDBRANCH   1  21
TORSDOF 7
