REMARK  Name = ZINC17072827
REMARK  3 active torsions:
REMARK  status: ('A' for Active; 'I' for Inactive)
REMARK    1  A    between atoms: C_8  and  C_13
REMARK    2  A    between atoms: C_13  and  C_14
REMARK    3  A    between atoms: N_16  and  C_17
REMARK                            x       y       z     vdW  Elec       q    Type
REMARK                         _______ _______ _______ _____ _____    ______ ____
ROOT
ATOM      1  C   UNL     1       1.338   6.062   1.850  0.00  0.00    +0.129 C 
ENDROOT
BRANCH   1   9
ATOM      2  C   UNL     1      -1.177   1.744   0.008  0.00  0.00    +0.002 A 
ATOM      3  C   UNL     1       0.037   1.081  -0.002  0.00  0.00    +0.004 A 
ATOM      4  C   UNL     1       1.220   1.795  -0.008  0.00  0.00    +0.048 A 
ATOM      5  C   UNL     1       1.196   3.182   0.002  0.00  0.00    +0.152 A 
ATOM      6  C   UNL     1      -0.027   3.848   0.011  0.00  0.00    +0.071 A 
ATOM      7  C   UNL     1      -1.211   3.125   0.020  0.00  0.00    +0.026 A 
ATOM      8  N   UNL     1      -0.070   5.251   0.001  0.00  0.00    -0.328 N 
ATOM      9  C   UNL     1       1.169   5.978   0.332  0.00  0.00    +0.189 C 
ATOM     10  C   UNL     1       2.312   5.184  -0.275  0.00  0.00    +0.333 C 
ATOM     11  O   UNL     1       3.134   5.710  -0.987  0.00  0.00    -0.248 OA
ATOM     12  O   UNL     1       2.371   3.868   0.014  0.00  0.00    -0.423 OA
ATOM     13  H   UNL     1      -0.888   5.726  -0.215  0.00  0.00    +0.147 HD
ENDBRANCH   1   9
BRANCH   1  14
ATOM     14  C   UNL     1       0.227   6.896   2.434  0.00  0.00    +0.220 C 
ATOM     15  O   UNL     1      -0.617   7.376   1.707  0.00  0.00    -0.275 OA
ATOM     16  N   UNL     1       0.171   7.109   3.763  0.00  0.00    -0.284 N 
ATOM     17  H   UNL     1       0.797   6.660   4.353  0.00  0.00    +0.155 HD
BRANCH  16  18
ATOM     18  C   UNL     1      -0.792   7.976   4.293  0.00  0.00    +0.053 A 
ATOM     19  C   UNL     1      -1.329   8.985   3.505  0.00  0.00    +0.025 A 
ATOM     20  C   UNL     1      -2.278   9.840   4.029  0.00  0.00    +0.003 A 
ATOM     21  C   UNL     1      -2.695   9.693   5.340  0.00  0.00    +0.021 A 
ATOM     22  C   UNL     1      -2.163   8.689   6.130  0.00  0.00    +0.061 A 
ATOM     23  C   UNL     1      -1.215   7.826   5.608  0.00  0.00    +0.080 A 
ATOM     24 CL   UNL     1      -0.552   6.563   6.596  0.00  0.00    -0.080 Cl
ATOM     25 CL   UNL     1      -2.690   8.507   7.774  0.00  0.00    -0.082 Cl
ENDBRANCH  16  18
ENDBRANCH   1  14
TORSDOF 3
