REMARK  Name = ZINC54200739
REMARK  7 active torsions:
REMARK  status: ('A' for Active; 'I' for Inactive)
REMARK    1  A    between atoms: C_4  and  C_7
REMARK    2  A    between atoms: C_7  and  C_9
REMARK    3  A    between atoms: C_7  and  N_20
REMARK    4  A    between atoms: C_9  and  C_10
REMARK    5  A    between atoms: N_12  and  C_13
REMARK    6  A    between atoms: N_20  and  S_21
REMARK    7  A    between atoms: S_21  and  C_24
REMARK                            x       y       z     vdW  Elec       q    Type
REMARK                         _______ _______ _______ _____ _____    ______ ____
ROOT
ATOM      1  C   UNL     1       3.710  -0.710  -0.037  0.00  0.00    +0.115 C 
ENDROOT
BRANCH   1   5
ATOM      2  C   UNL     1      -0.030   1.355   0.013  0.00  0.00    +0.000 A 
ATOM      3  C   UNL     1       1.154   2.069  -0.001  0.00  0.00    +0.000 A 
ATOM      4  C   UNL     1       2.364   1.401  -0.017  0.00  0.00    +0.005 A 
ATOM      5  C   UNL     1       2.390   0.019  -0.019  0.00  0.00    -0.028 A 
ATOM      6  C   UNL     1       1.207  -0.696  -0.004  0.00  0.00    +0.005 A 
ATOM      7  C   UNL     1      -0.003  -0.028   0.010  0.00  0.00    +0.000 A 
ENDBRANCH   1   5
BRANCH   1   8
ATOM      8  N   UNL     1       3.638  -1.873   0.850  0.00  0.00    -0.182 NA
ATOM      9  H   UNL     1       3.276  -2.711   0.523  0.00  0.00    +0.149 HD
BRANCH   8  10
ATOM     10  S   UNL     1       4.174  -1.757   2.413  0.00  0.00    +0.059 S 
ATOM     11  O   UNL     1       3.949  -3.024   3.015  0.00  0.00    -0.153 OA
ATOM     12  O   UNL     1       5.461  -1.157   2.357  0.00  0.00    -0.153 OA
BRANCH  10  13
ATOM     13  C   UNL     1       3.121  -0.612   3.241  0.00  0.00    +0.105 A 
ATOM     14  C   UNL     1       3.432   0.735   3.245  0.00  0.00    +0.030 A 
ATOM     15  C   UNL     1       2.606   1.633   3.894  0.00  0.00    +0.022 A 
ATOM     16  C   UNL     1       1.468   1.184   4.540  0.00  0.00    +0.041 A 
ATOM     17  C   UNL     1       1.158  -0.164   4.536  0.00  0.00    +0.022 A 
ATOM     18  C   UNL     1       1.981  -1.061   3.882  0.00  0.00    +0.030 A 
ATOM     19 CL   UNL     1       0.431   2.312   5.357  0.00  0.00    -0.084 Cl
ENDBRANCH  10  13
ENDBRANCH   8  10
ENDBRANCH   1   8
BRANCH   1  20
ATOM     20  C   UNL     1       4.016  -1.174  -1.463  0.00  0.00    +0.121 C 
BRANCH  20  21
ATOM     21  C   UNL     1       5.389  -1.793  -1.505  0.00  0.00    +0.219 C 
ATOM     22  O   UNL     1       6.057  -1.857  -0.494  0.00  0.00    -0.275 OA
ATOM     23  N   UNL     1       5.875  -2.276  -2.666  0.00  0.00    -0.285 N 
ATOM     24  H   UNL     1       5.317  -2.286  -3.458  0.00  0.00    +0.155 HD
BRANCH  23  25
ATOM     25  C   UNL     1       7.186  -2.762  -2.727  0.00  0.00    +0.033 A 
ATOM     26  C   UNL     1       7.944  -2.578  -3.876  0.00  0.00    +0.024 A 
ATOM     27  C   UNL     1       9.237  -3.059  -3.934  0.00  0.00    +0.017 A 
ATOM     28  C   UNL     1       9.778  -3.724  -2.848  0.00  0.00    +0.018 A 
ATOM     29  C   UNL     1       9.026  -3.909  -1.702  0.00  0.00    +0.017 A 
ATOM     30  C   UNL     1       7.734  -3.426  -1.637  0.00  0.00    +0.024 A 
ATOM     31 BR   UNL     1      11.550  -4.381  -2.930  0.00  0.00    -0.050 Br
ENDBRANCH  23  25
ENDBRANCH  20  21
ENDBRANCH   1  20
TORSDOF 7
