REMARK  Name = ZINC12428103
REMARK  5 active torsions:
REMARK  status: ('A' for Active; 'I' for Inactive)
REMARK    1  A    between atoms: C_1  and  N_2
REMARK    2  A    between atoms: N_20  and  C_23
REMARK    3  A    between atoms: C_23  and  C_24
REMARK    4  A    between atoms: C_31  and  C_35
REMARK    5  A    between atoms: C_32  and  N_34
REMARK                            x       y       z     vdW  Elec       q    Type
REMARK                         _______ _______ _______ _____ _____    ______ ____
ROOT
ATOM      1  C   UNL     1      -2.818   4.855  -4.813  0.00  0.00    +0.152 C 
ATOM      2  N   UNL     1      -3.385   4.378  -3.549  0.00  0.00    -0.311 N 
ATOM      3  C   UNL     1      -4.661   3.852  -3.535  0.00  0.00    +0.055 A 
ATOM      4  C   UNL     1      -5.414   3.765  -4.701  0.00  0.00    +0.026 A 
ATOM      5  C   UNL     1      -6.684   3.233  -4.656  0.00  0.00    +0.002 A 
ATOM      6  C   UNL     1      -7.221   2.783  -3.458  0.00  0.00    +0.001 A 
ATOM      7  C   UNL     1      -6.499   2.861  -2.300  0.00  0.00    +0.013 A 
ATOM      8  C   UNL     1      -5.210   3.397  -2.324  0.00  0.00    +0.041 A 
ATOM      9  C   UNL     1      -4.406   3.498  -1.097  0.00  0.00    +0.149 A 
ATOM     10  C   UNL     1      -3.151   4.023  -1.183  0.00  0.00    +0.084 A 
ATOM     11  C   UNL     1      -2.655   4.460  -2.425  0.00  0.00    +0.260 A 
ATOM     12  O   UNL     1      -1.530   4.927  -2.482  0.00  0.00    -0.267 OA
ATOM     13  C   UNL     1      -2.292   4.139   0.045  0.00  0.00    +0.147 C 
ATOM     14  C   UNL     1      -1.197   3.118   0.029  0.00  0.00    -0.001 A 
ATOM     15  C   UNL     1      -1.234   1.740   0.017  0.00  0.00    +0.007 A 
ATOM     16  C   UNL     1      -0.013   1.076   0.008  0.00  0.00    +0.000 A 
ATOM     17  C   UNL     1       1.181   1.768   0.000  0.00  0.00    +0.002 A 
ATOM     18  C   UNL     1       1.227   3.153   0.005  0.00  0.00    +0.024 A 
ATOM     19  C   UNL     1       0.007   3.832   0.020  0.00  0.00    +0.041 A 
ATOM     20  N   UNL     1      -0.241   5.193   0.027  0.00  0.00    -0.265 N 
ATOM     21  C   UNL     1      -1.562   5.467   0.041  0.00  0.00    +0.241 C 
ATOM     22  O   UNL     1      -2.070   6.568   0.050  0.00  0.00    -0.274 OA
ATOM     23  C   UNL     1      -3.123   4.013   1.289  0.00  0.00    +0.110 C 
ATOM     24  C   UNL     1      -4.374   3.494   1.237  0.00  0.00    +0.199 C 
ATOM     25  O   UNL     1      -4.912   3.075   0.078  0.00  0.00    -0.440 OA
ENDROOT
BRANCH  24  26
ATOM     26  N   UNL     1      -5.109   3.394   2.392  0.00  0.00    -0.328 N 
ATOM     27  H   UNL     1      -4.731   3.694   3.234  0.00  0.00    +0.145 HD
ATOM     28  H   UNL     1      -6.005   3.025   2.367  0.00  0.00    +0.145 HD
ENDBRANCH  24  26
BRANCH  23  29
ATOM     29  C   UNL     1      -2.588   4.446   2.545  0.00  0.00    +0.102 C 
ATOM     30  N   UNL     1      -2.163   4.789   3.541  0.00  0.00    -0.191 NA
ENDBRANCH  23  29
BRANCH  20  31
ATOM     31  C   UNL     1       0.807   6.217   0.021  0.00  0.00    +0.148 C 
BRANCH  31  32
ATOM     32  C   UNL     1       1.153   6.572  -1.402  0.00  0.00    -0.030 A 
ATOM     33  C   UNL     1       2.152   5.882  -2.063  0.00  0.00    +0.008 A 
ATOM     34  C   UNL     1       2.467   6.205  -3.370  0.00  0.00    +0.038 A 
ATOM     35  C   UNL     1       1.789   7.226  -4.013  0.00  0.00    +0.123 A 
ATOM     36  C   UNL     1       0.792   7.920  -3.348  0.00  0.00    +0.038 A 
ATOM     37  C   UNL     1       0.475   7.592  -2.044  0.00  0.00    +0.008 A 
ATOM     38  F   UNL     1       2.099   7.545  -5.289  0.00  0.00    -0.205 F 
ENDBRANCH  31  32
ENDBRANCH  20  31
TORSDOF 4
