REMARK  Name = ZINC17784193
REMARK  8 active torsions:
REMARK  status: ('A' for Active; 'I' for Inactive)
REMARK    1  A    between atoms: C_1  and  C_2
REMARK    2  A    between atoms: C_3  and  C_15
REMARK    3  A    between atoms: N_5  and  C_7
REMARK    4  A    between atoms: C_15  and  C_17
REMARK    5  A    between atoms: C_15  and  C_24
REMARK    6  A    between atoms: C_21  and  O_23
REMARK    7  A    between atoms: C_26  and  C_38
REMARK    8  A    between atoms: N_28  and  C_31
REMARK                            x       y       z     vdW  Elec       q    Type
REMARK                         _______ _______ _______ _____ _____    ______ ____
ROOT
ATOM      1  C   UNL     1      -0.489   4.072  -0.737  0.00  0.00    +0.074 C 
ENDROOT
BRANCH   1   4
ATOM      2  C   UNL     1      -0.148   1.379   0.789  0.00  0.00    +0.065 C 
ATOM      3  C   UNL     1      -0.830   1.558  -0.543  0.00  0.00    +0.039 A 
ATOM      4  C   UNL     1      -0.976   2.724  -1.203  0.00  0.00    +0.047 A 
ATOM      5  C   UNL     1      -1.668   2.463  -2.409  0.00  0.00    +0.276 A 
ATOM      6  N   UNL     1      -1.926   1.140  -2.453  0.00  0.00    -0.219 N 
ATOM      7  N   UNL     1      -1.398   0.565  -1.289  0.00  0.00    -0.294 N 
ATOM      8  O   UNL     1      -1.975   3.284  -3.254  0.00  0.00    -0.266 OA
ATOM      9  H   UNL     1      -1.433  -0.376  -1.053  0.00  0.00    +0.187 HD
BRANCH   6  10
ATOM     10  C   UNL     1      -2.595   0.463  -3.478  0.00  0.00    +0.067 A 
ATOM     11  C   UNL     1      -3.057   1.161  -4.586  0.00  0.00    +0.029 A 
ATOM     12  C   UNL     1      -3.717   0.490  -5.597  0.00  0.00    +0.022 A 
ATOM     13  C   UNL     1      -3.918  -0.877  -5.506  0.00  0.00    +0.041 A 
ATOM     14  C   UNL     1      -3.458  -1.574  -4.404  0.00  0.00    +0.022 A 
ATOM     15  C   UNL     1      -2.792  -0.909  -3.393  0.00  0.00    +0.029 A 
ATOM     16 CL   UNL     1      -4.748  -1.717  -6.779  0.00  0.00    -0.084 Cl
ENDBRANCH   6  10
ENDBRANCH   1   4
BRANCH   1  17
ATOM     17  C   UNL     1       0.359   4.716  -1.836  0.00  0.00    +0.135 C 
ATOM     18  C   UNL     1       1.583   3.874  -2.127  0.00  0.00    +0.047 C 
ATOM     19  N   UNL     1       2.605   4.591  -1.862  0.00  0.00    -0.181 NA
ATOM     20  N   UNL     1       2.277   5.865  -1.410  0.00  0.00    -0.160 N 
ATOM     21  C   UNL     1       0.935   6.036  -1.362  0.00  0.00    +0.249 C 
ATOM     22  O   UNL     1       0.326   7.026  -1.015  0.00  0.00    -0.273 OA
ATOM     23  C   UNL     1       1.594   2.454  -2.634  0.00  0.00    +0.063 C 
BRANCH  20  24
ATOM     24  C   UNL     1       3.212   6.843  -1.052  0.00  0.00    +0.060 A 
ATOM     25  C   UNL     1       2.783   8.086  -0.605  0.00  0.00    +0.027 A 
ATOM     26  C   UNL     1       3.707   9.049  -0.252  0.00  0.00    +0.022 A 
ATOM     27  C   UNL     1       5.061   8.777  -0.344  0.00  0.00    +0.041 A 
ATOM     28  C   UNL     1       5.492   7.540  -0.789  0.00  0.00    +0.022 A 
ATOM     29  C   UNL     1       4.571   6.571  -1.138  0.00  0.00    +0.027 A 
ATOM     30 CL   UNL     1       6.221   9.990   0.100  0.00  0.00    -0.084 Cl
ENDBRANCH  20  24
ENDBRANCH   1  17
BRANCH   1  31
ATOM     31  C   UNL     1      -1.670   4.956  -0.431  0.00  0.00    -0.035 A 
ATOM     32  C   UNL     1      -2.472   5.418  -1.459  0.00  0.00    +0.004 A 
ATOM     33  C   UNL     1      -3.557   6.228  -1.182  0.00  0.00    +0.004 A 
ATOM     34  C   UNL     1      -3.843   6.580   0.123  0.00  0.00    +0.045 A 
ATOM     35  C   UNL     1      -3.040   6.118   1.156  0.00  0.00    +0.117 A 
ATOM     36  C   UNL     1      -1.956   5.299   0.876  0.00  0.00    +0.049 A 
BRANCH  35  37
ATOM     37  O   UNL     1      -3.320   6.462   2.441  0.00  0.00    -0.507 OA
ATOM     38  H   UNL     1      -3.914   5.847   2.892  0.00  0.00    +0.292 HD
ENDBRANCH  35  37
ENDBRANCH   1  31
TORSDOF 6
