REMARK  Name = ZINC39197612
REMARK  14 active torsions:
REMARK  status: ('A' for Active; 'I' for Inactive)
REMARK    1  A    between atoms: C_1  and  C_2
REMARK    2  A    between atoms: C_2  and  N_3
REMARK    3  A    between atoms: N_3  and  C_4
REMARK    4  A    between atoms: N_3  and  S_6
REMARK    5  A    between atoms: C_4  and  C_5
REMARK    6  A    between atoms: S_6  and  C_9
REMARK    7  A    between atoms: C_12  and  O_33
REMARK    8  A    between atoms: C_13  and  N_15
REMARK    9  A    between atoms: C_16  and  C_18
REMARK   10  A    between atoms: C_18  and  N_19
REMARK   11  A    between atoms: C_24  and  O_32
REMARK   12  A    between atoms: C_25  and  O_31
REMARK   13  A    between atoms: C_28  and  C_30
REMARK   14  A    between atoms: O_33  and  C_34
REMARK                            x       y       z     vdW  Elec       q    Type
REMARK                         _______ _______ _______ _____ _____    ______ ____
ROOT
ATOM      1  N   UNL     1       1.460   2.318  -6.228  0.00  0.00    -0.284 N 
ATOM      2  C   UNL     1       2.554   1.540  -6.351  0.00  0.00    +0.201 C 
ATOM      3  O   UNL     1       2.661   0.534  -5.682  0.00  0.00    -0.278 OA
ATOM      4  H   UNL     1       1.336   3.078  -6.819  0.00  0.00    +0.155 HD
ENDROOT
BRANCH   1   9
ATOM      5  C   UNL     1      -0.083   1.037  -3.144  0.00  0.00    +0.107 A 
ATOM      6  C   UNL     1      -1.390   1.460  -3.306  0.00  0.00    +0.032 A 
ATOM      7  C   UNL     1      -1.756   2.167  -4.435  0.00  0.00    +0.049 A 
ATOM      8  C   UNL     1      -0.814   2.455  -5.409  0.00  0.00    +0.141 A 
ATOM      9  C   UNL     1       0.503   2.030  -5.246  0.00  0.00    +0.077 A 
ATOM     10  C   UNL     1       0.865   1.326  -4.107  0.00  0.00    +0.055 A 
BRANCH   5  11
ATOM     11  S   UNL     1       0.377   0.136  -1.701  0.00  0.00    +0.061 S 
ATOM     12  O   UNL     1       1.536  -0.612  -2.042  0.00  0.00    -0.153 OA
ATOM     13  O   UNL     1      -0.808  -0.477  -1.211  0.00  0.00    -0.153 OA
BRANCH  11  14
ATOM     14  N   UNL     1       0.844   1.241  -0.561  0.00  0.00    -0.177 NA
BRANCH  14  16
ATOM     15  C   UNL     1      -0.663   3.129  -0.181  0.00  0.00    +0.022 C 
ATOM     16  C   UNL     1      -0.143   1.799   0.367  0.00  0.00    +0.106 C 
ENDBRANCH  14  16
BRANCH  14  17
ATOM     17  C   UNL     1       2.245   1.662  -0.480  0.00  0.00    +0.106 C 
ATOM     18  C   UNL     1       2.971   0.818   0.570  0.00  0.00    +0.022 C 
ENDBRANCH  14  17
ENDBRANCH  11  14
ENDBRANCH   5  11
BRANCH   8  19
ATOM     19  O   UNL     1      -1.173   3.150  -6.521  0.00  0.00    -0.493 OA
ATOM     20  C   UNL     1      -2.540   3.553  -6.621  0.00  0.00    +0.277 C 
ENDBRANCH   8  19
ENDBRANCH   1   9
BRANCH   2  21
ATOM     21  C   UNL     1       3.643   1.920  -7.321  0.00  0.00    +0.020 C 
BRANCH  21  22
ATOM     22  N   UNL     1       4.717   0.919  -7.268  0.00  0.00    +0.390 N 
ATOM     23  C   UNL     1       5.359   0.955  -5.945  0.00  0.00    -0.073 C 
ATOM     24  C   UNL     1       6.249  -0.280  -5.802  0.00  0.00    +0.017 C 
ATOM     25  C   UNL     1       7.157  -0.397  -7.000  0.00  0.00    -0.044 A 
ATOM     26  C   UNL     1       8.264  -1.228  -6.915  0.00  0.00    +0.053 A 
ATOM     27  C   UNL     1       9.119  -1.366  -7.994  0.00  0.00    +0.158 A 
ATOM     28  C   UNL     1       8.864  -0.664  -9.169  0.00  0.00    +0.158 A 
ATOM     29  C   UNL     1       7.759   0.164  -9.248  0.00  0.00    +0.051 A 
ATOM     30  C   UNL     1       6.905   0.300  -8.163  0.00  0.00    -0.054 A 
ATOM     31  C   UNL     1       5.720   1.221  -8.293  0.00  0.00    -0.040 C 
ATOM     32  C   UNL     1       5.095   1.044  -9.678  0.00  0.00    -0.008 C 
ATOM     33  H   UNL     1       4.331   0.001  -7.433  0.00  0.00    -0.080 HD
BRANCH  28  34
ATOM     34  O   UNL     1       9.698  -0.794 -10.235  0.00  0.00    -0.503 OA
ATOM     35  H   UNL     1       9.454  -1.507 -10.841  0.00  0.00    +0.292 HD
ENDBRANCH  28  34
BRANCH  27  36
ATOM     36  O   UNL     1      10.203  -2.181  -7.906  0.00  0.00    -0.503 OA
ATOM     37  H   UNL     1      10.033  -3.093  -8.179  0.00  0.00    +0.292 HD
ENDBRANCH  27  36
ENDBRANCH  21  22
ENDBRANCH   2  21
TORSDOF 10
