REMARK  Name = ZINC14041451
REMARK  11 active torsions:
REMARK  status: ('A' for Active; 'I' for Inactive)
REMARK    1  A    between atoms: C_1  and  C_2
REMARK    2  A    between atoms: C_2  and  C_3
REMARK    3  A    between atoms: C_3  and  C_4
REMARK    4  A    between atoms: C_4  and  O_5
REMARK    5  A    between atoms: O_5  and  C_6
REMARK    6  A    between atoms: C_9  and  C_13
REMARK    7  A    between atoms: N_15  and  C_16
REMARK    8  A    between atoms: C_16  and  N_18
REMARK    9  A    between atoms: N_18  and  N_19
REMARK   10  A    between atoms: C_20  and  C_22
REMARK   11  A    between atoms: C_26  and  N_28
REMARK                            x       y       z     vdW  Elec       q    Type
REMARK                         _______ _______ _______ _____ _____    ______ ____
ROOT
ATOM      1  C   UNL     1      -4.853   3.840   0.065  0.00  0.00    +0.153 C 
ATOM      2  S   UNL     1      -4.873   5.552   0.072  0.00  0.00    -0.017 S 
ENDROOT
BRANCH   1   5
ATOM      3  C   UNL     1      -2.519   3.867   0.044  0.00  0.00    +0.250 C 
ATOM      4  O   UNL     1      -2.533   5.083   0.049  0.00  0.00    -0.270 OA
ATOM      5  N   UNL     1      -3.678   3.180   0.051  0.00  0.00    -0.263 N 
ATOM      6  H   UNL     1      -3.667   2.210   0.047  0.00  0.00    +0.157 HD
BRANCH   3  10
ATOM      7  C   UNL     1       1.182   1.786   0.000  0.00  0.00    +0.134 A 
ATOM      8  C   UNL     1      -0.013   1.076   0.008  0.00  0.00    +0.047 A 
ATOM      9  C   UNL     1      -1.215   1.747   0.017  0.00  0.00    +0.017 A 
ATOM     10  C   UNL     1      -1.233   3.145   0.029  0.00  0.00    +0.038 A 
ATOM     11  C   UNL     1      -0.030   3.856   0.022  0.00  0.00    +0.032 A 
ATOM     12  C   UNL     1       1.169   3.177   0.007  0.00  0.00    +0.060 A 
ATOM     13 BR   UNL     1       2.798   4.137  -0.003  0.00  0.00    -0.046 Br
BRANCH   7  14
ATOM     14  O   UNL     1       2.365   1.121  -0.015  0.00  0.00    -0.491 OA
BRANCH  14  15
ATOM     15  C   UNL     1       2.306  -0.307  -0.022  0.00  0.00    +0.229 C 
BRANCH  15  16
ATOM     16  C   UNL     1       3.726  -0.876  -0.038  0.00  0.00    +0.041 C 
BRANCH  16  18
ATOM     17  C   UNL     1       5.083  -2.974  -0.062  0.00  0.00    +0.004 C 
ATOM     18  C   UNL     1       3.663  -2.405  -0.046  0.00  0.00    -0.000 C 
ENDBRANCH  16  18
ENDBRANCH  15  16
ENDBRANCH  14  15
ENDBRANCH   7  14
ENDBRANCH   3  10
ENDBRANCH   1   5
BRANCH   1  19
ATOM     19  N   UNL     1      -6.013   3.153   0.072  0.00  0.00    -0.245 N 
ATOM     20  H   UNL     1      -6.858   3.628   0.082  0.00  0.00    +0.172 HD
BRANCH  19  21
ATOM     21  N   UNL     1      -5.996   1.752   0.066  0.00  0.00    -0.231 N 
ATOM     22  C   UNL     1      -7.155   1.064   0.073  0.00  0.00    +0.260 C 
ATOM     23  O   UNL     1      -8.215   1.660   0.085  0.00  0.00    -0.269 OA
ATOM     24  H   UNL     1      -5.151   1.277   0.056  0.00  0.00    +0.173 HD
BRANCH  22  25
ATOM     25  C   UNL     1      -7.138  -0.414   0.067  0.00  0.00    +0.040 A 
ATOM     26  C   UNL     1      -5.923  -1.101   0.047  0.00  0.00    +0.013 A 
ATOM     27  C   UNL     1      -5.914  -2.480   0.046  0.00  0.00    +0.003 A 
ATOM     28  C   UNL     1      -7.106  -3.183   0.054  0.00  0.00    +0.033 A 
ATOM     29  C   UNL     1      -8.314  -2.508   0.068  0.00  0.00    +0.127 A 
ATOM     30  C   UNL     1      -8.337  -1.129   0.074  0.00  0.00    +0.045 A 
BRANCH  29  31
ATOM     31  N   UNL     1      -9.584  -3.268   0.076  0.00  0.00    +0.056 N 
ATOM     32  O   UNL     1     -10.648  -2.676   0.088  0.00  0.00    -0.126 OA
ATOM     33  O   UNL     1      -9.565  -4.486   0.071  0.00  0.00    -0.126 OA
ENDBRANCH  29  31
ENDBRANCH  22  25
ENDBRANCH  19  21
ENDBRANCH   1  19
TORSDOF 10
