REMARK  Name = ZINC34923017
REMARK  11 active torsions:
REMARK  status: ('A' for Active; 'I' for Inactive)
REMARK    1  A    between atoms: C_1  and  C_2
REMARK    2  A    between atoms: C_2  and  C_3
REMARK    3  A    between atoms: C_4  and  C_32
REMARK    4  A    between atoms: C_5  and  C_25
REMARK    5  A    between atoms: C_8  and  C_13
REMARK    6  A    between atoms: C_14  and  N_16
REMARK    7  A    between atoms: N_16  and  C_17
REMARK    8  A    between atoms: C_17  and  C_18
REMARK    9  A    between atoms: C_29  and  C_31
REMARK   10  A    between atoms: C_32  and  O_34
REMARK   11  A    between atoms: O_34  and  C_35
REMARK                            x       y       z     vdW  Elec       q    Type
REMARK                         _______ _______ _______ _____ _____    ______ ____
ROOT
ATOM      1  C   UNL     1       0.537  -0.946  -1.459  0.00  0.00    +0.056 C 
ATOM      2  C   UNL     1       1.908  -1.060  -1.324  0.00  0.00    +0.083 C 
ATOM      3  C   UNL     1       2.719  -1.335  -2.571  0.00  0.00    +0.150 C 
ATOM      4  N   UNL     1       1.971  -1.462  -3.850  0.00  0.00    -0.267 N 
ATOM      5  C   UNL     1       2.500  -1.711  -5.101  0.00  0.00    +0.048 C 
ATOM      6  C   UNL     1       1.641  -1.790  -6.141  0.00  0.00    +0.072 C 
ATOM      7  S   UNL     1       0.071  -1.510  -5.344  0.00  0.00    -0.060 S 
ATOM      8  C   UNL     1       0.614  -1.316  -3.768  0.00  0.00    +0.166 C 
ATOM      9  N   UNL     1      -0.033  -1.081  -2.645  0.00  0.00    -0.229 NA
ENDROOT
BRANCH   3  10
ATOM     10  C   UNL     1       3.485  -2.615  -2.353  0.00  0.00    -0.022 A 
ATOM     11  C   UNL     1       2.843  -3.833  -2.472  0.00  0.00    +0.006 A 
ATOM     12  C   UNL     1       3.545  -5.007  -2.272  0.00  0.00    +0.001 A 
ATOM     13  C   UNL     1       4.890  -4.962  -1.954  0.00  0.00    +0.003 A 
ATOM     14  C   UNL     1       5.532  -3.743  -1.836  0.00  0.00    -0.050 A 
ATOM     15  C   UNL     1       4.830  -2.570  -2.040  0.00  0.00    +0.009 A 
ATOM     16  C   UNL     1       6.997  -3.695  -1.489  0.00  0.00    +0.044 C 
ENDBRANCH   3  10
BRANCH   5  17
ATOM     17  C   UNL     1       3.947  -1.883  -5.295  0.00  0.00    +0.091 C 
ATOM     18  C   UNL     1       4.424  -2.278  -6.491  0.00  0.00    +0.239 C 
ATOM     19  O   UNL     1       3.584  -2.404  -7.547  0.00  0.00    -0.271 OA
BRANCH  18  20
ATOM     20  N   UNL     1       5.772  -2.556  -6.641  0.00  0.00    -0.308 N 
ATOM     21  H   UNL     1       6.360  -2.538  -5.870  0.00  0.00    +0.149 HD
BRANCH  20  22
ATOM     22  C   UNL     1       6.311  -2.877  -7.965  0.00  0.00    +0.140 C 
BRANCH  22  23
ATOM     23  C   UNL     1       7.764  -3.254  -7.838  0.00  0.00    -0.028 A 
ATOM     24  C   UNL     1       8.735  -2.270  -7.824  0.00  0.00    +0.005 A 
ATOM     25  C   UNL     1      10.069  -2.614  -7.707  0.00  0.00    +0.003 A 
ATOM     26  C   UNL     1      10.433  -3.944  -7.605  0.00  0.00    +0.038 A 
ATOM     27  C   UNL     1       9.462  -4.930  -7.620  0.00  0.00    +0.124 A 
ATOM     28  C   UNL     1       8.126  -4.583  -7.730  0.00  0.00    +0.043 A 
ATOM     29  F   UNL     1       9.817  -6.230  -7.521  0.00  0.00    -0.205 F 
ENDBRANCH  22  23
ENDBRANCH  20  22
ENDBRANCH  18  20
ENDBRANCH   5  17
BRANCH   1  31
ATOM     30  C   UNL     1      -0.350   0.833   0.023  0.00  0.00    +0.010 C 
ATOM     31  C   UNL     1      -0.314  -0.673  -0.246  0.00  0.00    +0.053 C 
ENDBRANCH   1  31
BRANCH   2  32
ATOM     32  C   UNL     1       2.526  -0.924  -0.075  0.00  0.00    +0.339 C 
ATOM     33  O   UNL     1       1.848  -0.780   0.927  0.00  0.00    -0.245 OA
BRANCH  32  34
ATOM     34  O   UNL     1       3.873  -0.953   0.019  0.00  0.00    -0.465 OA
ATOM     35  C   UNL     1       4.436  -0.809   1.325  0.00  0.00    +0.280 C 
ENDBRANCH  32  34
ENDBRANCH   2  32
TORSDOF 8
