REMARK  Name = ZINC67329062
REMARK  9 active torsions:
REMARK  status: ('A' for Active; 'I' for Inactive)
REMARK    1  A    between atoms: C_1  and  C_2
REMARK    2  A    between atoms: C_2  and  C_3
REMARK    3  A    between atoms: C_6  and  N_13
REMARK    4  A    between atoms: C_8  and  S_9
REMARK    5  A    between atoms: S_9  and  N_12
REMARK    6  A    between atoms: C_14  and  C_16
REMARK    7  A    between atoms: C_17  and  C_18
REMARK    8  A    between atoms: C_21  and  C_23
REMARK    9  A    between atoms: C_26  and  C_28
REMARK                            x       y       z     vdW  Elec       q    Type
REMARK                         _______ _______ _______ _____ _____    ______ ____
ROOT
ATOM      1  N   UNL     1       2.281  -1.260  -4.805  0.00  0.00    -0.282 N 
ATOM      2  C   UNL     1       1.444  -1.292  -5.860  0.00  0.00    +0.241 C 
ATOM      3  O   UNL     1       0.270  -1.000  -5.716  0.00  0.00    -0.270 OA
ATOM      4  H   UNL     1       3.229  -1.419  -4.933  0.00  0.00    +0.155 HD
ENDROOT
BRANCH   1   8
ATOM      5  C   UNL     1       0.796  -0.478  -0.993  0.00  0.00    -0.021 A 
ATOM      6  C   UNL     1       2.053  -0.025  -1.350  0.00  0.00    +0.007 A 
ATOM      7  C   UNL     1       2.549  -0.283  -2.613  0.00  0.00    +0.024 A 
ATOM      8  C   UNL     1       1.783  -0.998  -3.525  0.00  0.00    +0.036 A 
ATOM      9  C   UNL     1       0.521  -1.452  -3.163  0.00  0.00    +0.052 A 
ATOM     10  C   UNL     1       0.034  -1.195  -1.896  0.00  0.00    +0.110 A 
BRANCH  10  11
ATOM     11  S   UNL     1      -1.565  -1.775  -1.434  0.00  0.00    +0.056 S 
ATOM     12  O   UNL     1      -2.252  -0.666  -0.870  0.00  0.00    -0.153 OA
ATOM     13  O   UNL     1      -2.071  -2.499  -2.547  0.00  0.00    -0.153 OA
BRANCH  11  14
ATOM     14  N   UNL     1      -1.353  -2.872  -0.212  0.00  0.00    -0.204 NA
ATOM     15  H   UNL     1      -0.468  -3.023   0.156  0.00  0.00    +0.144 HD
ATOM     16  H   UNL     1      -2.113  -3.364   0.135  0.00  0.00    +0.144 HD
ENDBRANCH  11  14
ENDBRANCH  10  11
BRANCH   5  18
ATOM     17  C   UNL     1       1.244   0.698   1.144  0.00  0.00    +0.009 C 
ATOM     18  C   UNL     1       0.259  -0.195   0.387  0.00  0.00    +0.034 C 
ENDBRANCH   5  18
ENDBRANCH   1   8
BRANCH   2  19
ATOM     19  C   UNL     1       1.928  -1.666  -7.136  0.00  0.00    +0.071 C 
ATOM     20  C   UNL     1       1.085  -1.699  -8.199  0.00  0.00    +0.051 C 
BRANCH  20  21
ATOM     21  C   UNL     1       1.570  -2.072  -9.476  0.00  0.00    +0.128 A 
ATOM     22  C   UNL     1       2.866  -2.432  -9.780  0.00  0.00    +0.049 A 
ATOM     23  C   UNL     1       2.889  -2.720 -11.153  0.00  0.00    +0.045 A 
ATOM     24  C   UNL     1       1.636  -2.530 -11.622  0.00  0.00    +0.109 A 
ATOM     25  O   UNL     1       0.844  -2.146 -10.611  0.00  0.00    -0.460 OA
BRANCH  24  26
ATOM     26  C   UNL     1       1.198  -2.725 -13.051  0.00  0.00    +0.058 C 
ATOM     27  C   UNL     1      -0.212  -2.264 -13.427  0.00  0.00    +0.015 C 
ATOM     28  C   UNL     1       0.102  -3.758 -13.319  0.00  0.00    -0.003 C 
ATOM     29  C   UNL     1      -0.465  -4.515 -12.117  0.00  0.00    +0.008 C 
ENDBRANCH  24  26
ENDBRANCH  20  21
ENDBRANCH   2  19
TORSDOF 7
