REMARK  Name = ZINC30738253
REMARK  4 active torsions:
REMARK  status: ('A' for Active; 'I' for Inactive)
REMARK    1  A    between atoms: C_7  and  C_11
REMARK    2  A    between atoms: C_11  and  C_12
REMARK    3  A    between atoms: N_14  and  N_15
REMARK    4  A    between atoms: C_16  and  C_17
REMARK                            x       y       z     vdW  Elec       q    Type
REMARK                         _______ _______ _______ _____ _____    ______ ____
ROOT
ATOM      1  C   UNL     1      -1.360   3.053   1.542  0.00  0.00    +0.237 C 
ATOM      2  O   UNL     1      -1.039   2.142   2.276  0.00  0.00    -0.274 OA
ATOM      3  N   UNL     1      -2.416   3.831   1.855  0.00  0.00    -0.207 N 
ATOM      4  H   UNL     1      -2.706   4.657   1.189  0.00  0.00    +0.177 HD
ENDROOT
BRANCH   3   5
ATOM      5  N   UNL     1      -3.143   3.586   3.027  0.00  0.00    -0.188 NA
ATOM      6  C   UNL     1      -4.228   4.256   3.269  0.00  0.00    +0.138 C 
BRANCH   6   7
ATOM      7  C   UNL     1      -4.957   4.903   2.163  0.00  0.00    -0.002 A 
ATOM      8  C   UNL     1      -5.954   5.843   2.436  0.00  0.00    +0.013 A 
ATOM      9  C   UNL     1      -6.631   6.450   1.400  0.00  0.00    +0.050 A 
ATOM     10  C   UNL     1      -6.334   6.123   0.085  0.00  0.00    +0.166 A 
ATOM     11  C   UNL     1      -5.344   5.182  -0.195  0.00  0.00    +0.167 A 
ATOM     12  C   UNL     1      -4.657   4.573   0.839  0.00  0.00    +0.059 A 
ATOM     13  O   UNL     1      -5.247   5.041  -1.550  0.00  0.00    -0.453 OA
ATOM     14  C   UNL     1      -5.897   6.200  -2.104  0.00  0.00    +0.466 C 
ATOM     15  O   UNL     1      -6.855   6.570  -1.095  0.00  0.00    -0.453 OA
ENDBRANCH   6   7
ENDBRANCH   3   5
BRANCH   1  16
ATOM     16  C   UNL     1      -0.578   3.316   0.281  0.00  0.00    +0.134 C 
BRANCH  16  23
ATOM     17  C   UNL     1      -0.337  -1.046  -1.417  0.00  0.00    +0.001 A 
ATOM     18  C   UNL     1       0.933  -1.597  -1.317  0.00  0.00    +0.002 A 
ATOM     19  C   UNL     1       1.969  -0.877  -0.762  0.00  0.00    +0.026 A 
ATOM     20  C   UNL     1       1.742   0.414  -0.297  0.00  0.00    +0.047 A 
ATOM     21  C   UNL     1       0.452   0.967  -0.401  0.00  0.00    +0.003 A 
ATOM     22  C   UNL     1      -0.583   0.220  -0.967  0.00  0.00    +0.010 A 
ATOM     23  C   UNL     1       0.543   2.314   0.167  0.00  0.00    -0.014 A 
ATOM     24  C   UNL     1       1.814   2.490   0.561  0.00  0.00    +0.087 A 
ATOM     25  N   UNL     1       2.545   1.365   0.292  0.00  0.00    -0.360 N 
ATOM     26  H   UNL     1       3.608   1.149   0.476  0.00  0.00    +0.165 HD
ENDBRANCH  16  23
ENDBRANCH   1  16
TORSDOF 4
