REMARK  Name = ZINC04175472
REMARK  4 active torsions:
REMARK  status: ('A' for Active; 'I' for Inactive)
REMARK    1  A    between atoms: C_1  and  C_2
REMARK    2  A    between atoms: C_5  and  O_27
REMARK    3  A    between atoms: C_18  and  C_26
REMARK    4  A    between atoms: C_23  and  O_25
REMARK                            x       y       z     vdW  Elec       q    Type
REMARK                         _______ _______ _______ _____ _____    ______ ____
ROOT
ATOM      1  C   UNL     1      -0.019   1.521   0.010  0.00  0.00    +0.012 C 
ATOM      2  C   UNL     1       0.002  -0.004   0.002  0.00  0.00    -0.026 C 
ATOM      3  C   UNL     1      -1.435  -0.517   0.192  0.00  0.00    +0.010 C 
ATOM      4  C   UNL     1      -2.007  -0.037   1.521  0.00  0.00    +0.032 C 
ATOM      5  C   UNL     1      -1.136  -0.500   2.687  0.00  0.00    +0.115 C 
ATOM      6  C   UNL     1       0.303  -0.018   2.500  0.00  0.00    +0.035 C 
ATOM      7  C   UNL     1       0.846  -0.525   1.170  0.00  0.00    -0.002 C 
ATOM      8  C   UNL     1       2.304  -0.114   0.981  0.00  0.00    +0.004 C 
ATOM      9  C   UNL     1       2.843  -0.799  -0.278  0.00  0.00    +0.004 C 
ATOM     10  C   UNL     1       2.041  -0.364  -1.503  0.00  0.00    -0.004 C 
ATOM     11  C   UNL     1       0.554  -0.564  -1.301  0.00  0.00    -0.001 C 
ATOM     12  C   UNL     1      -0.243  -0.135  -2.521  0.00  0.00    +0.005 C 
ATOM     13  C   UNL     1       0.132   1.233  -3.052  0.00  0.00    +0.010 C 
ATOM     14  C   UNL     1       1.613   1.489  -3.155  0.00  0.00    -0.003 C 
ATOM     15  C   UNL     1       2.418   1.052  -1.921  0.00  0.00    +0.001 C 
ATOM     16  C   UNL     1       3.870   0.991  -2.483  0.00  0.00    +0.007 C 
ATOM     17  C   UNL     1       3.711   0.474  -3.926  0.00  0.00    +0.032 C 
ATOM     18  C   UNL     1       2.253   0.752  -4.340  0.00  0.00    +0.121 C 
ATOM     19  C   UNL     1       1.823   2.996  -3.361  0.00  0.00    +0.014 C 
ENDROOT
BRANCH  18  20
ATOM     20  O   UNL     1       2.222   1.583  -5.504  0.00  0.00    -0.391 OA
ATOM     21  H   UNL     1       2.613   1.175  -6.289  0.00  0.00    +0.210 HD
ENDBRANCH  18  20
BRANCH   5  22
ATOM     22  O   UNL     1      -1.156  -1.927   2.764  0.00  0.00    -0.392 OA
ATOM     23  H   UNL     1      -2.037  -2.301   2.902  0.00  0.00    +0.210 HD
ENDBRANCH   5  22
TORSDOF 2
