REMARK  Name = ZINC37381421
REMARK  3 active torsions:
REMARK  status: ('A' for Active; 'I' for Inactive)
REMARK    1  A    between atoms: C_6  and  S_7
REMARK    2  A    between atoms: S_7  and  C_8
REMARK    3  A    between atoms: C_13  and  N_14
REMARK                            x       y       z     vdW  Elec       q    Type
REMARK                         _______ _______ _______ _____ _____    ______ ____
ROOT
ATOM      1  C   UNL     1      -1.004  -2.587  -0.151  0.00  0.00    +0.033 A 
ATOM      2  C   UNL     1       0.345  -2.911  -0.140  0.00  0.00    +0.018 A 
ATOM      3  C   UNL     1       0.740  -4.230  -0.268  0.00  0.00    +0.016 A 
ATOM      4  C   UNL     1      -0.206  -5.229  -0.407  0.00  0.00    +0.020 A 
ATOM      5  C   UNL     1      -1.553  -4.915  -0.419  0.00  0.00    +0.039 A 
ATOM      6  C   UNL     1      -1.959  -3.596  -0.285  0.00  0.00    +0.040 A 
ATOM      7 BR   UNL     1       0.344  -7.030  -0.582  0.00  0.00    -0.050 Br
ENDROOT
BRANCH   6   8
ATOM      8  N   UNL     1      -3.321  -3.276  -0.292  0.00  0.00    -0.357 N 
ATOM      9  H   UNL     1      -3.603  -2.352  -0.203  0.00  0.00    +0.142 HD
ATOM     10  H   UNL     1      -3.984  -3.978  -0.385  0.00  0.00    +0.142 HD
ENDBRANCH   6   8
BRANCH   1  11
ATOM     11  S   UNL     1      -1.511  -0.908   0.012  0.00  0.00    -0.088 S 
BRANCH  11  17
ATOM     12  C   UNL     1       0.583   0.362  -1.210  0.00  0.00    +0.016 A 
ATOM     13  C   UNL     1       1.768   1.071  -1.218  0.00  0.00    +0.016 A 
ATOM     14  C   UNL     1       2.376   1.418  -0.025  0.00  0.00    +0.018 A 
ATOM     15  C   UNL     1       1.800   1.056   1.180  0.00  0.00    +0.016 A 
ATOM     16  C   UNL     1       0.615   0.347   1.195  0.00  0.00    +0.016 A 
ATOM     17  C   UNL     1       0.002  -0.003  -0.002  0.00  0.00    +0.013 A 
ATOM     18 BR   UNL     1       3.999   2.389  -0.040  0.00  0.00    -0.050 Br
ENDBRANCH  11  17
ENDBRANCH   1  11
TORSDOF 3
