REMARK  Name = ZINC09197363
REMARK  15 active torsions:
REMARK  status: ('A' for Active; 'I' for Inactive)
REMARK    1  A    between atoms: C_1  and  C_2
REMARK    2  A    between atoms: C_5  and  N_8
REMARK    3  A    between atoms: C_9  and  C_29
REMARK    4  A    between atoms: C_12  and  S_13
REMARK    5  A    between atoms: S_13  and  C_14
REMARK    6  A    between atoms: C_14  and  C_15
REMARK    7  A    between atoms: N_17  and  N_18
REMARK    8  A    between atoms: C_19  and  C_20
REMARK    9  A    between atoms: C_23  and  O_28
REMARK   10  A    between atoms: C_24  and  O_26
REMARK   11  A    between atoms: O_26  and  C_27
REMARK   12  A    between atoms: C_32  and  C_35
REMARK   13  A    between atoms: C_35  and  C_36
REMARK   14  A    between atoms: C_35  and  C_37
REMARK   15  A    between atoms: C_35  and  C_38
REMARK                            x       y       z     vdW  Elec       q    Type
REMARK                         _______ _______ _______ _____ _____    ______ ____
ROOT
ATOM      1  N   UNL     1       1.285   1.733  -0.001  0.00  0.00    -0.270 N 
ATOM      2  C   UNL     1       2.047   0.585  -0.014  0.00  0.00    +0.169 A 
ATOM      3  N   UNL     1       1.214  -0.430  -0.012  0.00  0.00    -0.128 NA
ATOM      4  N   UNL     1       0.002  -0.004   0.002  0.00  0.00    -0.122 NA
ATOM      5  C   UNL     1      -0.016   1.310   0.009  0.00  0.00    +0.197 A 
ENDROOT
BRANCH   1  10
ATOM      6  C   UNL     1       3.154   7.092   0.007  0.00  0.00    +0.044 C 
ATOM      7  C   UNL     1       2.658   5.669   0.004  0.00  0.00    -0.050 A 
ATOM      8  C   UNL     1       1.963   5.179   1.095  0.00  0.00    +0.005 A 
ATOM      9  C   UNL     1       1.507   3.875   1.096  0.00  0.00    +0.026 A 
ATOM     10  C   UNL     1       1.747   3.056   0.001  0.00  0.00    +0.051 A 
ATOM     11  C   UNL     1       2.450   3.549  -1.090  0.00  0.00    +0.026 A 
ATOM     12  C   UNL     1       2.898   4.856  -1.088  0.00  0.00    +0.005 A 
ENDBRANCH   1  10
BRANCH   2  13
ATOM     13  C   UNL     1       3.523   0.510  -0.029  0.00  0.00    +0.020 A 
ATOM     14  C   UNL     1       4.286   1.639   0.277  0.00  0.00    +0.012 A 
ATOM     15  C   UNL     1       5.663   1.561   0.266  0.00  0.00    +0.005 A 
ATOM     16  C   UNL     1       6.289   0.370  -0.057  0.00  0.00    -0.042 A 
ATOM     17  C   UNL     1       5.539  -0.751  -0.366  0.00  0.00    +0.005 A 
ATOM     18  C   UNL     1       4.161  -0.688  -0.354  0.00  0.00    +0.012 A 
BRANCH  16  19
ATOM     19  C   UNL     1       7.794   0.293  -0.072  0.00  0.00    -0.013 C 
ATOM     20  C   UNL     1       8.271  -0.097  -1.473  0.00  0.00    +0.015 C 
ATOM     21  C   UNL     1       8.377   1.657   0.303  0.00  0.00    +0.015 C 
ATOM     22  C   UNL     1       8.262  -0.757   0.937  0.00  0.00    +0.015 C 
ENDBRANCH  16  19
ENDBRANCH   2  13
BRANCH   5  23
ATOM     23  S   UNL     1      -1.448   2.336   0.022  0.00  0.00    -0.076 S 
BRANCH  23  24
ATOM     24  C   UNL     1      -2.742   1.071   0.022  0.00  0.00    +0.174 C 
BRANCH  24  25
ATOM     25  C   UNL     1      -4.094   1.735   0.033  0.00  0.00    +0.242 C 
ATOM     26  O   UNL     1      -4.176   2.945   0.039  0.00  0.00    -0.273 OA
ATOM     27  N   UNL     1      -5.214   0.984   0.035  0.00  0.00    -0.206 N 
ATOM     28  H   UNL     1      -5.149   0.016   0.029  0.00  0.00    +0.177 HD
BRANCH  27  29
ATOM     29  N   UNL     1      -6.471   1.601   0.044  0.00  0.00    -0.188 NA
ATOM     30  C   UNL     1      -7.549   0.878   0.046  0.00  0.00    +0.138 C 
BRANCH  30  31
ATOM     31  C   UNL     1      -8.873   1.528   0.057  0.00  0.00    -0.002 A 
ATOM     32  C   UNL     1      -8.968   2.922   0.070  0.00  0.00    +0.013 A 
ATOM     33  C   UNL     1     -10.207   3.527   0.073  0.00  0.00    +0.050 A 
ATOM     34  C   UNL     1     -11.360   2.756   0.075  0.00  0.00    +0.158 A 
ATOM     35  C   UNL     1     -11.272   1.366   0.068  0.00  0.00    +0.162 A 
ATOM     36  C   UNL     1     -10.034   0.751   0.059  0.00  0.00    +0.058 A 
BRANCH  35  37
ATOM     37  O   UNL     1     -12.405   0.613   0.070  0.00  0.00    -0.491 OA
ATOM     38  C   UNL     1     -12.240  -0.807   0.062  0.00  0.00    +0.277 C 
ENDBRANCH  35  37
BRANCH  34  39
ATOM     39  O   UNL     1     -12.579   3.358   0.084  0.00  0.00    -0.503 OA
ATOM     40  H   UNL     1     -12.927   3.528   0.970  0.00  0.00    +0.292 HD
ENDBRANCH  34  39
ENDBRANCH  30  31
ENDBRANCH  27  29
ENDBRANCH  24  25
ENDBRANCH  23  24
ENDBRANCH   5  23
TORSDOF 10
