REMARK  Name = ZINC45820602
REMARK  10 active torsions:
REMARK  status: ('A' for Active; 'I' for Inactive)
REMARK    1  A    between atoms: C_1  and  C_2
REMARK    2  A    between atoms: C_2  and  C_30
REMARK    3  A    between atoms: N_5  and  C_9
REMARK    4  A    between atoms: C_9  and  C_10
REMARK    5  A    between atoms: N_12  and  C_13
REMARK    6  A    between atoms: C_13  and  C_14
REMARK    7  A    between atoms: C_14  and  C_16
REMARK    8  A    between atoms: C_14  and  N_24
REMARK    9  A    between atoms: C_19  and  O_22
REMARK   10  A    between atoms: O_22  and  C_23
REMARK                            x       y       z     vdW  Elec       q    Type
REMARK                         _______ _______ _______ _____ _____    ______ ____
ROOT
ATOM      1  C   UNL     1       4.812   1.551  -2.799  0.00  0.00    +0.231 C 
ATOM      2  O   UNL     1       4.232   1.223  -1.786  0.00  0.00    -0.274 OA
ATOM      3  N   UNL     1       5.792   0.771  -3.296  0.00  0.00    -0.315 N 
ATOM      4  H   UNL     1       6.256   1.034  -4.107  0.00  0.00    +0.149 HD
ENDROOT
BRANCH   1   5
ATOM      5  C   UNL     1       4.437   2.831  -3.502  0.00  0.00    +0.213 C 
BRANCH   5  10
ATOM      6  C   UNL     1       1.944   4.430   0.145  0.00  0.00    +0.047 C 
ATOM      7  C   UNL     1       2.158   4.796  -1.325  0.00  0.00    +0.135 C 
ATOM      8  C   UNL     1       3.545   4.387  -1.781  0.00  0.00    +0.251 C 
ATOM      9  O   UNL     1       4.605   4.783  -1.346  0.00  0.00    -0.272 OA
ATOM     10  N   UNL     1       3.354   3.491  -2.769  0.00  0.00    -0.215 N 
ATOM     11  C   UNL     1       2.053   3.279  -2.999  0.00  0.00    +0.310 C 
ATOM     12  O   UNL     1       1.632   2.513  -3.843  0.00  0.00    -0.252 OA
ATOM     13  N   UNL     1       1.263   4.010  -2.191  0.00  0.00    -0.281 N 
ATOM     14  H   UNL     1       0.293   4.016  -2.180  0.00  0.00    +0.152 HD
BRANCH   7  15
ATOM     15  C   UNL     1       1.940   6.272  -1.539  0.00  0.00    -0.015 A 
ATOM     16  C   UNL     1       3.004   7.149  -1.438  0.00  0.00    +0.009 A 
ATOM     17  C   UNL     1       2.806   8.503  -1.635  0.00  0.00    +0.039 A 
ATOM     18  C   UNL     1       1.541   8.980  -1.933  0.00  0.00    +0.123 A 
ATOM     19  C   UNL     1       0.476   8.101  -2.034  0.00  0.00    +0.039 A 
ATOM     20  C   UNL     1       0.678   6.747  -1.842  0.00  0.00    +0.009 A 
ATOM     21  F   UNL     1       1.346  10.303  -2.125  0.00  0.00    -0.205 F 
ENDBRANCH   7  15
ENDBRANCH   5  10
ENDBRANCH   1   5
BRANCH   3  22
ATOM     22  C   UNL     1       6.157  -0.472  -2.613  0.00  0.00    +0.093 C 
BRANCH  22  23
ATOM     23  C   UNL     1       7.207  -1.218  -3.438  0.00  0.00    -0.020 C 
BRANCH  23  24
ATOM     24  N   UNL     1       7.502  -2.509  -2.803  0.00  0.00    +0.385 N 
ATOM     25  C   UNL     1       8.550  -3.200  -3.564  0.00  0.00    -0.078 C 
ATOM     26  C   UNL     1       8.919  -4.508  -2.861  0.00  0.00    -0.019 C 
ATOM     27  C   UNL     1       7.678  -5.401  -2.773  0.00  0.00    -0.004 C 
ATOM     28  C   UNL     1       6.567  -4.643  -2.042  0.00  0.00    -0.019 C 
ATOM     29  C   UNL     1       6.285  -3.329  -2.775  0.00  0.00    -0.078 C 
ATOM     30  H   UNL     1       7.823  -2.353  -1.859  0.00  0.00    -0.081 HD
ENDBRANCH  23  24
BRANCH  23  31
ATOM     31  C   UNL     1       8.467  -0.395  -3.512  0.00  0.00    -0.059 A 
ATOM     32  C   UNL     1       9.355  -0.397  -2.452  0.00  0.00    +0.005 A 
ATOM     33  C   UNL     1      10.510   0.358  -2.517  0.00  0.00    +0.046 A 
ATOM     34  C   UNL     1      10.779   1.118  -3.646  0.00  0.00    +0.120 A 
ATOM     35  C   UNL     1       9.886   1.118  -4.708  0.00  0.00    +0.046 A 
ATOM     36  C   UNL     1       8.735   0.357  -4.641  0.00  0.00    +0.005 A 
BRANCH  34  37
ATOM     37  O   UNL     1      11.915   1.861  -3.712  0.00  0.00    -0.495 OA
ATOM     38  C   UNL     1      12.126   2.619  -4.905  0.00  0.00    +0.277 C 
ENDBRANCH  34  37
ENDBRANCH  23  31
ENDBRANCH  22  23
ENDBRANCH   3  22
TORSDOF 8
