REMARK  Name = ZINC63818003
REMARK  6 active torsions:
REMARK  status: ('A' for Active; 'I' for Inactive)
REMARK    1  A    between atoms: C_6  and  C_7
REMARK    2  A    between atoms: N_12  and  C_14
REMARK    3  A    between atoms: C_14  and  C_15
REMARK    4  A    between atoms: N_17  and  C_18
REMARK    5  A    between atoms: C_18  and  C_19
REMARK    6  A    between atoms: C_19  and  C_20
REMARK                            x       y       z     vdW  Elec       q    Type
REMARK                         _______ _______ _______ _____ _____    ______ ____
ROOT
ATOM      1  C   UNL     1      -2.145  -4.430   2.225  0.00  0.00    +0.232 C 
ATOM      2  O   UNL     1      -2.143  -3.441   2.926  0.00  0.00    -0.274 OA
ATOM      3  N   UNL     1      -2.031  -5.652   2.782  0.00  0.00    -0.314 N 
ATOM      4  H   UNL     1      -2.032  -6.443   2.221  0.00  0.00    +0.149 HD
ENDROOT
BRANCH   1   5
ATOM      5  C   UNL     1      -2.276  -4.293   0.730  0.00  0.00    +0.226 C 
BRANCH   5  11
ATOM      6  C   UNL     1      -1.269  -0.764   0.011  0.00  0.00    +0.048 C 
ATOM      7  C   UNL     1      -2.425  -0.111   0.020  0.00  0.00    +0.007 C 
ATOM      8  C   UNL     1      -3.744  -0.826   0.022  0.00  0.00    +0.126 C 
ATOM      9  C   UNL     1      -3.582  -2.268   0.409  0.00  0.00    +0.236 C 
ATOM     10  O   UNL     1      -4.557  -2.899   0.758  0.00  0.00    -0.274 OA
ATOM     11  N   UNL     1      -2.384  -2.876   0.377  0.00  0.00    -0.213 N 
ATOM     12  N   UNL     1      -1.239  -2.158   0.003  0.00  0.00    -0.261 N 
ATOM     13  H   UNL     1      -0.431  -2.628  -0.257  0.00  0.00    +0.170 HD
BRANCH   6  19
ATOM     14  C   UNL     1      -0.017   1.390   0.010  0.00  0.00    +0.012 A 
ATOM     15  C   UNL     1       1.170   2.094   0.002  0.00  0.00    +0.039 A 
ATOM     16  C   UNL     1       2.379   1.418  -0.013  0.00  0.00    +0.123 A 
ATOM     17  C   UNL     1       2.403   0.032  -0.022  0.00  0.00    +0.039 A 
ATOM     18  C   UNL     1       1.222  -0.680  -0.014  0.00  0.00    +0.012 A 
ATOM     19  C   UNL     1       0.002  -0.004   0.002  0.00  0.00    -0.003 A 
ATOM     20  F   UNL     1       3.538   2.111  -0.021  0.00  0.00    -0.205 F 
ENDBRANCH   6  19
ENDBRANCH   5  11
ENDBRANCH   1   5
BRANCH   3  21
ATOM     21  C   UNL     1      -1.904  -5.785   4.235  0.00  0.00    +0.108 C 
BRANCH  21  22
ATOM     22  C   UNL     1      -1.790  -7.266   4.604  0.00  0.00    +0.052 C 
BRANCH  22  23
ATOM     23  C   UNL     1      -1.660  -7.403   6.099  0.00  0.00    -0.040 C 
ATOM     24  C   UNL     1      -2.656  -7.636   6.984  0.00  0.00    +0.000 A 
ATOM     25  C   UNL     1      -4.103  -7.824   6.826  0.00  0.00    +0.030 A 
ATOM     26  C   UNL     1      -4.860  -8.045   7.925  0.00  0.00    +0.042 A 
ATOM     27  C   UNL     1      -4.298  -8.099   9.209  0.00  0.00    +0.022 A 
ATOM     28  C   UNL     1      -2.977  -7.936   9.434  0.00  0.00    +0.027 A 
ATOM     29  C   UNL     1      -2.087  -7.698   8.349  0.00  0.00    +0.043 A 
ATOM     30  N   UNL     1      -0.790  -7.510   8.310  0.00  0.00    -0.380 N 
ATOM     31  C   UNL     1      -0.388  -7.314   6.912  0.00  0.00    +0.144 C 
ATOM     32 CL   UNL     1      -6.572  -8.268   7.742  0.00  0.00    -0.084 Cl
ATOM     33  H   UNL     1      -0.195  -7.505   9.076  0.00  0.00    +0.160 HD
ENDBRANCH  22  23
ENDBRANCH  21  22
ENDBRANCH   3  21
TORSDOF 6
