REMARK  Name = ZINC12658179
REMARK  10 active torsions:
REMARK  status: ('A' for Active; 'I' for Inactive)
REMARK    1  A    between atoms: C_1  and  C_2
REMARK    2  A    between atoms: C_2  and  C_4
REMARK    3  A    between atoms: C_2  and  O_35
REMARK    4  A    between atoms: C_4  and  O_34
REMARK    5  A    between atoms: C_5  and  O_33
REMARK    6  A    between atoms: C_10  and  C_32
REMARK    7  A    between atoms: C_21  and  C_31
REMARK    8  A    between atoms: C_24  and  O_27
REMARK    9  A    between atoms: O_27  and  C_28
REMARK   10  A    between atoms: C_28  and  C_30
REMARK                            x       y       z     vdW  Elec       q    Type
REMARK                         _______ _______ _______ _____ _____    ______ ____
ROOT
ATOM      1  C   UNL     1       1.283   2.021   0.101  0.00  0.00    +0.123 C 
ATOM      2  C   UNL     1      -0.134   1.407  -0.004  0.00  0.00    +0.149 C 
ATOM      3  C   UNL     1       0.057  -0.123  -0.179  0.00  0.00    +0.038 C 
ATOM      4  C   UNL     1       1.537  -0.349   0.172  0.00  0.00    +0.004 C 
ATOM      5  C   UNL     1       2.210   0.908  -0.416  0.00  0.00    +0.005 C 
ATOM      6  C   UNL     1       3.642   0.999   0.061  0.00  0.00    +0.010 C 
ATOM      7  C   UNL     1       4.112  -0.399   0.504  0.00  0.00    +0.005 C 
ATOM      8  C   UNL     1       3.635  -1.436  -0.506  0.00  0.00    -0.001 C 
ATOM      9  C   UNL     1       2.134  -1.618  -0.428  0.00  0.00    -0.004 C 
ATOM     10  C   UNL     1       1.687  -2.785   0.440  0.00  0.00    +0.004 C 
ATOM     11  C   UNL     1       2.512  -4.044   0.234  0.00  0.00    +0.004 C 
ATOM     12  C   UNL     1       3.986  -3.726   0.478  0.00  0.00    -0.001 C 
ATOM     13  C   UNL     1       4.470  -2.693  -0.523  0.00  0.00    -0.026 C 
ATOM     14  C   UNL     1       5.944  -2.375  -0.265  0.00  0.00    +0.011 C 
ATOM     15  C   UNL     1       6.790  -3.644  -0.344  0.00  0.00    +0.045 C 
ATOM     16  C   UNL     1       6.292  -4.676   0.668  0.00  0.00    +0.177 C 
ATOM     17  C   UNL     1       4.821  -5.002   0.406  0.00  0.00    +0.048 C 
ATOM     18  C   UNL     1       4.361  -3.271  -1.940  0.00  0.00    +0.012 C 
ATOM     19  C   UNL     1       2.152   0.917  -1.947  0.00  0.00    +0.014 C 
ENDROOT
BRANCH   1  21
ATOM     20  C   UNL     1       0.488   4.362  -0.244  0.00  0.00    +0.040 C 
ATOM     21  C   UNL     1       1.396   3.257  -0.789  0.00  0.00    +0.146 C 
BRANCH  21  22
ATOM     22  O   UNL     1       0.995   2.924  -2.120  0.00  0.00    -0.389 OA
ATOM     23  H   UNL     1       0.085   2.605  -2.188  0.00  0.00    +0.210 HD
ENDBRANCH  21  22
ENDBRANCH   1  21
BRANCH   2  24
ATOM     24  O   UNL     1      -0.872   1.674   1.190  0.00  0.00    -0.389 OA
ATOM     25  H   UNL     1      -1.762   1.297   1.195  0.00  0.00    +0.210 HD
ENDBRANCH   2  24
BRANCH   1  26
ATOM     26  O   UNL     1       1.588   2.341   1.455  0.00  0.00    -0.383 OA
ATOM     27  H   UNL     1       0.994   2.994   1.848  0.00  0.00    +0.210 HD
ENDBRANCH   1  26
BRANCH  16  28
ATOM     28  O   UNL     1       7.083  -5.889   0.551  0.00  0.00    -0.462 OA
BRANCH  28  29
ATOM     29  C   UNL     1       8.185  -5.973   1.314  0.00  0.00    +0.304 C 
ATOM     30  O   UNL     1       8.478  -5.065   2.054  0.00  0.00    -0.251 OA
ATOM     31  C   UNL     1       9.055  -7.202   1.246  0.00  0.00    +0.136 C 
ENDBRANCH  28  29
ENDBRANCH  16  28
TORSDOF 6
