REMARK  Name = ZINC16426989
REMARK  15 active torsions:
REMARK  status: ('A' for Active; 'I' for Inactive)
REMARK    1  A    between atoms: C_1  and  C_2
REMARK    2  A    between atoms: C_2  and  C_3
REMARK    3  A    between atoms: C_3  and  C_4
REMARK    4  A    between atoms: C_4  and  C_5
REMARK    5  A    between atoms: C_5  and  C_6
REMARK    6  A    between atoms: C_6  and  N_7
REMARK    7  A    between atoms: N_7  and  C_8
REMARK    8  A    between atoms: N_7  and  S_30
REMARK    9  A    between atoms: C_8  and  C_10
REMARK   10  A    between atoms: C_8  and  C_11
REMARK   11  A    between atoms: N_21  and  C_22
REMARK   12  A    between atoms: C_25  and  C_29
REMARK   13  A    between atoms: C_26  and  C_28
REMARK   14  A    between atoms: S_30  and  C_33
REMARK   15  A    between atoms: C_36  and  C_39
REMARK                            x       y       z     vdW  Elec       q    Type
REMARK                         _______ _______ _______ _____ _____    ______ ____
ROOT
ATOM      1  C   UNL     1      -0.622  -0.704  -0.780  0.00  0.00    +0.143 C 
ATOM      2  C   UNL     1      -0.492  -1.762  -1.877  0.00  0.00    +0.034 C 
ENDROOT
BRANCH   1   3
ATOM      3  C   UNL     1       0.594   0.186  -0.793  0.00  0.00    +0.136 A 
ATOM      4  N   UNL     1       0.422   1.463  -0.951  0.00  0.00    -0.231 NA
ATOM      5  C   UNL     1       1.469   2.325  -0.973  0.00  0.00    +0.078 A 
ATOM      6  C   UNL     1       1.284   3.699  -1.143  0.00  0.00    +0.028 A 
ATOM      7  C   UNL     1       2.375   4.537  -1.160  0.00  0.00    +0.002 A 
ATOM      8  C   UNL     1       3.661   4.034  -1.010  0.00  0.00    +0.001 A 
ATOM      9  C   UNL     1       3.870   2.683  -0.841  0.00  0.00    +0.015 A 
ATOM     10  C   UNL     1       2.778   1.817  -0.821  0.00  0.00    +0.065 A 
ATOM     11  C   UNL     1       2.940   0.366  -0.645  0.00  0.00    +0.266 A 
ATOM     12  O   UNL     1       4.040  -0.135  -0.508  0.00  0.00    -0.267 OA
ATOM     13  N   UNL     1       1.817  -0.390  -0.639  0.00  0.00    -0.263 N 
BRANCH  13  14
ATOM     14  C   UNL     1       1.916  -1.777  -0.475  0.00  0.00    +0.051 A 
ATOM     15  C   UNL     1       1.479  -2.371   0.702  0.00  0.00    +0.026 A 
ATOM     16  C   UNL     1       1.572  -3.740   0.859  0.00  0.00    +0.005 A 
ATOM     17  C   UNL     1       2.110  -4.518  -0.149  0.00  0.00    -0.047 A 
ATOM     18  C   UNL     1       2.551  -3.929  -1.320  0.00  0.00    -0.046 A 
ATOM     19  C   UNL     1       2.455  -2.561  -1.486  0.00  0.00    +0.030 A 
ATOM     20  C   UNL     1       3.136  -4.781  -2.417  0.00  0.00    +0.044 C 
ATOM     21  C   UNL     1       2.216  -6.011   0.028  0.00  0.00    +0.044 C 
ENDBRANCH  13  14
ENDBRANCH   1   3
BRANCH   1  22
ATOM     22  N   UNL     1      -1.821   0.104  -1.019  0.00  0.00    -0.167 NA
BRANCH  22  23
ATOM     23  S   UNL     1      -2.971   0.249   0.164  0.00  0.00    +0.061 S 
ATOM     24  O   UNL     1      -4.190   0.570  -0.493  0.00  0.00    -0.153 OA
ATOM     25  O   UNL     1      -2.836  -0.889   1.004  0.00  0.00    -0.153 OA
BRANCH  23  26
ATOM     26  C   UNL     1      -2.540   1.650   1.141  0.00  0.00    +0.106 A 
ATOM     27  C   UNL     1      -1.725   1.497   2.246  0.00  0.00    +0.029 A 
ATOM     28  C   UNL     1      -1.383   2.598   3.010  0.00  0.00    +0.005 A 
ATOM     29  C   UNL     1      -1.865   3.849   2.674  0.00  0.00    -0.050 A 
ATOM     30  C   UNL     1      -2.684   4.001   1.571  0.00  0.00    +0.005 A 
ATOM     31  C   UNL     1      -3.022   2.901   0.805  0.00  0.00    +0.029 A 
ATOM     32  C   UNL     1      -1.496   5.048   3.510  0.00  0.00    +0.044 C 
ENDBRANCH  23  26
ENDBRANCH  22  23
BRANCH  22  33
ATOM     33  C   UNL     1      -2.002   0.783  -2.304  0.00  0.00    +0.110 C 
BRANCH  33  34
ATOM     34  C   UNL     1      -2.685  -0.166  -3.291  0.00  0.00    +0.017 C 
BRANCH  34  35
ATOM     35  C   UNL     1      -2.764   0.499  -4.667  0.00  0.00    +0.001 C 
BRANCH  35  36
ATOM     36  C   UNL     1      -3.447  -0.449  -5.653  0.00  0.00    -0.000 C 
BRANCH  36  38
ATOM     37  C   UNL     1      -4.209  -0.733  -8.016  0.00  0.00    +0.004 C 
ATOM     38  C   UNL     1      -3.526   0.216  -7.029  0.00  0.00    -0.003 C 
ENDBRANCH  36  38
ENDBRANCH  35  36
ENDBRANCH  34  35
ENDBRANCH  33  34
ENDBRANCH  22  33
ENDBRANCH   1  22
TORSDOF 10
