REMARK  Name = ZINC67288630
REMARK  9 active torsions:
REMARK  status: ('A' for Active; 'I' for Inactive)
REMARK    1  A    between atoms: C_1  and  C_2
REMARK    2  A    between atoms: C_2  and  N_3
REMARK    3  A    between atoms: N_3  and  C_4
REMARK    4  A    between atoms: C_8  and  C_10
REMARK    5  A    between atoms: C_11  and  C_13
REMARK    6  A    between atoms: C_13  and  N_14
REMARK    7  A    between atoms: C_17  and  C_22
REMARK    8  A    between atoms: C_24  and  C_29
REMARK    9  A    between atoms: C_27  and  C_28
REMARK                            x       y       z     vdW  Elec       q    Type
REMARK                         _______ _______ _______ _____ _____    ______ ____
ROOT
ATOM      1  N   UNL     1      -2.161  -0.843  -3.720  0.00  0.00    -0.247 N 
ATOM      2  C   UNL     1      -2.182   0.041  -4.759  0.00  0.00    +0.065 C 
ATOM      3  C   UNL     1      -2.725  -0.293  -5.949  0.00  0.00    +0.082 C 
ATOM      4  C   UNL     1      -3.313  -1.681  -6.093  0.00  0.00    +0.144 C 
ATOM      5  N   UNL     1      -3.242  -2.559  -4.913  0.00  0.00    -0.288 N 
ATOM      6  C   UNL     1      -2.661  -2.084  -3.793  0.00  0.00    +0.307 C 
ATOM      7  O   UNL     1      -2.593  -2.803  -2.816  0.00  0.00    -0.252 OA
ATOM      8  C   UNL     1      -2.617   0.791  -6.841  0.00  0.00    +0.339 C 
ATOM      9  O   UNL     1      -3.021   0.783  -7.989  0.00  0.00    -0.245 OA
ATOM     10  O   UNL     1      -2.007   1.838  -6.253  0.00  0.00    -0.455 OA
ATOM     11  C   UNL     1      -1.685   1.461  -4.908  0.00  0.00    +0.284 C 
ATOM     12  H   UNL     1      -3.601  -3.459  -4.942  0.00  0.00    +0.151 HD
ENDROOT
BRANCH   4  13
ATOM     13  C   UNL     1      -2.603  -2.371  -7.229  0.00  0.00    -0.019 A 
ATOM     14  C   UNL     1      -1.362  -1.922  -7.643  0.00  0.00    +0.009 A 
ATOM     15  C   UNL     1      -0.711  -2.555  -8.685  0.00  0.00    -0.050 A 
ATOM     16  C   UNL     1      -1.299  -3.638  -9.312  0.00  0.00    +0.003 A 
ATOM     17  C   UNL     1      -2.539  -4.087  -8.898  0.00  0.00    +0.004 A 
ATOM     18  C   UNL     1      -3.189  -3.456  -7.853  0.00  0.00    -0.045 A 
ATOM     19  C   UNL     1      -4.538  -3.949  -7.397  0.00  0.00    +0.044 C 
ATOM     20  C   UNL     1       0.641  -2.065  -9.137  0.00  0.00    +0.044 C 
ENDBRANCH   4  13
BRANCH   1  21
ATOM     21  C   UNL     1      -1.555  -0.414  -2.458  0.00  0.00    +0.211 C 
BRANCH  21  23
ATOM     22  N   UNL     1       0.682  -0.444  -1.402  0.00  0.00    -0.270 N 
ATOM     23  C   UNL     1      -0.085  -0.748  -2.467  0.00  0.00    +0.238 C 
ATOM     24  O   UNL     1       0.407  -1.292  -3.433  0.00  0.00    -0.274 OA
BRANCH  22  25
ATOM     25  C   UNL     1       2.066  -0.643  -1.456  0.00  0.00    +0.037 A 
ATOM     26  C   UNL     1       2.825   0.008  -2.420  0.00  0.00    +0.023 A 
ATOM     27  C   UNL     1       4.191  -0.191  -2.472  0.00  0.00    +0.002 A 
ATOM     28  C   UNL     1       4.803  -1.037  -1.564  0.00  0.00    +0.003 A 
ATOM     29  C   UNL     1       4.050  -1.686  -0.604  0.00  0.00    -0.049 A 
ATOM     30  C   UNL     1       2.684  -1.487  -0.543  0.00  0.00    +0.027 A 
ATOM     31  C   UNL     1       4.720  -2.607   0.382  0.00  0.00    +0.044 C 
ENDBRANCH  22  25
BRANCH  22  33
ATOM     32  C   UNL     1       0.026   1.623  -0.271  0.00  0.00    +0.025 C 
ATOM     33  C   UNL     1       0.067   0.096  -0.186  0.00  0.00    +0.110 C 
ENDBRANCH  22  33
ENDBRANCH  21  23
ENDBRANCH   1  21
TORSDOF 5
