REMARK  Name = ZINC20717407
REMARK  5 active torsions:
REMARK  status: ('A' for Active; 'I' for Inactive)
REMARK    1  A    between atoms: C_1  and  O_2
REMARK    2  A    between atoms: O_2  and  C_3
REMARK    3  A    between atoms: C_3  and  C_5
REMARK    4  A    between atoms: C_10  and  N_11
REMARK    5  A    between atoms: C_23  and  C_25
REMARK                            x       y       z     vdW  Elec       q    Type
REMARK                         _______ _______ _______ _____ _____    ______ ____
ROOT
ATOM      1  N   UNL     1       1.779  -1.439  -3.278  0.00  0.00    -0.269 N 
ATOM      2  C   UNL     1       2.123  -2.124  -4.387  0.00  0.00    +0.307 C 
ATOM      3  O   UNL     1       1.892  -3.315  -4.461  0.00  0.00    -0.252 OA
ATOM      4  N   UNL     1       2.724  -1.489  -5.412  0.00  0.00    -0.272 N 
ATOM      5  C   UNL     1       2.917  -0.031  -5.386  0.00  0.00    +0.116 C 
ATOM      6  C   UNL     1       4.420   0.276  -5.363  0.00  0.00    +0.074 C 
ATOM      7  C   UNL     1       5.110  -0.597  -6.379  0.00  0.00    +0.040 A 
ATOM      8  C   UNL     1       4.580  -1.714  -6.923  0.00  0.00    +0.062 A 
ATOM      9  N   UNL     1       5.472  -2.224  -7.774  0.00  0.00    -0.348 N 
ATOM     10  C   UNL     1       6.537  -1.466  -7.784  0.00  0.00    +0.171 A 
ATOM     11  N   UNL     1       6.347  -0.438  -6.925  0.00  0.00    -0.349 N 
ATOM     12  H   UNL     1       6.974   0.278  -6.734  0.00  0.00    +0.166 HD
ATOM     13  C   UNL     1       3.210  -2.239  -6.584  0.00  0.00    +0.159 C 
ATOM     14  H   UNL     1       1.903  -0.477  -3.244  0.00  0.00    +0.156 HD
ATOM     15  H   UNL     1       5.350  -3.029  -8.301  0.00  0.00    +0.167 HD
ENDROOT
BRANCH  13  16
ATOM     16  C   UNL     1       2.280  -2.025  -7.751  0.00  0.00    +0.017 A 
ATOM     17  C   UNL     1       2.635  -1.156  -8.766  0.00  0.00    +0.047 A 
ATOM     18  C   UNL     1       1.782  -0.959  -9.838  0.00  0.00    +0.124 A 
ATOM     19  C   UNL     1       0.573  -1.632  -9.894  0.00  0.00    +0.041 A 
ATOM     20  C   UNL     1       0.219  -2.501  -8.879  0.00  0.00    +0.041 A 
ATOM     21  C   UNL     1       1.075  -2.702  -7.809  0.00  0.00    +0.129 A 
ATOM     22  F   UNL     1       0.731  -3.555  -6.820  0.00  0.00    -0.205 F 
ATOM     23  F   UNL     1       2.128  -0.110 -10.830  0.00  0.00    -0.205 F 
ENDBRANCH  13  16
BRANCH   1  29
ATOM     24  C   UNL     1       1.435  -1.607  -0.886  0.00  0.00    +0.080 A 
ATOM     25  C   UNL     1       0.889  -2.289   0.206  0.00  0.00    +0.017 A 
ATOM     26  C   UNL     1       0.176  -3.450   0.004  0.00  0.00    +0.001 A 
ATOM     27  C   UNL     1      -0.004  -3.947  -1.277  0.00  0.00    +0.002 A 
ATOM     28  C   UNL     1       0.528  -3.286  -2.365  0.00  0.00    +0.024 A 
ATOM     29  C   UNL     1       1.246  -2.111  -2.182  0.00  0.00    +0.049 A 
BRANCH  24  30
ATOM     30  C   UNL     1       2.199  -0.365  -0.677  0.00  0.00    +0.341 C 
ATOM     31  O   UNL     1       2.764   0.166  -1.613  0.00  0.00    -0.245 OA
BRANCH  30  33
ATOM     32  C   UNL     1       3.031   1.387   0.681  0.00  0.00    +0.280 C 
ATOM     33  O   UNL     1       2.273   0.183   0.552  0.00  0.00    -0.464 OA
ENDBRANCH  30  33
ENDBRANCH  24  30
ENDBRANCH   1  29
TORSDOF 4
