REMARK  Name = ZINC39592239
REMARK  9 active torsions:
REMARK  status: ('A' for Active; 'I' for Inactive)
REMARK    1  A    between atoms: C_1  and  C_2
REMARK    2  A    between atoms: C_5  and  C_8
REMARK    3  A    between atoms: C_10  and  C_14
REMARK    4  A    between atoms: C_18  and  S_22
REMARK    5  A    between atoms: N_20  and  N_21
REMARK    6  A    between atoms: S_22  and  C_23
REMARK    7  A    between atoms: C_23  and  C_24
REMARK    8  A    between atoms: N_26  and  C_27
REMARK    9  A    between atoms: C_32  and  C_33
REMARK                            x       y       z     vdW  Elec       q    Type
REMARK                         _______ _______ _______ _____ _____    ______ ____
ROOT
ATOM      1  C   UNL     1      -1.101  -7.255   0.896  0.00  0.00    +0.244 C 
ATOM      2  N   UNL     1      -2.315  -6.697   0.288  0.00  0.00    -0.167 NA
ATOM      3  N   UNL     1      -2.727  -7.416  -0.628  0.00  0.00    -0.159 NA
ATOM      4  C   UNL     1      -1.867  -8.593  -0.808  0.00  0.00    +0.272 C 
ATOM      5  N   UNL     1      -1.061  -8.668   0.440  0.00  0.00    -0.183 NA
ENDROOT
BRANCH   1   8
ATOM      6  C   UNL     1       0.104  -4.319  -0.175  0.00  0.00    +0.091 C 
ATOM      7  C   UNL     1       0.144  -5.079   0.936  0.00  0.00    +0.035 C 
ATOM      8  C   UNL     1       0.136  -6.501   0.403  0.00  0.00    +0.195 C 
ATOM      9  N   UNL     1       0.088  -6.313  -1.056  0.00  0.00    -0.176 NA
ATOM     10  N   UNL     1       0.067  -5.102  -1.285  0.00  0.00    -0.154 NA
BRANCH   6  15
ATOM     11  C   UNL     1       0.065   1.440  -0.215  0.00  0.00    +0.044 C 
ATOM     12  C   UNL     1       0.075  -0.067  -0.205  0.00  0.00    -0.050 A 
ATOM     13  C   UNL     1       0.036  -0.764  -1.399  0.00  0.00    +0.004 A 
ATOM     14  C   UNL     1       0.045  -2.144  -1.395  0.00  0.00    +0.010 A 
ATOM     15  C   UNL     1       0.094  -2.835  -0.186  0.00  0.00    +0.002 A 
ATOM     16  C   UNL     1       0.134  -2.127   1.014  0.00  0.00    +0.010 A 
ATOM     17  C   UNL     1       0.130  -0.747   0.998  0.00  0.00    +0.004 A 
ENDBRANCH   6  15
ENDBRANCH   1   8
BRANCH   5  18
ATOM     18  N   UNL     1      -1.687  -9.547   1.414  0.00  0.00    -0.263 NA
ATOM     19  H   UNL     1      -1.587 -10.514   1.144  0.00  0.00    +0.137 HD
ATOM     20  H   UNL     1      -1.313  -9.389   2.337  0.00  0.00    +0.137 HD
ENDBRANCH   5  18
BRANCH   4  21
ATOM     21  S   UNL     1      -2.874 -10.089  -1.003  0.00  0.00    -0.107 S 
BRANCH  21  22
ATOM     22  C   UNL     1      -3.626  -9.900  -2.643  0.00  0.00    +0.168 C 
BRANCH  22  23
ATOM     23  C   UNL     1      -4.595 -11.030  -2.883  0.00  0.00    +0.227 C 
ATOM     24  O   UNL     1      -4.761 -11.878  -2.032  0.00  0.00    -0.275 OA
ATOM     25  N   UNL     1      -5.276 -11.097  -4.044  0.00  0.00    -0.284 N 
ATOM     26  H   UNL     1      -5.207 -10.376  -4.690  0.00  0.00    +0.155 HD
BRANCH  25  27
ATOM     27  C   UNL     1      -6.083 -12.207  -4.319  0.00  0.00    +0.045 A 
ATOM     28  C   UNL     1      -5.819 -13.427  -3.709  0.00  0.00    +0.025 A 
ATOM     29  C   UNL     1      -6.617 -14.521  -3.982  0.00  0.00    +0.022 A 
ATOM     30  C   UNL     1      -7.679 -14.402  -4.862  0.00  0.00    +0.042 A 
ATOM     31  C   UNL     1      -7.944 -13.188  -5.470  0.00  0.00    +0.034 A 
ATOM     32  C   UNL     1      -7.153 -12.089  -5.196  0.00  0.00    +0.077 A 
ATOM     33 CL   UNL     1      -8.679 -15.779  -5.203  0.00  0.00    -0.084 Cl
BRANCH  32  34
ATOM     34  C   UNL     1      -7.446 -10.766  -5.855  0.00  0.00    +0.419 C 
ATOM     35  F   UNL     1      -8.562 -10.897  -6.688  0.00  0.00    -0.166 F 
ATOM     36  F   UNL     1      -7.708  -9.805  -4.873  0.00  0.00    -0.166 F 
ATOM     37  F   UNL     1      -6.341 -10.368  -6.614  0.00  0.00    -0.166 F 
ENDBRANCH  32  34
ENDBRANCH  25  27
ENDBRANCH  22  23
ENDBRANCH  21  22
ENDBRANCH   4  21
TORSDOF 8
