REMARK  Name = ZINC13894728
REMARK  10 active torsions:
REMARK  status: ('A' for Active; 'I' for Inactive)
REMARK    1  A    between atoms: C_1  and  C_2
REMARK    2  A    between atoms: C_2  and  O_3
REMARK    3  A    between atoms: O_3  and  C_4
REMARK    4  A    between atoms: C_6  and  C_18
REMARK    5  A    between atoms: C_9  and  O_10
REMARK    6  A    between atoms: O_10  and  C_11
REMARK    7  A    between atoms: C_11  and  C_12
REMARK    8  A    between atoms: N_19  and  N_20
REMARK    9  A    between atoms: C_21  and  C_23
REMARK   10  A    between atoms: C_23  and  C_24
REMARK                            x       y       z     vdW  Elec       q    Type
REMARK                         _______ _______ _______ _____ _____    ______ ____
ROOT
ATOM      1  C   UNL     1      -3.421   3.432   5.030  0.00  0.00    +0.138 C 
ATOM      2  N   UNL     1      -3.904   3.765   6.188  0.00  0.00    -0.188 NA
ENDROOT
BRANCH   1   5
ATOM      3  C   UNL     1      -0.548   1.458   3.635  0.00  0.00    +0.163 A 
ATOM      4  C   UNL     1      -1.686   2.239   3.705  0.00  0.00    +0.059 A 
ATOM      5  C   UNL     1      -2.207   2.599   4.950  0.00  0.00    -0.002 A 
ATOM      6  C   UNL     1      -1.576   2.166   6.119  0.00  0.00    +0.013 A 
ATOM      7  C   UNL     1      -0.442   1.386   6.042  0.00  0.00    +0.050 A 
ATOM      8  C   UNL     1       0.073   1.026   4.805  0.00  0.00    +0.162 A 
BRANCH   3   9
ATOM      9  O   UNL     1      -0.038   1.106   2.425  0.00  0.00    -0.489 OA
BRANCH   9  11
ATOM     10  C   UNL     1      -0.013   1.086   0.008  0.00  0.00    +0.048 C 
ATOM     11  C   UNL     1      -0.729   1.579   1.267  0.00  0.00    +0.226 C 
ENDBRANCH   9  11
ENDBRANCH   3   9
BRANCH   8  12
ATOM     12  O   UNL     1       1.189   0.252   4.734  0.00  0.00    -0.484 OA
BRANCH  12  13
ATOM     13  C   UNL     1       1.775  -0.156   5.972  0.00  0.00    +0.264 C 
BRANCH  13  14
ATOM     14  C   UNL     1       2.993  -1.000   5.697  0.00  0.00    -0.010 A 
ATOM     15  C   UNL     1       2.870  -2.371   5.575  0.00  0.00    +0.007 A 
ATOM     16  C   UNL     1       3.986  -3.145   5.318  0.00  0.00    +0.000 A 
ATOM     17  C   UNL     1       5.227  -2.548   5.194  0.00  0.00    +0.000 A 
ATOM     18  C   UNL     1       5.351  -1.177   5.321  0.00  0.00    +0.000 A 
ATOM     19  C   UNL     1       4.233  -0.403   5.573  0.00  0.00    +0.007 A 
ENDBRANCH  13  14
ENDBRANCH  12  13
ENDBRANCH   8  12
ENDBRANCH   1   5
BRANCH   2  20
ATOM     20  N   UNL     1      -5.058   4.556   6.265  0.00  0.00    -0.207 N 
ATOM     21  C   UNL     1      -5.559   4.902   7.467  0.00  0.00    +0.237 C 
ATOM     22  O   UNL     1      -5.012   4.527   8.483  0.00  0.00    -0.274 OA
ATOM     23  H   UNL     1      -5.495   4.856   5.452  0.00  0.00    +0.177 HD
BRANCH  21  24
ATOM     24  C   UNL     1      -6.800   5.753   7.549  0.00  0.00    +0.133 C 
BRANCH  24  25
ATOM     25  C   UNL     1      -7.149   5.994   8.995  0.00  0.00    -0.031 A 
ATOM     26  C   UNL     1      -8.056   5.196   9.622  0.00  0.00    +0.006 A 
ATOM     27  C   UNL     1      -8.387   5.399  10.960  0.00  0.00    +0.016 A 
ATOM     28  C   UNL     1      -7.821   6.410  11.676  0.00  0.00    +0.026 A 
ATOM     29  C   UNL     1      -6.884   7.259  11.061  0.00  0.00    -0.004 A 
ATOM     30  C   UNL     1      -6.544   7.048   9.701  0.00  0.00    -0.013 A 
ATOM     31  C   UNL     1      -5.607   7.896   9.086  0.00  0.00    +0.009 A 
ATOM     32  C   UNL     1      -5.042   8.906   9.802  0.00  0.00    +0.001 A 
ATOM     33  C   UNL     1      -5.377   9.114  11.138  0.00  0.00    +0.001 A 
ATOM     34  C   UNL     1      -6.280   8.312  11.767  0.00  0.00    +0.009 A 
ATOM     35 BR   UNL     1      -8.293   6.671  13.489  0.00  0.00    -0.050 Br
ENDBRANCH  24  25
ENDBRANCH  21  24
ENDBRANCH   2  20
TORSDOF 9
