REMARK  Name = ZINC58396027
REMARK  5 active torsions:
REMARK  status: ('A' for Active; 'I' for Inactive)
REMARK    1  A    between atoms: C_6  and  C_7
REMARK    2  A    between atoms: C_9  and  C_13
REMARK    3  A    between atoms: N_15  and  C_16
REMARK    4  A    between atoms: N_15  and  C_20
REMARK    5  A    between atoms: C_16  and  C_17
REMARK                            x       y       z     vdW  Elec       q    Type
REMARK                         _______ _______ _______ _____ _____    ______ ____
ROOT
ATOM      1  C   UNL     1      -3.472  -3.748  -0.231  0.00  0.00    +0.265 C 
ATOM      2  O   UNL     1      -2.808  -4.767  -0.259  0.00  0.00    -0.268 OA
ATOM      3  N   UNL     1      -4.768  -3.797   0.136  0.00  0.00    -0.284 N 
ENDROOT
BRANCH   1   6
ATOM      4  C   UNL     1      -1.437  -0.849  -1.138  0.00  0.00    +0.093 A 
ATOM      5  C   UNL     1      -1.518  -2.217  -0.821  0.00  0.00    +0.062 A 
ATOM      6  C   UNL     1      -2.859  -2.461  -0.597  0.00  0.00    +0.121 A 
ATOM      7  N   UNL     1      -3.505  -1.271  -0.782  0.00  0.00    -0.272 N 
ATOM      8  H   UNL     1      -4.461  -1.135  -0.691  0.00  0.00    +0.189 HD
ATOM      9  N   UNL     1      -2.656  -0.357  -1.089  0.00  0.00    -0.173 NA
BRANCH   4  15
ATOM     10  C   UNL     1      -0.266   1.265  -1.754  0.00  0.00    +0.011 A 
ATOM     11  C   UNL     1       0.887   1.961  -2.055  0.00  0.00    +0.016 A 
ATOM     12  C   UNL     1       2.108   1.310  -2.068  0.00  0.00    +0.018 A 
ATOM     13  C   UNL     1       2.179  -0.043  -1.780  0.00  0.00    +0.016 A 
ATOM     14  C   UNL     1       1.032  -0.747  -1.478  0.00  0.00    +0.011 A 
ATOM     15  C   UNL     1      -0.199  -0.096  -1.463  0.00  0.00    +0.002 A 
ATOM     16 BR   UNL     1       3.684   2.269  -2.481  0.00  0.00    -0.050 Br
ENDBRANCH   4  15
ENDBRANCH   1   6
BRANCH   3  17
ATOM     17  C   UNL     1      -5.370  -5.074   0.527  0.00  0.00    +0.077 C 
ATOM     18  C   UNL     1      -4.582  -5.694   1.699  0.00  0.00    +0.022 C 
ATOM     19  C   UNL     1      -4.599  -7.215   1.408  0.00  0.00    +0.002 C 
ATOM     20  C   UNL     1      -4.447  -7.269  -0.133  0.00  0.00    +0.002 C 
ATOM     21  C   UNL     1      -5.285  -6.076  -0.638  0.00  0.00    +0.022 C 
ENDBRANCH   3  17
BRANCH   3  22
ATOM     22  C   UNL     1      -5.574  -2.574   0.144  0.00  0.00    +0.203 C 
BRANCH  22  23
ATOM     23  C   UNL     1      -6.067  -2.289  -1.251  0.00  0.00    +0.228 C 
ATOM     24  O   UNL     1      -5.774  -3.034  -2.162  0.00  0.00    -0.274 OA
ATOM     25  N   UNL     1      -6.834  -1.206  -1.486  0.00  0.00    -0.328 N 
ATOM     26  H   UNL     1      -7.069  -0.610  -0.758  0.00  0.00    +0.145 HD
ATOM     27  H   UNL     1      -7.152  -1.022  -2.384  0.00  0.00    +0.145 HD
ENDBRANCH  22  23
ENDBRANCH   3  22
TORSDOF 5
