REMARK  Name = ZINC30742945
REMARK  5 active torsions:
REMARK  status: ('A' for Active; 'I' for Inactive)
REMARK    1  A    between atoms: C_3  and  C_8
REMARK    2  A    between atoms: C_5  and  O_7
REMARK    3  A    between atoms: N_9  and  N_10
REMARK    4  A    between atoms: C_11  and  C_13
REMARK    5  A    between atoms: C_15  and  C_19
REMARK                            x       y       z     vdW  Elec       q    Type
REMARK                         _______ _______ _______ _____ _____    ______ ____
ROOT
ATOM      1  N   UNL     1      -2.411   5.237  -0.049  0.00  0.00    -0.202 N 
ATOM      2  C   UNL     1      -3.579   5.881  -0.239  0.00  0.00    +0.281 C 
ATOM      3  O   UNL     1      -3.589   7.084  -0.420  0.00  0.00    -0.267 OA
ATOM      4  H   UNL     1      -2.402   4.149   0.114  0.00  0.00    +0.178 HD
ENDROOT
BRANCH   2   5
ATOM      5  C   UNL     1      -4.844   5.129  -0.229  0.00  0.00    +0.122 A 
ATOM      6  C   UNL     1      -6.115   5.644  -0.403  0.00  0.00    +0.062 A 
ATOM      7  C   UNL     1      -6.979   4.538  -0.312  0.00  0.00    +0.095 A 
ATOM      8  N   UNL     1      -6.239   3.471  -0.093  0.00  0.00    -0.173 NA
ATOM      9  N   UNL     1      -4.994   3.783  -0.040  0.00  0.00    -0.272 N 
ATOM     10  H   UNL     1      -4.111   3.149   0.127  0.00  0.00    +0.189 HD
BRANCH   7  11
ATOM     11  C   UNL     1      -8.458   4.568  -0.435  0.00  0.00    +0.022 A 
ATOM     12  C   UNL     1      -9.124   5.785  -0.560  0.00  0.00    +0.031 A 
ATOM     13  C   UNL     1     -10.500   5.808  -0.675  0.00  0.00    +0.042 A 
ATOM     14  C   UNL     1     -11.218   4.624  -0.664  0.00  0.00    +0.021 A 
ATOM     15  C   UNL     1     -10.562   3.413  -0.540  0.00  0.00    +0.022 A 
ATOM     16  C   UNL     1      -9.185   3.379  -0.430  0.00  0.00    +0.050 A 
ATOM     17 CL   UNL     1      -8.362   1.857  -0.281  0.00  0.00    -0.083 Cl
ATOM     18 CL   UNL     1     -11.332   7.324  -0.832  0.00  0.00    -0.084 Cl
ENDBRANCH   7  11
ENDBRANCH   2   5
BRANCH   1  20
ATOM     19  C   UNL     1      -0.075   5.321  -0.003  0.00  0.00    +0.138 C 
ATOM     20  N   UNL     1      -1.207   5.953  -0.059  0.00  0.00    -0.187 NA
BRANCH  19  23
ATOM     21  C   UNL     1      -0.911   2.091  -1.723  0.00  0.00    +0.004 A 
ATOM     22  C   UNL     1      -1.003   3.391  -1.271  0.00  0.00    +0.010 A 
ATOM     23  C   UNL     1       0.017   3.929  -0.483  0.00  0.00    -0.002 A 
ATOM     24  C   UNL     1       1.124   3.145  -0.152  0.00  0.00    +0.054 A 
ATOM     25  C   UNL     1       1.203   1.841  -0.608  0.00  0.00    +0.117 A 
ATOM     26  C   UNL     1       0.184   1.314  -1.390  0.00  0.00    +0.045 A 
BRANCH  25  27
ATOM     27  O   UNL     1       2.279   1.074  -0.288  0.00  0.00    -0.507 OA
ATOM     28  H   UNL     1       2.342   0.037  -0.650  0.00  0.00    +0.292 HD
ENDBRANCH  25  27
ENDBRANCH  19  23
ENDBRANCH   1  20
TORSDOF 5
