REMARK  Name = ZINC00663781
REMARK  11 active torsions:
REMARK  status: ('A' for Active; 'I' for Inactive)
REMARK    1  A    between atoms: C_1  and  O_2
REMARK    2  A    between atoms: O_2  and  C_3
REMARK    3  A    between atoms: C_3  and  C_5
REMARK    4  A    between atoms: C_5  and  C_6
REMARK    5  A    between atoms: C_7  and  C_32
REMARK    6  A    between atoms: N_15  and  C_18
REMARK    7  A    between atoms: C_18  and  C_19
REMARK    8  A    between atoms: C_26  and  C_30
REMARK    9  A    between atoms: C_27  and  N_29
REMARK   10  A    between atoms: C_32  and  O_34
REMARK   11  A    between atoms: O_34  and  C_35
REMARK                            x       y       z     vdW  Elec       q    Type
REMARK                         _______ _______ _______ _____ _____    ______ ____
ROOT
ATOM      1  C   UNL     1       4.351   3.516   1.133  0.00  0.00    +0.130 C 
ATOM      2  C   UNL     1       3.331   4.385   1.163  0.00  0.00    +0.100 C 
ATOM      3  C   UNL     1       2.468   4.599  -0.048  0.00  0.00    +0.148 C 
ATOM      4  C   UNL     1       1.118   3.956   0.146  0.00  0.00    -0.001 A 
ATOM      5  C   UNL     1       0.718   2.655   0.353  0.00  0.00    +0.007 A 
ATOM      6  C   UNL     1      -0.627   2.361   0.499  0.00  0.00    +0.000 A 
ATOM      7  C   UNL     1      -1.564   3.376   0.431  0.00  0.00    +0.002 A 
ATOM      8  C   UNL     1      -1.166   4.681   0.229  0.00  0.00    +0.024 A 
ATOM      9  C   UNL     1       0.186   4.985   0.080  0.00  0.00    +0.041 A 
ATOM     10  N   UNL     1       0.829   6.205  -0.136  0.00  0.00    -0.265 N 
ATOM     11  C   UNL     1       2.164   6.068  -0.224  0.00  0.00    +0.241 C 
ATOM     12  O   UNL     1       2.970   6.955  -0.408  0.00  0.00    -0.274 OA
ATOM     13  C   UNL     1       3.140   4.053  -1.274  0.00  0.00    +0.110 C 
ATOM     14  C   UNL     1       4.184   3.194  -1.161  0.00  0.00    +0.199 C 
ATOM     15  O   UNL     1       4.649   2.802   0.038  0.00  0.00    -0.444 OA
ENDROOT
BRANCH  14  16
ATOM     16  N   UNL     1       4.782   2.714  -2.300  0.00  0.00    -0.328 N 
ATOM     17  H   UNL     1       4.456   2.989  -3.171  0.00  0.00    +0.145 HD
ATOM     18  H   UNL     1       5.529   2.099  -2.233  0.00  0.00    +0.145 HD
ENDBRANCH  14  16
BRANCH  13  19
ATOM     19  C   UNL     1       2.676   4.441  -2.572  0.00  0.00    +0.102 C 
ATOM     20  N   UNL     1       2.308   4.749  -3.602  0.00  0.00    -0.191 NA
ENDBRANCH  13  19
BRANCH   2  21
ATOM     21  C   UNL     1       3.063   5.110   2.350  0.00  0.00    +0.340 C 
ATOM     22  O   UNL     1       3.826   5.032   3.295  0.00  0.00    -0.245 OA
BRANCH  21  23
ATOM     23  O   UNL     1       1.962   5.886   2.433  0.00  0.00    -0.465 OA
ATOM     24  C   UNL     1       1.755   6.588   3.660  0.00  0.00    +0.280 C 
ENDBRANCH  21  23
ENDBRANCH   2  21
BRANCH   1  25
ATOM     25  C   UNL     1       5.192   3.337   2.370  0.00  0.00    +0.195 C 
BRANCH  25  26
ATOM     26  C   UNL     1       6.217   4.439   2.446  0.00  0.00    +0.314 C 
ATOM     27  O   UNL     1       6.261   5.283   1.582  0.00  0.00    -0.250 OA
BRANCH  26  29
ATOM     28  C   UNL     1       8.042   5.572   3.479  0.00  0.00    +0.280 C 
ATOM     29  O   UNL     1       7.082   4.482   3.471  0.00  0.00    -0.468 OA
ENDBRANCH  26  29
ENDBRANCH  25  26
ENDBRANCH   1  25
BRANCH  10  30
ATOM     30  C   UNL     1       0.129   7.487  -0.254  0.00  0.00    +0.151 C 
BRANCH  30  31
ATOM     31  C   UNL     1      -0.222   7.736  -1.698  0.00  0.00    +0.005 A 
ATOM     32  C   UNL     1      -1.526   7.582  -2.129  0.00  0.00    +0.008 A 
ATOM     33  C   UNL     1      -1.848   7.812  -3.454  0.00  0.00    +0.000 A 
ATOM     34  C   UNL     1      -0.867   8.196  -4.349  0.00  0.00    +0.003 A 
ATOM     35  C   UNL     1       0.438   8.350  -3.920  0.00  0.00    +0.038 A 
ATOM     36  C   UNL     1       0.761   8.126  -2.592  0.00  0.00    +0.128 A 
ATOM     37  F   UNL     1       2.035   8.282  -2.171  0.00  0.00    -0.205 F 
ENDBRANCH  30  31
ENDBRANCH  10  30
TORSDOF 9
