REMARK  Name = ZINC01916143
REMARK  11 active torsions:
REMARK  status: ('A' for Active; 'I' for Inactive)
REMARK    1  A    between atoms: C_1  and  C_2
REMARK    2  A    between atoms: C_5  and  C_34
REMARK    3  A    between atoms: C_6  and  O_8
REMARK    4  A    between atoms: O_8  and  C_9
REMARK    5  A    between atoms: C_15  and  O_33
REMARK    6  A    between atoms: C_16  and  C_24
REMARK    7  A    between atoms: C_19  and  C_20
REMARK    8  A    between atoms: C_24  and  N_59
REMARK    9  A    between atoms: C_25  and  N_59
REMARK   10  A    between atoms: C_26  and  C_27
REMARK   11  A    between atoms: C_26  and  N_59
REMARK                            x       y       z     vdW  Elec       q    Type
REMARK                         _______ _______ _______ _____ _____    ______ ____
ROOT
ATOM      1  C   UNL     1       2.617   8.924  -5.181  0.00  0.00    +0.222 A 
ATOM      2  C   UNL     1       1.324   8.945  -5.777  0.00  0.00    +0.235 A 
ATOM      3  O   UNL     1       1.163   9.299  -6.932  0.00  0.00    -0.283 OA
ATOM      4  C   UNL     1       0.189   8.520  -4.939  0.00  0.00    +0.068 A 
ATOM      5  C   UNL     1      -1.115   8.507  -5.435  0.00  0.00    +0.019 A 
ATOM      6  C   UNL     1      -2.142   8.107  -4.628  0.00  0.00    +0.046 A 
ATOM      7  C   UNL     1      -1.894   7.712  -3.315  0.00  0.00    +0.122 A 
ATOM      8  C   UNL     1      -0.605   7.719  -2.808  0.00  0.00    +0.020 A 
ATOM      9  C   UNL     1       0.449   8.129  -3.614  0.00  0.00    +0.144 A 
ATOM     10  O   UNL     1       1.714   8.140  -3.147  0.00  0.00    -0.447 OA
ATOM     11  C   UNL     1       2.753   8.525  -3.900  0.00  0.00    +0.254 A 
ENDROOT
BRANCH  11  12
ATOM     12  C   UNL     1       4.131   8.510  -3.290  0.00  0.00    +0.454 C 
ATOM     13  F   UNL     1       4.391   9.749  -2.696  0.00  0.00    -0.163 F 
ATOM     14  F   UNL     1       4.200   7.504  -2.320  0.00  0.00    -0.163 F 
ATOM     15  F   UNL     1       5.080   8.262  -4.288  0.00  0.00    -0.163 F 
ENDBRANCH  11  12
BRANCH   7  16
ATOM     16  O   UNL     1      -2.925   7.316  -2.525  0.00  0.00    -0.506 OA
ATOM     17  H   UNL     1      -3.335   8.035  -2.024  0.00  0.00    +0.292 HD
ENDBRANCH   7  16
BRANCH   1  18
ATOM     18  O   UNL     1       3.709   9.304  -5.899  0.00  0.00    -0.448 OA
BRANCH  18  24
ATOM     19  C   UNL     1       2.898  13.834  -4.274  0.00  0.00    +0.044 C 
ATOM     20  C   UNL     1       3.700  12.850  -5.086  0.00  0.00    -0.047 A 
ATOM     21  C   UNL     1       4.803  13.280  -5.801  0.00  0.00    +0.004 A 
ATOM     22  C   UNL     1       5.540  12.380  -6.548  0.00  0.00    +0.007 A 
ATOM     23  C   UNL     1       5.176  11.048  -6.583  0.00  0.00    -0.008 A 
ATOM     24  C   UNL     1       4.069  10.614  -5.866  0.00  0.00    +0.132 A 
ATOM     25  C   UNL     1       3.329  11.520  -5.121  0.00  0.00    +0.050 A 
ATOM     26  C   UNL     1       5.979  10.068  -7.398  0.00  0.00    +0.047 C 
ENDBRANCH  18  24
ENDBRANCH   1  18
BRANCH   8  27
ATOM     27  C   UNL     1      -0.349   7.290  -1.387  0.00  0.00    -0.035 C 
BRANCH  27  29
ATOM     28  C   UNL     1       1.161   5.516  -2.047  0.00  0.00    -0.095 C 
ATOM     29  N   UNL     1      -0.112   5.831  -1.365  0.00  0.00    +0.383 N 
ATOM     30  H   UNL     1      -0.880   5.361  -1.858  0.00  0.00    -0.081 HD
BRANCH  29  31
ATOM     31  C   UNL     1      -0.070   5.347   0.031  0.00  0.00    -0.043 C 
BRANCH  31  32
ATOM     32  C   UNL     1      -0.050   3.840   0.023  0.00  0.00    -0.064 A 
ATOM     33  C   UNL     1       1.156   3.165   0.008  0.00  0.00    +0.002 A 
ATOM     34  C   UNL     1       1.175   1.783   0.000  0.00  0.00    +0.000 A 
ATOM     35  C   UNL     1      -0.013   1.076   0.008  0.00  0.00    +0.000 A 
ATOM     36  C   UNL     1      -1.219   1.751   0.017  0.00  0.00    +0.000 A 
ATOM     37  C   UNL     1      -1.238   3.133   0.030  0.00  0.00    +0.002 A 
ENDBRANCH  31  32
ENDBRANCH  29  31
ENDBRANCH  27  29
ENDBRANCH   8  27
TORSDOF 8
