REMARK  Name = ZINC35971773
REMARK  8 active torsions:
REMARK  status: ('A' for Active; 'I' for Inactive)
REMARK    1  A    between atoms: C_1  and  C_2
REMARK    2  A    between atoms: C_5  and  C_8
REMARK    3  A    between atoms: N_13  and  C_16
REMARK    4  A    between atoms: C_16  and  C_18
REMARK    5  A    between atoms: C_16  and  C_19
REMARK    6  A    between atoms: N_21  and  C_22
REMARK    7  A    between atoms: N_29  and  C_33
REMARK    8  A    between atoms: C_33  and  C_34
REMARK                            x       y       z     vdW  Elec       q    Type
REMARK                         _______ _______ _______ _____ _____    ______ ____
ROOT
ATOM      1  C   UNL     1       0.134  -3.478  -0.405  0.00  0.00    +0.142 C 
ATOM      2  C   UNL     1       1.489  -4.114  -0.169  0.00  0.00    +0.058 C 
ATOM      3  C   UNL     1       1.617  -4.944   0.886  0.00  0.00    +0.043 C 
ATOM      4  C   UNL     1       3.050  -5.425   0.878  0.00  0.00    +0.160 C 
ATOM      5  N   UNL     1       3.664  -4.766  -0.284  0.00  0.00    -0.281 N 
ATOM      6  C   UNL     1       2.712  -4.011  -0.863  0.00  0.00    +0.247 C 
ATOM      7  O   UNL     1       2.884  -3.328  -1.856  0.00  0.00    -0.270 OA
ATOM      8  N   UNL     1       0.562  -5.205   1.714  0.00  0.00    -0.253 N 
ATOM      9  C   UNL     1      -0.656  -4.671   1.552  0.00  0.00    +0.307 C 
ATOM     10  O   UNL     1      -1.534  -4.961   2.341  0.00  0.00    -0.252 OA
ATOM     11  N   UNL     1      -0.938  -3.822   0.545  0.00  0.00    -0.288 N 
ATOM     12  H   UNL     1      -1.827  -3.447   0.447  0.00  0.00    +0.151 HD
ENDROOT
BRANCH   1  17
ATOM     13  C   UNL     1       0.815   2.260  -0.313  0.00  0.00    +0.044 C 
ATOM     14  C   UNL     1       0.637   0.764  -0.337  0.00  0.00    -0.050 A 
ATOM     15  C   UNL     1       0.628   0.088  -1.543  0.00  0.00    +0.004 A 
ATOM     16  C   UNL     1       0.466  -1.284  -1.565  0.00  0.00    +0.006 A 
ATOM     17  C   UNL     1       0.312  -1.981  -0.381  0.00  0.00    -0.023 A 
ATOM     18  C   UNL     1       0.323  -1.306   0.825  0.00  0.00    +0.006 A 
ATOM     19  C   UNL     1       0.489   0.066   0.848  0.00  0.00    +0.004 A 
ENDBRANCH   1  17
BRANCH   5  20
ATOM     20  C   UNL     1       5.053  -4.905  -0.730  0.00  0.00    +0.160 C 
ATOM     21  C   UNL     1       5.734  -3.535  -0.710  0.00  0.00    +0.038 C 
BRANCH  20  22
ATOM     22  C   UNL     1       5.077  -5.458  -2.131  0.00  0.00    +0.237 C 
ATOM     23  O   UNL     1       4.038  -5.711  -2.702  0.00  0.00    -0.273 OA
ATOM     24  N   UNL     1       6.255  -5.671  -2.751  0.00  0.00    -0.284 N 
ATOM     25  H   UNL     1       7.083  -5.398  -2.326  0.00  0.00    +0.155 HD
BRANCH  24  26
ATOM     26  C   UNL     1       6.284  -6.287  -4.008  0.00  0.00    +0.034 A 
ATOM     27  C   UNL     1       7.258  -5.935  -4.933  0.00  0.00    +0.026 A 
ATOM     28  C   UNL     1       7.284  -6.544  -6.172  0.00  0.00    +0.040 A 
ATOM     29  C   UNL     1       6.340  -7.504  -6.493  0.00  0.00    +0.124 A 
ATOM     30  C   UNL     1       5.368  -7.857  -5.572  0.00  0.00    +0.040 A 
ATOM     31  C   UNL     1       5.342  -7.255  -4.330  0.00  0.00    +0.026 A 
ATOM     32  F   UNL     1       6.367  -8.098  -7.707  0.00  0.00    -0.205 F 
ENDBRANCH  24  26
ENDBRANCH  20  22
ENDBRANCH   5  20
BRANCH   8  33
ATOM     33  C   UNL     1       0.774  -6.117   2.840  0.00  0.00    +0.141 C 
BRANCH  33  34
ATOM     34  C   UNL     1       1.220  -5.332   4.046  0.00  0.00    -0.015 C 
ATOM     35  C   UNL     1       0.559  -5.431   5.173  0.00  0.00    +0.005 C 
ENDBRANCH  33  34
ENDBRANCH   8  33
TORSDOF 6
