REMARK  Name = ZINC36093639
REMARK  9 active torsions:
REMARK  status: ('A' for Active; 'I' for Inactive)
REMARK    1  A    between atoms: C_1  and  C_2
REMARK    2  A    between atoms: C_2  and  O_3
REMARK    3  A    between atoms: O_3  and  C_4
REMARK    4  A    between atoms: C_6  and  C_23
REMARK    5  A    between atoms: C_9  and  O_10
REMARK    6  A    between atoms: O_10  and  C_11
REMARK    7  A    between atoms: C_11  and  C_13
REMARK    8  A    between atoms: N_32  and  C_35
REMARK    9  A    between atoms: C_36  and  O_38
REMARK                            x       y       z     vdW  Elec       q    Type
REMARK                         _______ _______ _______ _____ _____    ______ ____
ROOT
ATOM      1  C   UNL     1      -1.508  -1.856   0.034  0.00  0.00    +0.163 A 
ATOM      2  C   UNL     1      -0.397  -2.684   0.026  0.00  0.00    +0.056 A 
ATOM      3  C   UNL     1      -0.558  -4.056  -0.005  0.00  0.00    -0.002 A 
ATOM      4  C   UNL     1      -1.827  -4.607  -0.028  0.00  0.00    +0.011 A 
ATOM      5  C   UNL     1      -2.939  -3.787  -0.021  0.00  0.00    +0.050 A 
ATOM      6  C   UNL     1      -2.785  -2.410   0.015  0.00  0.00    +0.173 A 
ENDROOT
BRANCH   3   7
ATOM      7  C   UNL     1       0.651  -4.955  -0.013  0.00  0.00    +0.224 C 
ATOM      8  N   UNL     1       0.304  -6.235   0.631  0.00  0.00    -0.313 N 
ATOM      9  C   UNL     1       0.372  -6.263   2.006  0.00  0.00    +0.080 A 
ATOM     10  C   UNL     1       1.195  -5.387   2.725  0.00  0.00    +0.067 A 
ATOM     11  C   UNL     1       1.149  -5.528   4.166  0.00  0.00    -0.027 A 
ATOM     12  C   UNL     1       0.317  -6.500   4.612  0.00  0.00    -0.021 A 
ATOM     13  S   UNL     1      -0.384  -7.201   3.146  0.00  0.00    -0.080 S 
ATOM     14  C   UNL     1       0.076  -6.870   6.042  0.00  0.00    -0.036 C 
ATOM     15  N   UNL     1       1.152  -6.282   6.861  0.00  0.00    +0.381 N 
ATOM     16  C   UNL     1       1.294  -4.856   6.539  0.00  0.00    -0.074 C 
ATOM     17  C   UNL     1       1.939  -4.688   5.159  0.00  0.00    +0.018 C 
ATOM     18  C   UNL     1       0.820  -6.431   8.284  0.00  0.00    -0.096 C 
ATOM     19  C   UNL     1       2.018  -4.428   1.946  0.00  0.00    +0.220 C 
ATOM     20  N   UNL     1       1.746  -4.287   0.678  0.00  0.00    -0.223 NA
ATOM     21  H   UNL     1       0.043  -7.014   0.115  0.00  0.00    +0.149 HD
ATOM     22  H   UNL     1       2.020  -6.758   6.667  0.00  0.00    -0.082 HD
BRANCH  19  23
ATOM     23  O   UNL     1       3.016  -3.725   2.531  0.00  0.00    -0.492 OA
ATOM     24  H   UNL     1       3.484  -3.131   1.928  0.00  0.00    +0.294 HD
ENDBRANCH  19  23
ENDBRANCH   3   7
BRANCH   1  25
ATOM     25  O   UNL     1      -1.352  -0.506   0.064  0.00  0.00    -0.489 OA
BRANCH  25  27
ATOM     26  C   UNL     1      -0.036   1.521   0.115  0.00  0.00    +0.048 C 
ATOM     27  C   UNL     1      -0.012  -0.008   0.082  0.00  0.00    +0.226 C 
ENDBRANCH  25  27
ENDBRANCH   1  25
BRANCH   6  28
ATOM     28  O   UNL     1      -3.879  -1.601   0.028  0.00  0.00    -0.419 OA
BRANCH  28  29
ATOM     29  C   UNL     1      -4.261  -1.036  -1.134  0.00  0.00    +0.345 C 
ATOM     30  O   UNL     1      -3.692  -1.327  -2.168  0.00  0.00    -0.245 OA
BRANCH  29  31
ATOM     31  C   UNL     1      -5.369  -0.066  -1.151  0.00  0.00    +0.067 A 
ATOM     32  C   UNL     1      -5.950   0.368   0.034  0.00  0.00    +0.015 A 
ATOM     33  C   UNL     1      -6.994   1.284   0.014  0.00  0.00    +0.001 A 
ATOM     34  C   UNL     1      -7.485   1.788  -1.151  0.00  0.00    +0.008 A 
ATOM     35  C   UNL     1      -6.946   1.394  -2.386  0.00  0.00    -0.017 A 
ATOM     36  C   UNL     1      -5.875   0.466  -2.415  0.00  0.00    -0.004 A 
ATOM     37  C   UNL     1      -5.332   0.075  -3.644  0.00  0.00    +0.009 A 
ATOM     38  C   UNL     1      -5.834   0.595  -4.799  0.00  0.00    +0.001 A 
ATOM     39  C   UNL     1      -6.883   1.511  -4.775  0.00  0.00    +0.001 A 
ATOM     40  C   UNL     1      -7.443   1.905  -3.598  0.00  0.00    +0.008 A 
ENDBRANCH  29  31
ENDBRANCH  28  29
ENDBRANCH   6  28
TORSDOF 7
