REMARK  Name = ZINC11911202
REMARK  8 active torsions:
REMARK  status: ('A' for Active; 'I' for Inactive)
REMARK    1  A    between atoms: C_1  and  N_2
REMARK    2  A    between atoms: C_4  and  C_7
REMARK    3  A    between atoms: C_7  and  N_8
REMARK    4  A    between atoms: C_19  and  N_55
REMARK    5  A    between atoms: C_23  and  C_24
REMARK    6  A    between atoms: C_23  and  N_55
REMARK    7  A    between atoms: C_28  and  O_30
REMARK    8  A    between atoms: O_30  and  C_31
REMARK                            x       y       z     vdW  Elec       q    Type
REMARK                         _______ _______ _______ _____ _____    ______ ____
ROOT
ATOM      1  N   UNL     1       2.544  13.869  -3.180  0.00  0.00    -0.294 N 
ATOM      2  C   UNL     1       1.342  14.292  -2.721  0.00  0.00    +0.203 A 
ATOM      3  N   UNL     1       0.471  13.491  -2.148  0.00  0.00    -0.230 NA
ATOM      4  C   UNL     1       0.808  12.211  -2.024  0.00  0.00    +0.116 A 
ATOM      5  C   UNL     1       2.036  11.674  -2.471  0.00  0.00    +0.076 A 
ATOM      6  C   UNL     1       2.958  12.582  -3.091  0.00  0.00    +0.263 A 
ATOM      7  O   UNL     1       4.043  12.220  -3.511  0.00  0.00    -0.267 OA
ATOM      8  C   UNL     1       2.231  10.252  -2.251  0.00  0.00    -0.023 A 
ATOM      9  C   UNL     1       1.221   9.587  -1.642  0.00  0.00    -0.006 A 
ATOM     10  S   UNL     1      -0.025  10.815  -1.337  0.00  0.00    -0.073 S 
ATOM     11  C   UNL     1       1.170   8.130  -1.300  0.00  0.00    +0.027 C 
ATOM     12  C   UNL     1       2.590   7.556  -1.408  0.00  0.00    -0.066 C 
ATOM     13  C   UNL     1       3.206   8.016  -2.732  0.00  0.00    -0.011 C 
ATOM     14  C   UNL     1       3.499   9.515  -2.674  0.00  0.00    +0.035 C 
ENDROOT
BRANCH  12  15
ATOM     15  N   UNL     1       2.531   6.082  -1.384  0.00  0.00    +0.384 N 
ATOM     16  H   UNL     1       3.350   5.702  -1.873  0.00  0.00    -0.085 HD
ATOM     17  H   UNL     1       1.674   5.769  -1.857  0.00  0.00    -0.085 HD
BRANCH  15  18
ATOM     18  C   UNL     1       2.524   5.592   0.007  0.00  0.00    -0.046 C 
BRANCH  18  19
ATOM     19  C   UNL     1       2.463   4.086   0.000  0.00  0.00    -0.061 A 
ATOM     20  C   UNL     1       3.633   3.348  -0.015  0.00  0.00    +0.002 A 
ATOM     21  C   UNL     1       3.580   1.966  -0.021  0.00  0.00    +0.004 A 
ATOM     22  C   UNL     1       2.359   1.320  -0.013  0.00  0.00    +0.046 A 
ATOM     23  C   UNL     1       1.185   2.058   0.002  0.00  0.00    +0.130 A 
ATOM     24  C   UNL     1       1.240   3.445   0.003  0.00  0.00    +0.047 A 
BRANCH  23  25
ATOM     25  O   UNL     1      -0.017   1.425   0.010  0.00  0.00    -0.406 OA
BRANCH  25  26
ATOM     26  C   UNL     1       0.002  -0.004   0.002  0.00  0.00    +0.575 C 
ATOM     27  F   UNL     1       0.679  -0.468   1.135  0.00  0.00    -0.133 F 
ATOM     28  F   UNL     1      -1.310  -0.488   0.012  0.00  0.00    -0.133 F 
ATOM     29  F   UNL     1       0.657  -0.455  -1.149  0.00  0.00    -0.133 F 
ENDBRANCH  25  26
ENDBRANCH  23  25
ENDBRANCH  18  19
ENDBRANCH  15  18
ENDBRANCH  12  15
BRANCH   1  30
ATOM     30  C   UNL     1       3.438  14.848  -3.802  0.00  0.00    +0.164 C 
BRANCH  30  34
ATOM     31  C   UNL     1       3.606  13.948  -8.730  0.00  0.00    +0.172 C 
ATOM     32  N   UNL     1       3.243  14.513  -7.428  0.00  0.00    -0.274 N 
ATOM     33  C   UNL     1       3.766  14.160  -6.235  0.00  0.00    +0.113 A 
ATOM     34  C   UNL     1       3.165  14.910  -5.283  0.00  0.00    +0.010 A 
ATOM     35  C   UNL     1       2.248  15.756  -5.916  0.00  0.00    +0.139 A 
ATOM     36  N   UNL     1       2.294  15.519  -7.202  0.00  0.00    -0.180 NA
ENDBRANCH  30  34
ENDBRANCH   1  30
TORSDOF 7
