REMARK  Name = ZINC02441273
REMARK  9 active torsions:
REMARK  status: ('A' for Active; 'I' for Inactive)
REMARK    1  A    between atoms: C_1  and  C_2
REMARK    2  A    between atoms: C_2  and  O_3
REMARK    3  A    between atoms: O_3  and  C_4
REMARK    4  A    between atoms: C_4  and  C_6
REMARK    5  A    between atoms: C_7  and  N_38
REMARK    6  A    between atoms: C_21  and  C_31
REMARK    7  A    between atoms: C_21  and  C_32
REMARK    8  A    between atoms: C_23  and  C_24
REMARK    9  A    between atoms: C_23  and  C_25
REMARK                            x       y       z     vdW  Elec       q    Type
REMARK                         _______ _______ _______ _____ _____    ______ ____
ROOT
ATOM      1  C   UNL     1       1.021   1.741   1.308  0.00  0.00    +0.117 C 
ATOM      2  C   UNL     1       2.359   1.865   1.517  0.00  0.00    +0.195 C 
ATOM      3  O   UNL     1       3.201   2.117   0.504  0.00  0.00    -0.446 OA
ATOM      4  C   UNL     1       2.840   1.834  -0.761  0.00  0.00    +0.115 C 
ATOM      5  C   UNL     1       1.544   1.714  -1.110  0.00  0.00    +0.057 C 
ATOM      6  C   UNL     1       0.460   1.881  -0.077  0.00  0.00    +0.141 C 
ATOM      7  C   UNL     1      -0.238   3.192  -0.247  0.00  0.00    -0.001 A 
ATOM      8  C   UNL     1       0.155   4.511  -0.181  0.00  0.00    +0.007 A 
ATOM      9  C   UNL     1      -0.826   5.475  -0.407  0.00  0.00    +0.001 A 
ATOM     10  C   UNL     1      -2.143   5.146  -0.688  0.00  0.00    +0.006 A 
ATOM     11  C   UNL     1      -2.539   3.832  -0.756  0.00  0.00    -0.015 A 
ATOM     12  C   UNL     1      -1.558   2.867  -0.528  0.00  0.00    +0.046 A 
ATOM     13  N   UNL     1      -1.766   1.490  -0.557  0.00  0.00    -0.264 N 
ATOM     14  C   UNL     1      -0.622   0.837  -0.302  0.00  0.00    +0.240 C 
ATOM     15  O   UNL     1      -0.476  -0.366  -0.262  0.00  0.00    -0.274 OA
ATOM     16  C   UNL     1      -3.111   0.949  -0.824  0.00  0.00    +0.038 C 
ATOM     17  C   UNL     1      -4.149   1.985  -0.378  0.00  0.00    +0.041 C 
ATOM     18  C   UNL     1      -3.926   3.342  -1.053  0.00  0.00    +0.022 C 
ATOM     19  C   UNL     1      -4.100   3.192  -2.565  0.00  0.00    +0.021 C 
ATOM     20  C   UNL     1      -3.310  -0.350  -0.041  0.00  0.00    +0.032 C 
ATOM     21  C   UNL     1      -3.264   0.677  -2.321  0.00  0.00    +0.032 C 
ATOM     22  C   UNL     1       1.167   1.434  -2.437  0.00  0.00    +0.164 C 
ATOM     23  O   UNL     1      -0.011   1.314  -2.709  0.00  0.00    -0.292 OA
ATOM     24  C   UNL     1       2.195   1.279  -3.525  0.00  0.00    +0.080 C 
ATOM     25  C   UNL     1       3.429   2.111  -3.160  0.00  0.00    +0.016 C 
ATOM     26  C   UNL     1       3.933   1.657  -1.789  0.00  0.00    +0.075 C 
ENDROOT
BRANCH  18  27
ATOM     27  C   UNL     1      -4.931   4.335  -0.528  0.00  0.00    -0.037 A 
ATOM     28  C   UNL     1      -4.893   4.721   0.799  0.00  0.00    +0.004 A 
ATOM     29  C   UNL     1      -5.813   5.635   1.279  0.00  0.00    +0.000 A 
ATOM     30  C   UNL     1      -6.776   6.155   0.435  0.00  0.00    +0.000 A 
ATOM     31  C   UNL     1      -6.818   5.764  -0.890  0.00  0.00    +0.000 A 
ATOM     32  C   UNL     1      -5.895   4.854  -1.372  0.00  0.00    +0.004 A 
ENDBRANCH  18  27
BRANCH   2  33
ATOM     33  N   UNL     1       2.856   1.728   2.785  0.00  0.00    -0.329 N 
ATOM     34  H   UNL     1       3.815   1.731   2.933  0.00  0.00    +0.145 HD
ATOM     35  H   UNL     1       2.250   1.627   3.535  0.00  0.00    +0.145 HD
ENDBRANCH   2  33
BRANCH   1  36
ATOM     36  C   UNL     1       0.164   1.483   2.389  0.00  0.00    +0.342 C 
ATOM     37  O   UNL     1      -0.474   2.391   2.890  0.00  0.00    -0.245 OA
BRANCH  36  38
ATOM     38  O   UNL     1       0.046   0.227   2.872  0.00  0.00    -0.462 OA
BRANCH  38  40
ATOM     39  C   UNL     1      -0.976  -1.467   4.259  0.00  0.00    +0.048 C 
ATOM     40  C   UNL     1      -0.897   0.024   3.926  0.00  0.00    +0.229 C 
ENDBRANCH  38  40
ENDBRANCH  36  38
ENDBRANCH   1  36
TORSDOF 5
