REMARK  Name = ZINC63557238
REMARK  9 active torsions:
REMARK  status: ('A' for Active; 'I' for Inactive)
REMARK    1  A    between atoms: C_1  and  C_2
REMARK    2  A    between atoms: C_2  and  C_3
REMARK    3  A    between atoms: C_3  and  C_4
REMARK    4  A    between atoms: C_3  and  C_6
REMARK    5  A    between atoms: C_4  and  C_5
REMARK    6  A    between atoms: C_13  and  C_15
REMARK    7  A    between atoms: N_20  and  C_22
REMARK    8  A    between atoms: C_22  and  C_23
REMARK    9  A    between atoms: C_23  and  C_24
REMARK                            x       y       z     vdW  Elec       q    Type
REMARK                         _______ _______ _______ _____ _____    ______ ____
ROOT
ATOM      1  C   UNL     1      -3.754  -4.659   5.846  0.00  0.00    +0.101 C 
ATOM      2  C   UNL     1      -3.634  -3.534   6.899  0.00  0.00    +0.110 C 
ATOM      3  C   UNL     1      -4.670  -3.890   7.943  0.00  0.00    +0.216 C 
ATOM      4  O   UNL     1      -4.714  -3.430   9.064  0.00  0.00    -0.276 OA
ATOM      5  N   UNL     1      -5.535  -4.792   7.447  0.00  0.00    -0.300 N 
ATOM      6  C   UNL     1      -5.208  -5.136   6.057  0.00  0.00    +0.121 C 
ENDROOT
BRANCH   1  13
ATOM      7  C   UNL     1      -1.399  -2.007   0.428  0.00  0.00    +0.157 C 
ATOM      8  N   UNL     1      -2.775  -2.529   0.596  0.00  0.00    -0.253 N 
ATOM      9  N   UNL     1      -3.057  -3.050   1.839  0.00  0.00    -0.163 NA
ATOM     10  C   UNL     1      -2.195  -3.091   2.806  0.00  0.00    +0.179 C 
ATOM     11  S   UNL     1      -0.725  -2.356   2.105  0.00  0.00    -0.065 S 
ATOM     12  N   UNL     1      -2.373  -3.592   4.093  0.00  0.00    -0.263 N 
ATOM     13  C   UNL     1      -3.561  -4.117   4.453  0.00  0.00    +0.224 C 
ATOM     14  O   UNL     1      -4.475  -4.152   3.656  0.00  0.00    -0.275 OA
ATOM     15  H   UNL     1      -3.430  -2.505  -0.119  0.00  0.00    +0.169 HD
ATOM     16  H   UNL     1      -1.642  -3.563   4.730  0.00  0.00    +0.157 HD
BRANCH   7  17
ATOM     17  C   UNL     1      -1.405  -0.506   0.131  0.00  0.00    +0.021 C 
BRANCH  17  19
ATOM     18  C   UNL     1       0.038   1.504  -0.215  0.00  0.00    +0.004 C 
ATOM     19  C   UNL     1       0.033  -0.018  -0.057  0.00  0.00    +0.003 C 
ENDBRANCH  17  19
BRANCH  17  20
ATOM     20  C   UNL     1      -2.204  -0.242  -1.147  0.00  0.00    +0.003 C 
ATOM     21  C   UNL     1      -1.589  -1.031  -2.305  0.00  0.00    +0.004 C 
ENDBRANCH  17  20
ENDBRANCH   7  17
ENDBRANCH   1  13
BRANCH   5  22
ATOM     22  C   UNL     1      -6.658  -5.360   8.196  0.00  0.00    +0.112 C 
BRANCH  22  23
ATOM     23  C   UNL     1      -7.899  -4.489   7.993  0.00  0.00    +0.052 C 
BRANCH  23  24
ATOM     24  C   UNL     1      -9.054  -5.073   8.764  0.00  0.00    -0.040 C 
ATOM     25  C   UNL     1      -9.463  -4.724  10.006  0.00  0.00    +0.002 A 
ATOM     26  C   UNL     1      -8.971  -3.735  10.973  0.00  0.00    +0.048 A 
ATOM     27  C   UNL     1      -9.601  -3.613  12.165  0.00  0.00    +0.124 A 
ATOM     28  C   UNL     1     -10.710  -4.407  12.497  0.00  0.00    +0.040 A 
ATOM     29  C   UNL     1     -11.218  -5.336  11.661  0.00  0.00    +0.029 A 
ATOM     30  C   UNL     1     -10.634  -5.548  10.381  0.00  0.00    +0.043 A 
ATOM     31  N   UNL     1     -10.938  -6.374   9.409  0.00  0.00    -0.380 N 
ATOM     32  C   UNL     1      -9.996  -6.162   8.304  0.00  0.00    +0.144 C 
ATOM     33  F   UNL     1      -9.151  -2.704  13.057  0.00  0.00    -0.205 F 
ATOM     34  H   UNL     1     -11.665  -7.016   9.418  0.00  0.00    +0.160 HD
ENDBRANCH  23  24
ENDBRANCH  22  23
ENDBRANCH   5  22
TORSDOF 7
