REMARK  Name = ZINC59434991
REMARK  5 active torsions:
REMARK  status: ('A' for Active; 'I' for Inactive)
REMARK    1  A    between atoms: C_7  and  C_11
REMARK    2  A    between atoms: N_12  and  N_13
REMARK    3  A    between atoms: C_14  and  N_15
REMARK    4  A    between atoms: C_16  and  C_21
REMARK    5  A    between atoms: N_23  and  C_24
REMARK                            x       y       z     vdW  Elec       q    Type
REMARK                         _______ _______ _______ _____ _____    ______ ____
ROOT
ATOM      1  N   UNL     1      -1.503  -4.146   0.145  0.00  0.00    -0.176 N 
ATOM      2  C   UNL     1      -2.842  -3.971   0.108  0.00  0.00    +0.141 A 
ATOM      3  C   UNL     1      -3.597  -5.091  -0.143  0.00  0.00    +0.119 A 
ATOM      4  S   UNL     1      -2.335  -6.340  -0.312  0.00  0.00    -0.018 S 
ATOM      5  C   UNL     1      -0.984  -5.372  -0.064  0.00  0.00    +0.313 A 
ATOM      6  O   UNL     1       0.189  -5.701  -0.070  0.00  0.00    -0.258 OA
ENDROOT
BRANCH   3   7
ATOM      7  C   UNL     1      -4.999  -5.220  -0.241  0.00  0.00    +0.258 C 
ATOM      8  O   UNL     1      -5.712  -4.243  -0.094  0.00  0.00    -0.269 OA
ATOM      9  N   UNL     1      -5.549  -6.423  -0.497  0.00  0.00    -0.281 N 
ATOM     10  H   UNL     1      -4.989  -7.215  -0.534  0.00  0.00    +0.155 HD
BRANCH   9  11
ATOM     11  C   UNL     1      -6.928  -6.531  -0.709  0.00  0.00    +0.034 A 
ATOM     12  C   UNL     1      -7.609  -7.668  -0.292  0.00  0.00    +0.024 A 
ATOM     13  C   UNL     1      -8.970  -7.772  -0.503  0.00  0.00    +0.017 A 
ATOM     14  C   UNL     1      -9.654  -6.745  -1.129  0.00  0.00    +0.018 A 
ATOM     15  C   UNL     1      -8.978  -5.612  -1.545  0.00  0.00    +0.017 A 
ATOM     16  C   UNL     1      -7.619  -5.500  -1.331  0.00  0.00    +0.024 A 
ATOM     17 BR   UNL     1     -11.518  -6.891  -1.415  0.00  0.00    -0.050 Br
ENDBRANCH   9  11
ENDBRANCH   3   7
BRANCH   2  18
ATOM     18  N   UNL     1      -3.420  -2.735   0.310  0.00  0.00    -0.342 N 
ATOM     19  H   UNL     1      -4.385  -2.640   0.277  0.00  0.00    +0.144 HD
ATOM     20  H   UNL     1      -2.862  -1.962   0.485  0.00  0.00    +0.144 HD
ENDBRANCH   2  18
BRANCH   1  22
ATOM     21  C   UNL     1       0.631  -3.201   0.306  0.00  0.00    +0.143 C 
ATOM     22  N   UNL     1      -0.657  -3.057   0.394  0.00  0.00    -0.169 NA
BRANCH  21  29
ATOM     23  C   UNL     1      -0.152   1.100   1.987  0.00  0.00    +0.001 A 
ATOM     24  C   UNL     1       1.025   1.795   2.227  0.00  0.00    +0.002 A 
ATOM     25  C   UNL     1       2.248   1.215   1.973  0.00  0.00    +0.026 A 
ATOM     26  C   UNL     1       2.310  -0.082   1.471  0.00  0.00    +0.047 A 
ATOM     27  C   UNL     1       1.119  -0.784   1.229  0.00  0.00    +0.008 A 
ATOM     28  C   UNL     1      -0.111  -0.184   1.490  0.00  0.00    +0.010 A 
ATOM     29  C   UNL     1       1.523  -2.103   0.709  0.00  0.00    +0.020 A 
ATOM     30  C   UNL     1       2.883  -2.105   0.674  0.00  0.00    +0.093 A 
ATOM     31  N   UNL     1       3.357  -0.910   1.124  0.00  0.00    -0.360 N 
ATOM     32  H   UNL     1       4.295  -0.675   1.191  0.00  0.00    +0.165 HD
ENDBRANCH  21  29
ENDBRANCH   1  22
TORSDOF 5
