REMARK  Name = ZINC16035252
REMARK  4 active torsions:
REMARK  status: ('A' for Active; 'I' for Inactive)
REMARK    1  A    between atoms: C_16  and  C_18
REMARK    2  A    between atoms: N_20  and  C_21
REMARK    3  A    between atoms: N_30  and  C_33
REMARK    4  A    between atoms: C_36  and  N_39
REMARK                            x       y       z     vdW  Elec       q    Type
REMARK                         _______ _______ _______ _____ _____    ______ ____
ROOT
ATOM      1  C   UNL     1      -0.031   1.356   0.008  0.00  0.00    +0.001 A 
ATOM      2  C   UNL     1       1.154   2.072  -0.005  0.00  0.00    +0.000 A 
ATOM      3  C   UNL     1       2.367   1.411  -0.014  0.00  0.00    +0.006 A 
ATOM      4  C   UNL     1       2.417   0.032  -0.013  0.00  0.00    -0.019 A 
ATOM      5  C   UNL     1       1.214  -0.700  -0.012  0.00  0.00    -0.019 A 
ATOM      6  C   UNL     1      -0.004  -0.022   0.006  0.00  0.00    +0.008 A 
ATOM      7  C   UNL     1       1.240  -2.174  -0.052  0.00  0.00    +0.023 C 
ATOM      8  C   UNL     1       2.387  -2.846  -0.266  0.00  0.00    +0.072 C 
ATOM      9  N   UNL     1       3.526  -2.098  -0.464  0.00  0.00    -0.316 N 
ATOM     10  C   UNL     1       3.682  -0.711  -0.002  0.00  0.00    +0.117 C 
ATOM     11  C   UNL     1       4.964  -0.175  -0.491  0.00  0.00    +0.115 C 
ATOM     12  C   UNL     1       5.764  -1.544  -0.581  0.00  0.00    +0.119 C 
ATOM     13  C   UNL     1       4.774  -2.456  -1.198  0.00  0.00    +0.172 C 
ATOM     14  C   UNL     1       7.099  -1.055  -0.840  0.00  0.00    +0.232 C 
ATOM     15  O   UNL     1       7.950  -1.565  -1.537  0.00  0.00    -0.274 OA
ATOM     16  N   UNL     1       7.194   0.114  -0.124  0.00  0.00    -0.210 N 
ATOM     17  C   UNL     1       5.971   0.552   0.349  0.00  0.00    +0.232 C 
ATOM     18  O   UNL     1       5.754   1.342   1.243  0.00  0.00    -0.274 OA
ENDROOT
BRANCH  16  19
ATOM     19  C   UNL     1       8.398   0.799   0.094  0.00  0.00    +0.044 A 
ATOM     20  C   UNL     1       8.405   1.972   0.836  0.00  0.00    +0.026 A 
ATOM     21  C   UNL     1       9.593   2.644   1.050  0.00  0.00    +0.034 A 
ATOM     22  C   UNL     1      10.773   2.150   0.526  0.00  0.00    +0.126 A 
ATOM     23  C   UNL     1      10.768   0.981  -0.213  0.00  0.00    +0.034 A 
ATOM     24  C   UNL     1       9.585   0.301  -0.426  0.00  0.00    +0.026 A 
BRANCH  22  25
ATOM     25  N   UNL     1      12.044   2.873   0.757  0.00  0.00    +0.056 N 
ATOM     26  O   UNL     1      12.049   3.894   1.403  0.00  0.00    -0.126 OA
ATOM     27  O   UNL     1      13.076   2.441   0.300  0.00  0.00    -0.126 OA
ENDBRANCH  22  25
ENDBRANCH  16  19
BRANCH  13  28
ATOM     28  C   UNL     1       4.631  -2.176  -2.672  0.00  0.00    +0.238 C 
ATOM     29  O   UNL     1       3.761  -1.428  -3.065  0.00  0.00    -0.273 OA
ATOM     30  N   UNL     1       5.470  -2.757  -3.553  0.00  0.00    -0.284 N 
ATOM     31  H   UNL     1       6.206  -3.302  -3.234  0.00  0.00    +0.155 HD
BRANCH  30  32
ATOM     32  C   UNL     1       5.277  -2.575  -4.927  0.00  0.00    +0.034 A 
ATOM     33  C   UNL     1       5.555  -3.608  -5.812  0.00  0.00    +0.025 A 
ATOM     34  C   UNL     1       5.364  -3.426  -7.167  0.00  0.00    +0.022 A 
ATOM     35  C   UNL     1       4.897  -2.214  -7.644  0.00  0.00    +0.041 A 
ATOM     36  C   UNL     1       4.619  -1.182  -6.765  0.00  0.00    +0.022 A 
ATOM     37  C   UNL     1       4.803  -1.361  -5.408  0.00  0.00    +0.025 A 
ATOM     38 CL   UNL     1       4.659  -1.987  -9.349  0.00  0.00    -0.084 Cl
ENDBRANCH  30  32
ENDBRANCH  13  28
TORSDOF 4
