REMARK  Name = ZINC37205403
REMARK  4 active torsions:
REMARK  status: ('A' for Active; 'I' for Inactive)
REMARK    1  A    between atoms: C_7  and  C_11
REMARK    2  A    between atoms: C_11  and  S_12
REMARK    3  A    between atoms: S_12  and  C_13
REMARK    4  A    between atoms: C_18  and  N_19
REMARK                            x       y       z     vdW  Elec       q    Type
REMARK                         _______ _______ _______ _____ _____    ______ ____
ROOT
ATOM      1  C   UNL     1       3.483  -2.292  -0.045  0.00  0.00    +0.111 C 
ENDROOT
BRANCH   1   8
ATOM      2  C   UNL     1      -0.017   1.388   0.010  0.00  0.00    +0.020 A 
ATOM      3  C   UNL     1       1.158   2.086   0.002  0.00  0.00    +0.014 A 
ATOM      4  C   UNL     1       2.362   1.359  -0.013  0.00  0.00    +0.036 A 
ATOM      5  C   UNL     1       3.610   2.008  -0.021  0.00  0.00    +0.133 A 
ATOM      6  C   UNL     1       4.754   1.266  -0.036  0.00  0.00    +0.039 A 
ATOM      7  C   UNL     1       4.702  -0.126  -0.043  0.00  0.00    +0.009 A 
ATOM      8  C   UNL     1       3.512  -0.785  -0.036  0.00  0.00    -0.011 A 
ATOM      9  C   UNL     1       2.310  -0.057  -0.020  0.00  0.00    +0.078 A 
ATOM     10  N   UNL     1       1.126  -0.679  -0.012  0.00  0.00    -0.255 NA
ATOM     11  C   UNL     1       0.002  -0.004   0.002  0.00  0.00    +0.111 A 
ATOM     12  F   UNL     1       3.674   3.358  -0.015  0.00  0.00    -0.205 F 
ENDBRANCH   1   8
BRANCH   1  13
ATOM     13  S   UNL     1       3.487  -2.907   1.662  0.00  0.00    -0.119 S 
BRANCH  13  14
ATOM     14  C   UNL     1       3.452  -4.660   1.483  0.00  0.00    +0.029 A 
ATOM     15  C   UNL     1       3.434  -5.230   0.219  0.00  0.00    +0.017 A 
ATOM     16  C   UNL     1       3.406  -6.605   0.081  0.00  0.00    +0.016 A 
ATOM     17  C   UNL     1       3.396  -7.416   1.201  0.00  0.00    +0.020 A 
ATOM     18  C   UNL     1       3.414  -6.856   2.466  0.00  0.00    +0.039 A 
ATOM     19  C   UNL     1       3.447  -5.478   2.613  0.00  0.00    +0.039 A 
ATOM     20 BR   UNL     1       3.357  -9.297   1.004  0.00  0.00    -0.050 Br
BRANCH  19  21
ATOM     21  N   UNL     1       3.470  -4.909   3.892  0.00  0.00    -0.357 N 
ATOM     22  H   UNL     1       3.489  -3.944   3.994  0.00  0.00    +0.142 HD
ATOM     23  H   UNL     1       3.466  -5.479   4.677  0.00  0.00    +0.142 HD
ENDBRANCH  19  21
ENDBRANCH  13  14
ENDBRANCH   1  13
TORSDOF 4
