REMARK  Name = ZINC40475767
REMARK  13 active torsions:
REMARK  status: ('A' for Active; 'I' for Inactive)
REMARK    1  A    between atoms: C_1  and  C_2
REMARK    2  A    between atoms: C_2  and  O_3
REMARK    3  A    between atoms: O_3  and  C_4
REMARK    4  A    between atoms: C_6  and  C_11
REMARK    5  A    between atoms: C_9  and  O_10
REMARK    6  A    between atoms: C_20  and  C_29
REMARK    7  A    between atoms: C_22  and  C_24
REMARK    8  A    between atoms: C_24  and  O_26
REMARK    9  A    between atoms: O_26  and  C_27
REMARK   10  A    between atoms: C_27  and  C_28
REMARK   11  A    between atoms: C_29  and  O_31
REMARK   12  A    between atoms: O_31  and  C_32
REMARK   13  A    between atoms: C_32  and  C_33
REMARK                            x       y       z     vdW  Elec       q    Type
REMARK                         _______ _______ _______ _____ _____    ______ ____
ROOT
ATOM      1  C   UNL     1       2.125  -5.891   0.748  0.00  0.00    +0.074 C 
ATOM      2  C   UNL     1       2.150  -6.790  -0.437  0.00  0.00    +0.032 A 
ATOM      3  C   UNL     1       1.131  -7.150  -1.269  0.00  0.00    +0.110 A 
ATOM      4  N   UNL     1       1.476  -7.974  -2.258  0.00  0.00    -0.225 NA
ATOM      5  C   UNL     1       2.710  -8.405  -2.404  0.00  0.00    +0.147 A 
ATOM      6  S   UNL     1       3.352  -9.489  -3.636  0.00  0.00    -0.023 SA
ATOM      7  S   UNL     1       3.528  -7.670  -1.128  0.00  0.00    -0.063 S 
ATOM      8  S   UNL     1      -0.516  -6.535  -0.998  0.00  0.00    -0.089 S 
ATOM      9  C   UNL     1      -0.224  -5.199   0.203  0.00  0.00    +0.176 C 
ATOM     10  C   UNL     1       0.709  -5.730   1.296  0.00  0.00    +0.134 C 
ENDROOT
BRANCH   1  13
ATOM     11  C   UNL     1       2.758  -2.727  -1.218  0.00  0.00    +0.162 A 
ATOM     12  C   UNL     1       2.271  -3.971  -0.851  0.00  0.00    +0.053 A 
ATOM     13  C   UNL     1       2.656  -4.538   0.350  0.00  0.00    -0.035 A 
ATOM     14  C   UNL     1       3.527  -3.865   1.187  0.00  0.00    +0.008 A 
ATOM     15  C   UNL     1       4.017  -2.624   0.827  0.00  0.00    +0.049 A 
ATOM     16  C   UNL     1       3.639  -2.053  -0.378  0.00  0.00    +0.158 A 
BRANCH  16  17
ATOM     17  O   UNL     1       4.125  -0.834  -0.736  0.00  0.00    -0.503 OA
ATOM     18  H   UNL     1       3.583  -0.091  -0.437  0.00  0.00    +0.292 HD
ENDBRANCH  16  17
BRANCH  11  19
ATOM     19  O   UNL     1       2.380  -2.168  -2.399  0.00  0.00    -0.489 OA
BRANCH  19  21
ATOM     20  C   UNL     1       1.166  -2.135  -4.488  0.00  0.00    +0.048 C 
ATOM     21  C   UNL     1       1.473  -2.917  -3.210  0.00  0.00    +0.226 C 
ENDBRANCH  19  21
ENDBRANCH  11  19
ENDBRANCH   1  13
BRANCH  10  22
ATOM     22  C   UNL     1       0.727  -4.759   2.449  0.00  0.00    +0.313 C 
ATOM     23  O   UNL     1       0.608  -3.574   2.243  0.00  0.00    -0.250 OA
BRANCH  22  24
ATOM     24  O   UNL     1       0.875  -5.210   3.704  0.00  0.00    -0.465 OA
BRANCH  24  25
ATOM     25  C   UNL     1       0.883  -4.234   4.748  0.00  0.00    +0.229 C 
ATOM     26  C   UNL     1       1.061  -4.933   6.098  0.00  0.00    +0.048 C 
ENDBRANCH  24  25
ENDBRANCH  22  24
ENDBRANCH  10  22
BRANCH   9  27
ATOM     27  C   UNL     1      -1.533  -4.772   0.815  0.00  0.00    +0.321 C 
ATOM     28  O   UNL     1      -1.935  -5.310   1.820  0.00  0.00    -0.250 OA
BRANCH  27  29
ATOM     29  O   UNL     1      -2.253  -3.793   0.244  0.00  0.00    -0.464 OA
BRANCH  29  30
ATOM     30  C   UNL     1      -3.483  -3.438   0.878  0.00  0.00    +0.229 C 
ATOM     31  C   UNL     1      -4.157  -2.313   0.090  0.00  0.00    +0.048 C 
ENDBRANCH  29  30
ENDBRANCH  27  29
ENDBRANCH   9  27
TORSDOF 10
