REMARK  Name = ZINC12298513
REMARK  7 active torsions:
REMARK  status: ('A' for Active; 'I' for Inactive)
REMARK    1  A    between atoms: C_1  and  O_2
REMARK    2  A    between atoms: O_2  and  C_3
REMARK    3  A    between atoms: C_6  and  C_10
REMARK    4  A    between atoms: C_11  and  C_16
REMARK    5  A    between atoms: C_16  and  N_53
REMARK    6  A    between atoms: C_17  and  C_18
REMARK    7  A    between atoms: C_17  and  N_53
REMARK                            x       y       z     vdW  Elec       q    Type
REMARK                         _______ _______ _______ _____ _____    ______ ____
ROOT
ATOM      1  C   UNL     1      -0.375   4.529   0.254  0.00  0.00    -0.043 C 
ENDROOT
BRANCH   1   3
ATOM      2  C   UNL     1      -1.314   2.142  -0.165  0.00  0.00    +0.097 A 
ATOM      3  C   UNL     1      -1.478   3.510   0.127  0.00  0.00    -0.019 A 
ATOM      4  C   UNL     1      -2.800   3.746   0.275  0.00  0.00    +0.107 A 
ATOM      5  N   UNL     1      -3.455   2.581   0.085  0.00  0.00    -0.284 N 
ATOM      6  H   UNL     1      -4.445   2.450   0.136  0.00  0.00    +0.188 HD
ATOM      7  N   UNL     1      -2.508   1.588  -0.194  0.00  0.00    -0.174 NA
BRANCH   2  11
ATOM      8  C   UNL     1       2.382   0.145  -0.845  0.00  0.00    +0.123 A 
ATOM      9  C   UNL     1       2.241   0.991   0.247  0.00  0.00    +0.046 A 
ATOM     10  C   UNL     1       1.045   1.641   0.468  0.00  0.00    +0.016 A 
ATOM     11  C   UNL     1      -0.024   1.449  -0.405  0.00  0.00    +0.038 A 
ATOM     12  C   UNL     1       0.120   0.598  -1.502  0.00  0.00    +0.136 A 
ATOM     13  C   UNL     1       1.321  -0.050  -1.718  0.00  0.00    +0.084 A 
ATOM     14  F   UNL     1      -0.914   0.408  -2.351  0.00  0.00    -0.205 F 
BRANCH   8  16
ATOM     15  C   UNL     1       3.639  -1.349  -2.202  0.00  0.00    +0.277 C 
ATOM     16  O   UNL     1       3.562  -0.493  -1.060  0.00  0.00    -0.495 OA
ENDBRANCH   8  16
ENDBRANCH   2  11
ENDBRANCH   1   3
BRANCH   1  17
ATOM     17  N   UNL     1       0.116   4.880  -1.092  0.00  0.00    +0.382 N 
ATOM     18  H   UNL     1      -0.657   5.270  -1.643  0.00  0.00    -0.085 HD
ATOM     19  H   UNL     1       0.473   4.035  -1.553  0.00  0.00    -0.085 HD
BRANCH  17  20
ATOM     20  C   UNL     1       1.199   5.877  -0.998  0.00  0.00    -0.077 C 
BRANCH  20  21
ATOM     21  C   UNL     1       1.687   6.221  -2.407  0.00  0.00    -0.011 C 
ATOM     22  C   UNL     1       2.893   7.160  -2.315  0.00  0.00    +0.005 C 
ATOM     23  C   UNL     1       3.337   7.547  -3.728  0.00  0.00    +0.019 C 
ATOM     24  C   UNL     1       2.167   8.202  -4.464  0.00  0.00    +0.108 C 
ATOM     25  N   UNL     1       1.039   7.264  -4.526  0.00  0.00    -0.299 N 
ATOM     26  C   UNL     1       0.564   6.915  -3.181  0.00  0.00    +0.109 C 
ATOM     27  C   UNL     1       0.010   7.775  -5.298  0.00  0.00    +0.218 A 
ATOM     28  N   UNL     1      -0.432   7.075  -6.333  0.00  0.00    -0.223 NA
ATOM     29  C   UNL     1      -1.417   7.532  -7.087  0.00  0.00    +0.116 A 
ATOM     30  C   UNL     1      -1.980   8.764  -6.792  0.00  0.00    +0.039 A 
ATOM     31  C   UNL     1      -1.490   9.472  -5.706  0.00  0.00    +0.116 A 
ATOM     32  N   UNL     1      -0.506   8.955  -4.989  0.00  0.00    -0.223 NA
ENDBRANCH  20  21
ENDBRANCH  17  20
ENDBRANCH   1  17
TORSDOF 6
