REMARK  Name = ZINC10050331
REMARK  10 active torsions:
REMARK  status: ('A' for Active; 'I' for Inactive)
REMARK    1  A    between atoms: C_1  and  C_2
REMARK    2  A    between atoms: C_2  and  O_3
REMARK    3  A    between atoms: O_3  and  C_4
REMARK    4  A    between atoms: C_4  and  C_6
REMARK    5  A    between atoms: C_7  and  C_20
REMARK    6  A    between atoms: C_12  and  C_14
REMARK    7  A    between atoms: C_20  and  N_53
REMARK    8  A    between atoms: C_21  and  N_53
REMARK    9  A    between atoms: C_22  and  C_23
REMARK   10  A    between atoms: C_22  and  N_53
REMARK                            x       y       z     vdW  Elec       q    Type
REMARK                         _______ _______ _______ _____ _____    ______ ____
ROOT
ATOM      1  C   UNL     1       2.768  -5.041  -3.349  0.00  0.00    +0.076 C 
ATOM      2  C   UNL     1       1.599  -4.533  -2.901  0.00  0.00    +0.008 C 
ATOM      3  N   UNL     1       0.548  -4.329  -3.748  0.00  0.00    -0.274 N 
ATOM      4  C   UNL     1       0.583  -4.611  -5.056  0.00  0.00    +0.304 C 
ATOM      5  O   UNL     1      -0.404  -4.393  -5.732  0.00  0.00    -0.252 OA
ATOM      6  N   UNL     1       1.678  -5.127  -5.649  0.00  0.00    -0.288 N 
ATOM      7  C   UNL     1       2.868  -5.386  -4.821  0.00  0.00    +0.143 C 
ATOM      8  H   UNL     1      -0.270  -3.958  -3.381  0.00  0.00    +0.156 HD
ATOM      9  H   UNL     1       1.681  -5.325  -6.599  0.00  0.00    +0.151 HD
ENDROOT
BRANCH   7  10
ATOM     10  C   UNL     1       4.016  -4.601  -5.400  0.00  0.00    -0.023 A 
ATOM     11  C   UNL     1       3.807  -3.321  -5.878  0.00  0.00    +0.006 A 
ATOM     12  C   UNL     1       4.862  -2.599  -6.405  0.00  0.00    +0.000 A 
ATOM     13  C   UNL     1       6.123  -3.161  -6.462  0.00  0.00    +0.000 A 
ATOM     14  C   UNL     1       6.332  -4.443  -5.989  0.00  0.00    +0.000 A 
ATOM     15  C   UNL     1       5.278  -5.163  -5.458  0.00  0.00    +0.006 A 
ENDBRANCH   7  10
BRANCH   1  16
ATOM     16  C   UNL     1       3.859  -5.248  -2.474  0.00  0.00    +0.339 C 
ATOM     17  O   UNL     1       3.799  -4.856  -1.323  0.00  0.00    -0.245 OA
BRANCH  16  18
ATOM     18  O   UNL     1       4.966  -5.881  -2.914  0.00  0.00    -0.462 OA
BRANCH  18  20
ATOM     19  C   UNL     1       7.191  -6.788  -2.652  0.00  0.00    +0.048 C 
ATOM     20  C   UNL     1       6.030  -6.056  -1.976  0.00  0.00    +0.229 C 
ENDBRANCH  18  20
ENDBRANCH  16  18
ENDBRANCH   1  16
BRANCH   2  21
ATOM     21  C   UNL     1       1.455  -4.181  -1.442  0.00  0.00    -0.026 C 
BRANCH  21  23
ATOM     22  C   UNL     1       1.067  -1.815  -1.781  0.00  0.00    -0.095 C 
ATOM     23  N   UNL     1       1.996  -2.822  -1.226  0.00  0.00    +0.384 N 
ATOM     24  H   UNL     1       2.900  -2.743  -1.707  0.00  0.00    -0.081 HD
BRANCH  23  25
ATOM     25  C   UNL     1       2.197  -2.583   0.218  0.00  0.00    -0.043 C 
BRANCH  25  26
ATOM     26  C   UNL     1       2.948  -1.288   0.396  0.00  0.00    -0.064 A 
ATOM     27  C   UNL     1       2.254  -0.101   0.541  0.00  0.00    +0.004 A 
ATOM     28  C   UNL     1       2.942   1.086   0.705  0.00  0.00    +0.038 A 
ATOM     29  C   UNL     1       4.327   1.087   0.723  0.00  0.00    +0.123 A 
ATOM     30  C   UNL     1       5.020  -0.103   0.577  0.00  0.00    +0.038 A 
ATOM     31  C   UNL     1       4.330  -1.289   0.414  0.00  0.00    +0.004 A 
ATOM     32  F   UNL     1       5.000   2.247   0.883  0.00  0.00    -0.205 F 
ENDBRANCH  25  26
ENDBRANCH  23  25
ENDBRANCH  21  23
ENDBRANCH   2  21
TORSDOF 8
