REMARK  Name = ZINC39674537
REMARK  9 active torsions:
REMARK  status: ('A' for Active; 'I' for Inactive)
REMARK    1  A    between atoms: C_1  and  C_2
REMARK    2  A    between atoms: C_4  and  C_9
REMARK    3  A    between atoms: C_5  and  C_8
REMARK    4  A    between atoms: C_9  and  C_11
REMARK    5  A    between atoms: C_9  and  N_12
REMARK    6  A    between atoms: C_13  and  C_15
REMARK    7  A    between atoms: C_26  and  C_28
REMARK    8  A    between atoms: C_29  and  C_40
REMARK    9  A    between atoms: C_32  and  C_34
REMARK                            x       y       z     vdW  Elec       q    Type
REMARK                         _______ _______ _______ _____ _____    ______ ____
ROOT
ATOM      1  C   UNL     1       0.429   3.341  -4.356  0.00  0.00    +0.100 C 
ATOM      2  C   UNL     1      -0.959   3.735  -3.803  0.00  0.00    +0.121 C 
ATOM      3  N   UNL     1      -1.583   4.529  -4.888  0.00  0.00    -0.296 N 
ATOM      4  C   UNL     1      -1.183   3.831  -6.133  0.00  0.00    +0.115 C 
ATOM      5  C   UNL     1       0.278   3.405  -5.885  0.00  0.00    -0.004 C 
ATOM      6  C   UNL     1       1.235   4.440  -6.468  0.00  0.00    -0.010 C 
ATOM      7  C   UNL     1       1.107   4.445  -7.994  0.00  0.00    -0.082 C 
ATOM      8  N   UNL     1       1.420   3.109  -8.517  0.00  0.00    +0.379 N 
ATOM      9  C   UNL     1       0.438   2.135  -8.025  0.00  0.00    -0.082 C 
ATOM     10  C   UNL     1       0.538   2.033  -6.500  0.00  0.00    -0.010 C 
ATOM     11  C   UNL     1      -2.342   5.637  -4.769  0.00  0.00    +0.248 C 
ATOM     12  O   UNL     1      -2.863   6.126  -5.754  0.00  0.00    -0.270 OA
ATOM     13  H   UNL     1       1.394   3.130  -9.526  0.00  0.00    -0.086 HD
ATOM     14  H   UNL     1       2.343   2.838  -8.213  0.00  0.00    -0.086 HD
ENDROOT
BRANCH  11  15
ATOM     15  C   UNL     1      -2.533   6.232  -3.496  0.00  0.00    +0.078 C 
ATOM     16  C   UNL     1      -3.388   5.818  -2.546  0.00  0.00    +0.132 C 
ATOM     17  O   UNL     1      -3.340   6.601  -1.452  0.00  0.00    -0.410 OA
ATOM     18  N   UNL     1      -2.088   7.377  -1.500  0.00  0.00    -0.144 NA
ATOM     19  C   UNL     1      -1.805   7.449  -2.955  0.00  0.00    +0.161 C 
ATOM     20  C   UNL     1      -4.292   4.621  -2.687  0.00  0.00    +0.089 C 
ATOM     21  H   UNL     1      -1.346   6.896  -1.014  0.00  0.00    +0.168 HD
BRANCH  19  22
ATOM     22  C   UNL     1      -2.370   8.715  -3.545  0.00  0.00    -0.023 A 
ATOM     23  C   UNL     1      -3.543   9.248  -3.043  0.00  0.00    +0.005 A 
ATOM     24  C   UNL     1      -4.061  10.410  -3.584  0.00  0.00    +0.000 A 
ATOM     25  C   UNL     1      -3.406  11.039  -4.627  0.00  0.00    +0.000 A 
ATOM     26  C   UNL     1      -2.233  10.507  -5.128  0.00  0.00    +0.000 A 
ATOM     27  C   UNL     1      -1.713   9.347  -4.584  0.00  0.00    +0.005 A 
ENDBRANCH  19  22
ENDBRANCH  11  15
BRANCH   1  29
ATOM     28  N   UNL     1       2.083   1.597  -3.775  0.00  0.00    -0.309 N 
ATOM     29  C   UNL     1       0.789   1.944  -3.922  0.00  0.00    +0.219 C 
ATOM     30  O   UNL     1      -0.085   1.131  -3.706  0.00  0.00    -0.275 OA
ATOM     31  H   UNL     1       2.783   2.247  -3.948  0.00  0.00    +0.149 HD
BRANCH  28  32
ATOM     32  C   UNL     1       2.434   0.238  -3.353  0.00  0.00    +0.100 C 
ATOM     33  C   UNL     1       2.435   0.163  -1.825  0.00  0.00    +0.033 C 
BRANCH  32  36
ATOM     34  C   UNL     1       5.040   2.047  -4.196  0.00  0.00    +0.039 C 
ATOM     35  C   UNL     1       5.111   0.624  -3.637  0.00  0.00    +0.154 C 
ATOM     36  C   UNL     1       3.804  -0.111  -3.874  0.00  0.00    -0.001 C 
ATOM     37  C   UNL     1       4.151  -1.140  -4.651  0.00  0.00    +0.063 C 
ATOM     38  N   UNL     1       5.477  -1.121  -4.909  0.00  0.00    -0.159 NA
ATOM     39  N   UNL     1       6.090  -0.181  -4.388  0.00  0.00    -0.180 NA
ATOM     40  C   UNL     1       3.193  -2.182  -5.168  0.00  0.00    +0.067 C 
ENDBRANCH  32  36
ENDBRANCH  28  32
ENDBRANCH   1  29
TORSDOF 5
