REMARK  Name = ZINC34723512
REMARK  2 active torsions:
REMARK  status: ('A' for Active; 'I' for Inactive)
REMARK    1  A    between atoms: N_9  and  C_10
REMARK    2  A    between atoms: C_10  and  N_11
REMARK                            x       y       z     vdW  Elec       q    Type
REMARK                         _______ _______ _______ _____ _____    ______ ____
ROOT
ATOM      1  C   UNL     1      -0.017   1.374   0.010  0.00  0.00    +0.001 A 
ATOM      2  C   UNL     1       1.171   2.088   0.002  0.00  0.00    +0.002 A 
ATOM      3  C   UNL     1       2.384   1.432  -0.013  0.00  0.00    +0.026 A 
ATOM      4  C   UNL     1       2.423   0.042  -0.021  0.00  0.00    +0.051 A 
ATOM      5  C   UNL     1       1.220  -0.680  -0.014  0.00  0.00    +0.029 A 
ATOM      6  C   UNL     1       0.002  -0.004   0.002  0.00  0.00    +0.012 A 
ATOM      7  C   UNL     1       1.591  -2.106  -0.026  0.00  0.00    +0.138 A 
ATOM      8  C   UNL     1       3.000  -2.148  -0.041  0.00  0.00    +0.163 A 
ATOM      9  N   UNL     1       3.475  -0.860  -0.037  0.00  0.00    -0.340 N 
ATOM     10  N   UNL     1       3.595  -3.337  -0.054  0.00  0.00    -0.200 NA
ATOM     11  C   UNL     1       2.851  -4.435  -0.053  0.00  0.00    +0.222 A 
ATOM     12  S   UNL     1       3.638  -6.012  -0.071  0.00  0.00    -0.008 SA
ATOM     13  N   UNL     1       1.524  -4.369  -0.039  0.00  0.00    -0.121 NA
ATOM     14  N   UNL     1       0.905  -3.239  -0.027  0.00  0.00    -0.143 NA
ENDROOT
BRANCH   9  15
ATOM     15  C   UNL     1       4.893  -0.492  -0.049  0.00  0.00    +0.049 C 
BRANCH  15  16
ATOM     16  N   UNL     1       5.380  -0.377   1.332  0.00  0.00    +0.392 N 
ATOM     17  C   UNL     1       4.689   0.730   2.003  0.00  0.00    -0.076 C 
ATOM     18  C   UNL     1       5.133   0.802   3.465  0.00  0.00    -0.019 C 
ATOM     19  C   UNL     1       6.646   1.035   3.522  0.00  0.00    -0.004 C 
ATOM     20  C   UNL     1       7.354  -0.086   2.755  0.00  0.00    -0.019 C 
ATOM     21  C   UNL     1       6.827  -0.126   1.319  0.00  0.00    -0.076 C 
ATOM     22  H   UNL     1       5.194  -1.237   1.826  0.00  0.00    -0.079 HD
ENDBRANCH  15  16
ENDBRANCH   9  15
TORSDOF 2
