REMARK  Name = ZINC03336065
REMARK  7 active torsions:
REMARK  status: ('A' for Active; 'I' for Inactive)
REMARK    1  A    between atoms: C_1  and  O_2
REMARK    2  A    between atoms: O_2  and  C_3
REMARK    3  A    between atoms: C_6  and  N_9
REMARK    4  A    between atoms: C_10  and  C_27
REMARK    5  A    between atoms: C_13  and  S_14
REMARK    6  A    between atoms: S_14  and  C_15
REMARK    7  A    between atoms: C_15  and  C_16
REMARK                            x       y       z     vdW  Elec       q    Type
REMARK                         _______ _______ _______ _____ _____    ______ ____
ROOT
ATOM      1  N   UNL     1      -4.910  -2.549   0.056  0.00  0.00    -0.270 N 
ATOM      2  C   UNL     1      -5.368  -3.453   0.989  0.00  0.00    +0.169 A 
ATOM      3  N   UNL     1      -6.548  -3.860   0.584  0.00  0.00    -0.128 NA
ATOM      4  N   UNL     1      -6.857  -3.282  -0.522  0.00  0.00    -0.122 NA
ATOM      5  C   UNL     1      -5.895  -2.465  -0.889  0.00  0.00    +0.197 A 
ENDROOT
BRANCH   2   6
ATOM      6  C   UNL     1      -4.663  -3.883   2.215  0.00  0.00    +0.020 A 
ATOM      7  C   UNL     1      -3.611  -3.120   2.723  0.00  0.00    +0.013 A 
ATOM      8  C   UNL     1      -2.958  -3.526   3.868  0.00  0.00    +0.021 A 
ATOM      9  C   UNL     1      -3.344  -4.689   4.513  0.00  0.00    +0.041 A 
ATOM     10  C   UNL     1      -4.387  -5.451   4.014  0.00  0.00    +0.021 A 
ATOM     11  C   UNL     1      -5.051  -5.052   2.873  0.00  0.00    +0.013 A 
ATOM     12 CL   UNL     1      -2.516  -5.195   5.953  0.00  0.00    -0.084 Cl
ENDBRANCH   2   6
BRANCH   1  16
ATOM     13  C   UNL     1      -1.285  -0.485   0.112  0.00  0.00    +0.120 A 
ATOM     14  C   UNL     1      -2.477   0.202   0.289  0.00  0.00    +0.047 A 
ATOM     15  C   UNL     1      -3.677  -0.480   0.270  0.00  0.00    +0.030 A 
ATOM     16  C   UNL     1      -3.691  -1.855   0.075  0.00  0.00    +0.051 A 
ATOM     17  C   UNL     1      -2.498  -2.542  -0.102  0.00  0.00    +0.030 A 
ATOM     18  C   UNL     1      -1.298  -1.858  -0.089  0.00  0.00    +0.047 A 
BRANCH  13  20
ATOM     19  C   UNL     1      -0.164   1.599   0.342  0.00  0.00    +0.277 C 
ATOM     20  O   UNL     1      -0.103   0.188   0.130  0.00  0.00    -0.495 OA
ENDBRANCH  13  20
ENDBRANCH   1  16
BRANCH   5  21
ATOM     21  S   UNL     1      -5.876  -1.454  -2.332  0.00  0.00    -0.078 S 
BRANCH  21  22
ATOM     22  C   UNL     1      -7.460  -1.813  -3.141  0.00  0.00    +0.151 C 
BRANCH  22  23
ATOM     23  C   UNL     1      -7.573  -1.002  -4.406  0.00  0.00    +0.121 A 
ATOM     24  N   UNL     1      -8.699  -1.129  -5.156  0.00  0.00    -0.309 N 
ATOM     25  H   UNL     1      -9.409  -1.729  -4.876  0.00  0.00    +0.170 HD
ATOM     26  C   UNL     1      -8.822  -0.409  -6.297  0.00  0.00    +0.266 A 
ATOM     27  O   UNL     1      -9.820  -0.500  -6.991  0.00  0.00    -0.267 OA
ATOM     28  C   UNL     1      -7.774   0.439  -6.655  0.00  0.00    +0.102 A 
ATOM     29  C   UNL     1      -6.619   0.552  -5.861  0.00  0.00    +0.085 A 
ATOM     30  N   UNL     1      -6.595  -0.216  -4.722  0.00  0.00    -0.232 NA
ATOM     31  C   UNL     1      -5.645   1.440  -6.336  0.00  0.00    +0.036 A 
ATOM     32  C   UNL     1      -5.847   2.120  -7.485  0.00  0.00    +0.048 A 
ATOM     33  S   UNL     1      -7.460   1.551  -8.000  0.00  0.00    -0.090 S 
ENDBRANCH  22  23
ENDBRANCH  21  22
ENDBRANCH   5  21
TORSDOF 6
