REMARK  Name = ZINC04670211
REMARK  3 active torsions:
REMARK  status: ('A' for Active; 'I' for Inactive)
REMARK    1  A    between atoms: C_6  and  S_7
REMARK    2  A    between atoms: S_7  and  N_10
REMARK    3  A    between atoms: C_16  and  O_19
REMARK                            x       y       z     vdW  Elec       q    Type
REMARK                         _______ _______ _______ _____ _____    ______ ____
ROOT
ATOM      1  C   UNL     1      -0.017   1.379   0.010  0.00  0.00    +0.030 A 
ATOM      2  C   UNL     1       1.172   2.089   0.002  0.00  0.00    +0.019 A 
ATOM      3  C   UNL     1       2.376   1.411  -0.014  0.00  0.00    +0.034 A 
ATOM      4  C   UNL     1       2.408   0.008  -0.025  0.00  0.00    +0.083 A 
ATOM      5  C   UNL     1       1.199  -0.691  -0.015  0.00  0.00    +0.057 A 
ATOM      6  C   UNL     1       0.002  -0.004   0.002  0.00  0.00    +0.108 A 
ATOM      7  N   UNL     1       3.584  -0.677  -0.052  0.00  0.00    -0.216 NA
ATOM      8  C   UNL     1       4.742  -0.259   0.294  0.00  0.00    +0.198 C 
ATOM      9  C   UNL     1       5.023   1.124   0.816  0.00  0.00    +0.169 C 
ATOM     10  S   UNL     1       3.906   2.294  -0.019  0.00  0.00    -0.114 S 
ENDROOT
BRANCH   6  11
ATOM     11  S   UNL     1      -1.517  -0.897   0.015  0.00  0.00    +0.061 S 
ATOM     12  O   UNL     1      -1.229  -2.180   0.555  0.00  0.00    -0.153 OA
ATOM     13  O   UNL     1      -2.492  -0.033   0.582  0.00  0.00    -0.153 OA
BRANCH  11  14
ATOM     14  N   UNL     1      -1.957  -1.137  -1.563  0.00  0.00    -0.177 NA
ATOM     15  C   UNL     1      -2.785  -0.229  -2.370  0.00  0.00    +0.109 C 
ATOM     16  C   UNL     1      -2.952  -0.874  -3.761  0.00  0.00    +0.018 C 
ATOM     17  C   UNL     1      -2.681  -2.376  -3.483  0.00  0.00    +0.018 C 
ATOM     18  C   UNL     1      -1.578  -2.294  -2.395  0.00  0.00    +0.109 C 
ENDBRANCH  11  14
ENDBRANCH   6  11
BRANCH   8  19
ATOM     19  O   UNL     1       5.779  -1.115   0.186  0.00  0.00    -0.495 OA
ATOM     20  H   UNL     1       5.536  -1.987  -0.153  0.00  0.00    +0.293 HD
ENDBRANCH   8  19
TORSDOF 3
