REMARK  Name = ZINC38086432
REMARK  3 active torsions:
REMARK  status: ('A' for Active; 'I' for Inactive)
REMARK    1  A    between atoms: C_2  and  C_11
REMARK    2  A    between atoms: C_11  and  C_13
REMARK    3  A    between atoms: C_11  and  N_16
REMARK                            x       y       z     vdW  Elec       q    Type
REMARK                         _______ _______ _______ _____ _____    ______ ____
ROOT
ATOM      1  C   UNL     1       1.147   3.596   0.010  0.00  0.00    +0.078 C 
ENDROOT
BRANCH   1   3
ATOM      2  C   UNL     1      -0.017   1.381   0.010  0.00  0.00    +0.052 A 
ATOM      3  C   UNL     1       1.171   2.090   0.002  0.00  0.00    -0.046 A 
ATOM      4  C   UNL     1       2.379   1.419  -0.013  0.00  0.00    +0.021 A 
ATOM      5  C   UNL     1       2.406   0.036  -0.021  0.00  0.00    +0.063 A 
ATOM      6  C   UNL     1       1.220  -0.680  -0.014  0.00  0.00    +0.180 A 
ATOM      7  C   UNL     1       0.002  -0.004   0.002  0.00  0.00    +0.168 A 
ATOM      8  O   UNL     1      -1.007  -0.923   0.006  0.00  0.00    -0.453 OA
ATOM      9  C   UNL     1      -0.404  -2.159  -0.419  0.00  0.00    +0.466 C 
ATOM     10  O   UNL     1       0.973  -2.023  -0.020  0.00  0.00    -0.451 OA
ATOM     11 BR   UNL     1       4.061  -0.877  -0.043  0.00  0.00    -0.046 Br
ENDBRANCH   1   3
BRANCH   1  12
ATOM     12  N   UNL     1       2.209   4.098   0.893  0.00  0.00    +0.391 N 
ATOM     13  C   UNL     1       2.025   3.512   2.235  0.00  0.00    -0.077 C 
ATOM     14  C   UNL     1       3.359   3.510   2.938  0.00  0.00    -0.019 C 
ATOM     15  C   UNL     1       3.519   4.742   3.848  0.00  0.00    -0.002 C 
ATOM     16  C   UNL     1       2.966   6.019   3.183  0.00  0.00    -0.002 C 
ATOM     17  C   UNL     1       3.320   6.104   1.721  0.00  0.00    -0.019 C 
ATOM     18  C   UNL     1       2.172   5.494   0.889  0.00  0.00    -0.077 C 
ATOM     19  H   UNL     1       3.100   3.796   0.530  0.00  0.00    -0.080 HD
ENDBRANCH   1  12
BRANCH   1  20
ATOM     20  C   UNL     1       1.372   4.110  -1.388  0.00  0.00    +0.347 C 
ATOM     21  O   UNL     1       0.422   4.302  -2.128  0.00  0.00    -0.248 OA
ATOM     22  O   UNL     1       2.505   4.333  -1.781  0.00  0.00    -0.248 OA
ENDBRANCH   1  20
TORSDOF 3
