REMARK  Name = ZINC39352307
REMARK  6 active torsions:
REMARK  status: ('A' for Active; 'I' for Inactive)
REMARK    1  A    between atoms: C_1  and  C_2
REMARK    2  A    between atoms: C_2  and  C_3
REMARK    3  A    between atoms: C_3  and  C_4
REMARK    4  A    between atoms: C_6  and  C_18
REMARK    5  A    between atoms: C_8  and  C_16
REMARK    6  A    between atoms: C_9  and  N_15
REMARK                            x       y       z     vdW  Elec       q    Type
REMARK                         _______ _______ _______ _____ _____    ______ ____
ROOT
ATOM      1  C   UNL     1       0.724  -1.907  -1.279  0.00  0.00    +0.069 C 
ATOM      2  C   UNL     1      -0.133  -2.704  -1.870  0.00  0.00    +0.030 C 
ATOM      3  C   UNL     1      -1.270  -2.477  -2.828  0.00  0.00    +0.102 C 
ATOM      4  C   UNL     1      -1.155  -3.578  -3.865  0.00  0.00    +0.098 C 
ATOM      5  C   UNL     1      -0.291  -4.604  -3.717  0.00  0.00    +0.195 C 
ATOM      6  O   UNL     1       0.571  -4.789  -2.702  0.00  0.00    -0.448 OA
ATOM      7  C   UNL     1       0.296  -4.116  -1.470  0.00  0.00    +0.343 C 
ATOM      8  N   UNL     1       1.514  -3.857  -0.695  0.00  0.00    -0.138 NA
ATOM      9  N   UNL     1       1.667  -2.631  -0.623  0.00  0.00    -0.155 NA
ENDROOT
BRANCH   3  10
ATOM     10  C   UNL     1      -2.588  -2.575  -2.104  0.00  0.00    +0.019 A 
ATOM     11  C   UNL     1      -3.005  -3.790  -1.586  0.00  0.00    +0.129 A 
ATOM     12  C   UNL     1      -4.217  -3.879  -0.921  0.00  0.00    +0.039 A 
ATOM     13  C   UNL     1      -5.009  -2.756  -0.774  0.00  0.00    +0.004 A 
ATOM     14  C   UNL     1      -4.593  -1.543  -1.291  0.00  0.00    +0.020 A 
ATOM     15  C   UNL     1      -3.380  -1.451  -1.951  0.00  0.00    +0.048 A 
ATOM     16 CL   UNL     1      -2.854   0.074  -2.593  0.00  0.00    -0.083 Cl
ATOM     17  F   UNL     1      -2.231  -4.888  -1.730  0.00  0.00    -0.205 F 
ENDBRANCH   3  10
BRANCH   5  18
ATOM     18  N   UNL     1      -0.294  -5.559  -4.703  0.00  0.00    -0.329 N 
ATOM     19  H   UNL     1      -0.897  -5.474  -5.458  0.00  0.00    +0.145 HD
ATOM     20  H   UNL     1       0.307  -6.317  -4.646  0.00  0.00    +0.145 HD
ENDBRANCH   5  18
BRANCH   4  21
ATOM     21  C   UNL     1      -1.984  -3.527  -5.032  0.00  0.00    +0.101 C 
ATOM     22  N   UNL     1      -2.642  -3.487  -5.957  0.00  0.00    -0.191 NA
ENDBRANCH   4  21
BRANCH   1  23
ATOM     23  C   UNL     1       0.673  -0.401  -1.326  0.00  0.00    +0.057 C 
BRANCH  23  25
ATOM     24  C   UNL     1      -0.108   1.652  -0.136  0.00  0.00    +0.004 C 
ATOM     25  C   UNL     1      -0.057   0.123  -0.088  0.00  0.00    +0.003 C 
ENDBRANCH  23  25
ENDBRANCH   1  23
TORSDOF 5
