REMARK  Name = ZINC39966975
REMARK  8 active torsions:
REMARK  status: ('A' for Active; 'I' for Inactive)
REMARK    1  A    between atoms: C_6  and  C_7
REMARK    2  A    between atoms: C_7  and  N_8
REMARK    3  A    between atoms: C_9  and  C_11
REMARK    4  A    between atoms: C_11  and  S_12
REMARK    5  A    between atoms: S_12  and  C_13
REMARK    6  A    between atoms: C_16  and  C_25
REMARK    7  A    between atoms: N_17  and  C_18
REMARK    8  A    between atoms: C_18  and  C_19
REMARK                            x       y       z     vdW  Elec       q    Type
REMARK                         _______ _______ _______ _____ _____    ______ ____
ROOT
ATOM      1  C   UNL     1      -5.465  -2.977  -4.712  0.00  0.00    +0.192 A 
ATOM      2  N   UNL     1      -4.633  -2.539  -5.628  0.00  0.00    -0.122 NA
ATOM      3  N   UNL     1      -4.967  -2.994  -6.783  0.00  0.00    -0.128 NA
ATOM      4  C   UNL     1      -6.033  -3.753  -6.675  0.00  0.00    +0.166 A 
ATOM      5  N   UNL     1      -6.382  -3.770  -5.345  0.00  0.00    -0.300 N 
ENDROOT
BRANCH   4   6
ATOM      6  C   UNL     1      -6.724  -4.459  -7.774  0.00  0.00    +0.030 A 
ATOM      7  C   UNL     1      -7.053  -5.777  -7.643  0.00  0.00    +0.057 A 
ATOM      8  S   UNL     1      -7.842  -6.115  -9.208  0.00  0.00    -0.101 S 
ATOM      9  C   UNL     1      -7.687  -4.496  -9.917  0.00  0.00    -0.006 A 
ATOM     10  C   UNL     1      -7.051  -3.774  -8.962  0.00  0.00    -0.026 A 
ATOM     11  C   UNL     1      -6.690  -2.304  -9.163  0.00  0.00    +0.036 C 
ATOM     12  C   UNL     1      -7.654  -1.664 -10.155  0.00  0.00    +0.005 C 
ATOM     13  C   UNL     1      -7.133  -1.806 -11.584  0.00  0.00    +0.001 C 
ATOM     14  C   UNL     1      -7.044  -3.281 -11.964  0.00  0.00    +0.005 C 
ATOM     15  C   UNL     1      -8.166  -4.036 -11.256  0.00  0.00    +0.043 C 
ENDBRANCH   4   6
BRANCH   1  16
ATOM     16  S   UNL     1      -5.406  -2.617  -2.989  0.00  0.00    -0.077 S 
BRANCH  16  17
ATOM     17  C   UNL     1      -3.969  -1.524  -2.817  0.00  0.00    +0.173 C 
BRANCH  17  19
ATOM     18  N   UNL     1      -2.792  -0.322  -1.003  0.00  0.00    -0.311 N 
ATOM     19  C   UNL     1      -3.802  -1.135  -1.371  0.00  0.00    +0.224 C 
ATOM     20  O   UNL     1      -4.577  -1.554  -0.537  0.00  0.00    -0.275 OA
ATOM     21  H   UNL     1      -2.172   0.013  -1.670  0.00  0.00    +0.149 HD
BRANCH  18  22
ATOM     22  C   UNL     1      -2.631   0.056   0.403  0.00  0.00    +0.139 C 
BRANCH  22  28
ATOM     23  C   UNL     1      -1.593   2.332   0.435  0.00  0.00    +0.009 A 
ATOM     24  C   UNL     1      -0.500   3.169   0.565  0.00  0.00    +0.050 A 
ATOM     25  C   UNL     1       0.756   2.637   0.805  0.00  0.00    +0.166 A 
ATOM     26  C   UNL     1       0.914   1.257   0.916  0.00  0.00    +0.167 A 
ATOM     27  C   UNL     1      -0.185   0.425   0.785  0.00  0.00    +0.054 A 
ATOM     28  C   UNL     1      -1.436   0.963   0.545  0.00  0.00    -0.027 A 
ATOM     29  O   UNL     1       2.231   0.987   1.151  0.00  0.00    -0.453 OA
ATOM     30  C   UNL     1       2.942   2.182   0.776  0.00  0.00    +0.466 C 
ATOM     31  O   UNL     1       1.974   3.230   0.970  0.00  0.00    -0.453 OA
ENDBRANCH  22  28
ENDBRANCH  18  22
ENDBRANCH  17  19
ENDBRANCH  16  17
ENDBRANCH   1  16
BRANCH   5  32
ATOM     32  C   UNL     1      -7.505  -4.486  -4.733  0.00  0.00    +0.157 C 
BRANCH  32  33
ATOM     33  C   UNL     1      -8.705  -3.545  -4.612  0.00  0.00    +0.138 C 
ATOM     34  C   UNL     1      -9.852  -4.253  -3.861  0.00  0.00    +0.035 C 
ATOM     35  C   UNL     1     -11.105  -3.769  -4.640  0.00  0.00    +0.031 C 
ATOM     36  C   UNL     1     -10.537  -3.670  -6.078  0.00  0.00    +0.160 C 
ATOM     37  O   UNL     1      -9.187  -3.202  -5.917  0.00  0.00    -0.375 OA
ENDBRANCH  32  33
ENDBRANCH   5  32
TORSDOF 8
