REMARK  Name = ZINC36064270
REMARK  11 active torsions:
REMARK  status: ('A' for Active; 'I' for Inactive)
REMARK    1  A    between atoms: C_1  and  C_2
REMARK    2  A    between atoms: C_2  and  O_3
REMARK    3  A    between atoms: O_3  and  C_4
REMARK    4  A    between atoms: C_4  and  C_6
REMARK    5  A    between atoms: C_13  and  C_15
REMARK    6  A    between atoms: C_18  and  C_20
REMARK    7  A    between atoms: C_20  and  N_21
REMARK    8  A    between atoms: N_21  and  C_22
REMARK    9  A    between atoms: N_21  and  C_30
REMARK   10  A    between atoms: C_22  and  C_23
REMARK   11  A    between atoms: C_30  and  C_31
REMARK                            x       y       z     vdW  Elec       q    Type
REMARK                         _______ _______ _______ _____ _____    ______ ____
ROOT
ATOM      1  C   UNL     1      -9.115  -5.451  -0.614  0.00  0.00    +0.020 C 
ENDROOT
BRANCH   1   5
ATOM      2  C   UNL     1      -8.095  -2.018  -0.072  0.00  0.00    +0.164 A 
ATOM      3  C   UNL     1      -9.242  -1.824  -0.779  0.00  0.00    +0.230 A 
ATOM      4  O   UNL     1      -9.741  -3.039  -1.056  0.00  0.00    -0.449 OA
ATOM      5  C   UNL     1      -8.920  -3.959  -0.531  0.00  0.00    +0.179 A 
ATOM      6  N   UNL     1      -7.927  -3.362   0.057  0.00  0.00    -0.210 NA
BRANCH   2  13
ATOM      7  C   UNL     1      -5.074  -0.304   3.189  0.00  0.00    +0.115 C 
ATOM      8  C   UNL     1      -4.750  -1.724   3.659  0.00  0.00    +0.018 C 
ATOM      9  C   UNL     1      -5.880  -2.671   3.247  0.00  0.00    +0.020 C 
ATOM     10  C   UNL     1      -5.999  -2.683   1.720  0.00  0.00    +0.108 C 
ATOM     11  N   UNL     1      -6.166  -1.302   1.248  0.00  0.00    -0.295 N 
ATOM     12  C   UNL     1      -5.185  -0.289   1.661  0.00  0.00    +0.122 C 
ATOM     13  C   UNL     1      -7.201  -0.969   0.450  0.00  0.00    +0.268 C 
ATOM     14  O   UNL     1      -7.396   0.196   0.162  0.00  0.00    -0.268 OA
BRANCH   7  15
ATOM     15  C   UNL     1      -3.977   0.632   3.623  0.00  0.00    +0.312 C 
ATOM     16  O   UNL     1      -3.032   0.209   4.246  0.00  0.00    -0.250 OA
BRANCH  15  17
ATOM     17  O   UNL     1      -4.048   1.937   3.317  0.00  0.00    -0.465 OA
BRANCH  17  19
ATOM     18  C   UNL     1      -3.228   4.211   3.322  0.00  0.00    +0.048 C 
ATOM     19  C   UNL     1      -2.973   2.767   3.761  0.00  0.00    +0.229 C 
ENDBRANCH  17  19
ENDBRANCH  15  17
ENDBRANCH   7  15
ENDBRANCH   2  13
ENDBRANCH   1   5
BRANCH   1  20
ATOM     20  N   UNL     1      -9.902  -5.907   0.540  0.00  0.00    +0.391 N 
ATOM     21  H   UNL     1      -9.454  -5.607   1.393  0.00  0.00    -0.080 HD
BRANCH  20  22
ATOM     22  C   UNL     1      -9.991  -7.373   0.524  0.00  0.00    -0.042 C 
BRANCH  22  23
ATOM     23  C   UNL     1      -8.633  -7.962   0.811  0.00  0.00    -0.064 A 
ATOM     24  C   UNL     1      -7.810  -8.341  -0.233  0.00  0.00    +0.004 A 
ATOM     25  C   UNL     1      -6.564  -8.880   0.029  0.00  0.00    +0.038 A 
ATOM     26  C   UNL     1      -6.142  -9.041   1.338  0.00  0.00    +0.123 A 
ATOM     27  C   UNL     1      -6.968  -8.661   2.383  0.00  0.00    +0.038 A 
ATOM     28  C   UNL     1      -8.210  -8.117   2.118  0.00  0.00    +0.004 A 
ATOM     29  F   UNL     1      -4.925  -9.568   1.595  0.00  0.00    -0.205 F 
ENDBRANCH  22  23
ENDBRANCH  20  22
BRANCH  20  30
ATOM     30  C   UNL     1     -11.253  -5.334   0.469  0.00  0.00    -0.040 C 
BRANCH  30  31
ATOM     31  C   UNL     1     -12.005  -5.663   1.732  0.00  0.00    -0.046 A 
ATOM     32  C   UNL     1     -13.011  -6.611   1.711  0.00  0.00    +0.003 A 
ATOM     33  C   UNL     1     -13.701  -6.912   2.870  0.00  0.00    +0.000 A 
ATOM     34  C   UNL     1     -13.386  -6.266   4.051  0.00  0.00    +0.001 A 
ATOM     35  C   UNL     1     -12.381  -5.318   4.074  0.00  0.00    +0.020 A 
ATOM     36  C   UNL     1     -11.685  -5.020   2.915  0.00  0.00    +0.042 A 
ATOM     37 CL   UNL     1     -10.418  -3.834   2.943  0.00  0.00    -0.083 Cl
ENDBRANCH  30  31
ENDBRANCH  20  30
ENDBRANCH   1  20
TORSDOF 10
