REMARK  Name = ZINC37377591
REMARK  7 active torsions:
REMARK  status: ('A' for Active; 'I' for Inactive)
REMARK    1  A    between atoms: C_4  and  O_7
REMARK    2  A    between atoms: O_7  and  C_8
REMARK    3  A    between atoms: C_8  and  C_9
REMARK    4  A    between atoms: C_9  and  N_10
REMARK    5  A    between atoms: C_13  and  C_29
REMARK    6  A    between atoms: C_15  and  N_28
REMARK    7  A    between atoms: N_16  and  C_20
REMARK                            x       y       z     vdW  Elec       q    Type
REMARK                         _______ _______ _______ _____ _____    ______ ____
ROOT
ATOM      1  N   UNL     1       5.434  -3.409   1.398  0.00  0.00    -0.310 N 
ATOM      2  C   UNL     1       6.787  -3.630   1.579  0.00  0.00    +0.218 A 
ATOM      3  N   UNL     1       7.306  -3.397   2.781  0.00  0.00    -0.214 NA
ATOM      4  C   UNL     1       8.594  -3.582   3.041  0.00  0.00    +0.089 A 
ATOM      5  C   UNL     1       9.428  -4.042   1.998  0.00  0.00    +0.086 A 
ATOM      6  C   UNL     1      10.777  -4.350   1.863  0.00  0.00    +0.131 A 
ATOM      7  N   UNL     1      10.978  -4.747   0.592  0.00  0.00    -0.213 N 
ATOM      8  N   UNL     1       9.771  -4.704  -0.117  0.00  0.00    -0.144 NA
ATOM      9  C   UNL     1       8.812  -4.288   0.681  0.00  0.00    +0.189 A 
ATOM     10  N   UNL     1       7.490  -4.064   0.553  0.00  0.00    -0.193 NA
ATOM     11  H   UNL     1       4.891  -3.090   2.136  0.00  0.00    +0.149 HD
ENDROOT
BRANCH   7  12
ATOM     12  C   UNL     1      12.210  -5.143   0.058  0.00  0.00    +0.105 A 
ATOM     13  C   UNL     1      13.308  -5.312   0.891  0.00  0.00    +0.069 A 
ATOM     14  C   UNL     1      14.524  -5.704   0.361  0.00  0.00    +0.126 A 
ATOM     15  C   UNL     1      14.647  -5.928  -1.000  0.00  0.00    +0.041 A 
ATOM     16  C   UNL     1      13.556  -5.761  -1.833  0.00  0.00    +0.043 A 
ATOM     17  C   UNL     1      12.336  -5.375  -1.308  0.00  0.00    +0.149 A 
ATOM     18  F   UNL     1      11.269  -5.218  -2.121  0.00  0.00    -0.203 F 
ATOM     19  F   UNL     1      15.592  -5.868   1.172  0.00  0.00    -0.205 F 
ENDBRANCH   7  12
BRANCH   4  20
ATOM     20  C   UNL     1       9.143  -3.314   4.390  0.00  0.00    +0.004 A 
ATOM     21  C   UNL     1      10.349  -2.627   4.531  0.00  0.00    +0.010 A 
ATOM     22  C   UNL     1      10.856  -2.378   5.790  0.00  0.00    +0.003 A 
ATOM     23  C   UNL     1      10.171  -2.809   6.912  0.00  0.00    +0.038 A 
ATOM     24  C   UNL     1       8.973  -3.492   6.780  0.00  0.00    +0.124 A 
ATOM     25  C   UNL     1       8.453  -3.742   5.524  0.00  0.00    +0.048 A 
ATOM     26  F   UNL     1       8.310  -3.910   7.880  0.00  0.00    -0.205 F 
ENDBRANCH   4  20
BRANCH   6  27
ATOM     27  N   UNL     1      11.737  -4.264   2.854  0.00  0.00    -0.342 N 
ATOM     28  H   UNL     1      11.536  -4.569   3.752  0.00  0.00    +0.144 HD
ATOM     29  H   UNL     1      12.613  -3.898   2.651  0.00  0.00    +0.144 HD
ENDBRANCH   6  27
BRANCH   1  30
ATOM     30  C   UNL     1       4.819  -3.659   0.092  0.00  0.00    +0.145 C 
BRANCH  30  31
ATOM     31  C   UNL     1       3.325  -3.338   0.161  0.00  0.00    +0.247 C 
BRANCH  31  32
ATOM     32  O   UNL     1       3.148  -1.941   0.402  0.00  0.00    -0.490 OA
BRANCH  32  36
ATOM     33  C   UNL     1      -0.731  -0.564   0.675  0.00  0.00    +0.000 A 
ATOM     34  C   UNL     1       0.325   0.317   0.816  0.00  0.00    +0.004 A 
ATOM     35  C   UNL     1       1.625  -0.142   0.725  0.00  0.00    +0.045 A 
ATOM     36  C   UNL     1       1.870  -1.487   0.492  0.00  0.00    +0.121 A 
ATOM     37  C   UNL     1       0.808  -2.369   0.352  0.00  0.00    +0.045 A 
ATOM     38  C   UNL     1      -0.490  -1.905   0.443  0.00  0.00    +0.004 A 
ENDBRANCH  32  36
ENDBRANCH  31  32
ENDBRANCH  30  31
ENDBRANCH   1  30
TORSDOF 7
