REMARK  Name = ZINC06949609
REMARK  11 active torsions:
REMARK  status: ('A' for Active; 'I' for Inactive)
REMARK    1  A    between atoms: C_4  and  C_7
REMARK    2  A    between atoms: C_7  and  C_9
REMARK    3  A    between atoms: C_7  and  C_24
REMARK    4  A    between atoms: C_9  and  N_55
REMARK    5  A    between atoms: C_10  and  C_11
REMARK    6  A    between atoms: C_10  and  N_55
REMARK    7  A    between atoms: C_11  and  C_13
REMARK    8  A    between atoms: C_11  and  O_23
REMARK    9  A    between atoms: C_13  and  O_14
REMARK   10  A    between atoms: O_14  and  C_15
REMARK   11  A    between atoms: C_18  and  C_21
REMARK                            x       y       z     vdW  Elec       q    Type
REMARK                         _______ _______ _______ _____ _____    ______ ____
ROOT
ATOM      1  C   UNL     1      -3.152  -1.438  -1.224  0.00  0.00    -0.070 C 
ENDROOT
BRANCH   1   2
ATOM      2  N   UNL     1      -4.590  -1.109  -1.262  0.00  0.00    +0.381 N 
ATOM      3  H   UNL     1      -4.702  -0.088  -1.293  0.00  0.00    -0.086 HD
ATOM      4  H   UNL     1      -5.045  -1.478  -0.419  0.00  0.00    -0.086 HD
BRANCH   2   5
ATOM      5  C   UNL     1      -5.220  -1.704  -2.456  0.00  0.00    -0.047 C 
BRANCH   5   6
ATOM      6  C   UNL     1      -6.707  -1.345  -2.469  0.00  0.00    +0.135 C 
BRANCH   6   7
ATOM      7  O   UNL     1      -6.855   0.068  -2.623  0.00  0.00    -0.390 OA
ATOM      8  H   UNL     1      -6.471   0.417  -3.438  0.00  0.00    +0.210 HD
ENDBRANCH   6   7
BRANCH   6   9
ATOM      9  C   UNL     1      -7.394  -2.060  -3.634  0.00  0.00    +0.258 C 
BRANCH   9  10
ATOM     10  O   UNL     1      -8.801  -1.820  -3.578  0.00  0.00    -0.489 OA
BRANCH  10  11
ATOM     11  C   UNL     1      -9.563  -2.388  -4.548  0.00  0.00    +0.121 A 
ATOM     12  C   UNL     1      -8.963  -3.157  -5.538  0.00  0.00    +0.047 A 
ATOM     13  C   UNL     1      -9.733  -3.740  -6.520  0.00  0.00    +0.022 A 
ATOM     14  C   UNL     1     -11.117  -3.547  -6.527  0.00  0.00    +0.052 A 
ATOM     15  C   UNL     1     -11.715  -2.767  -5.533  0.00  0.00    +0.022 A 
ATOM     16  C   UNL     1     -10.939  -2.193  -4.551  0.00  0.00    +0.047 A 
BRANCH  14  17
ATOM     17  C   UNL     1     -11.921  -4.146  -7.550  0.00  0.00    +0.099 C 
ATOM     18  N   UNL     1     -12.558  -4.622  -8.361  0.00  0.00    -0.191 NA
ENDBRANCH  14  17
ENDBRANCH  10  11
ENDBRANCH   9  10
ENDBRANCH   6   9
ENDBRANCH   5   6
ENDBRANCH   2   5
ENDBRANCH   1   2
BRANCH   1  19
ATOM     19  C   UNL     1      -2.527  -0.809   0.023  0.00  0.00    +0.034 C 
BRANCH  19  20
ATOM     20  C   UNL     1      -1.037  -1.036   0.007  0.00  0.00    -0.017 A 
ATOM     21  C   UNL     1      -0.411  -2.224  -0.005  0.00  0.00    +0.087 A 
ATOM     22  N   UNL     1       0.945  -2.036  -0.017  0.00  0.00    -0.360 N 
ATOM     23  H   UNL     1       1.605  -2.746  -0.028  0.00  0.00    +0.165 HD
ATOM     24  C   UNL     1       1.231  -0.689  -0.013  0.00  0.00    +0.047 A 
ATOM     25  C   UNL     1       0.002  -0.004   0.002  0.00  0.00    +0.003 A 
ATOM     26  C   UNL     1      -0.017   1.392   0.010  0.00  0.00    +0.010 A 
ATOM     27  C   UNL     1       1.160   2.086   0.002  0.00  0.00    +0.001 A 
ATOM     28  C   UNL     1       2.375   1.415  -0.014  0.00  0.00    +0.002 A 
ATOM     29  C   UNL     1       2.417   0.038  -0.021  0.00  0.00    +0.026 A 
ENDBRANCH  19  20
BRANCH  19  33
ATOM     30  C   UNL     1      -4.204  -2.603   3.518  0.00  0.00    +0.000 A 
ATOM     31  C   UNL     1      -4.336  -1.243   3.308  0.00  0.00    +0.000 A 
ATOM     32  C   UNL     1      -3.793  -0.663   2.177  0.00  0.00    +0.004 A 
ATOM     33  C   UNL     1      -3.118  -1.442   1.256  0.00  0.00    -0.042 A 
ATOM     34  C   UNL     1      -2.991  -2.803   1.463  0.00  0.00    +0.004 A 
ATOM     35  C   UNL     1      -3.530  -3.383   2.597  0.00  0.00    +0.000 A 
ENDBRANCH  19  33
ENDBRANCH   1  19
TORSDOF 11
