REMARK  Name = ZINC09781541
REMARK  12 active torsions:
REMARK  status: ('A' for Active; 'I' for Inactive)
REMARK    1  A    between atoms: C_1  and  C_2
REMARK    2  A    between atoms: C_2  and  C_4
REMARK    3  A    between atoms: C_2  and  N_65
REMARK    4  A    between atoms: C_7  and  S_17
REMARK    5  A    between atoms: N_8  and  C_9
REMARK    6  A    between atoms: C_12  and  O_15
REMARK    7  A    between atoms: O_15  and  C_16
REMARK    8  A    between atoms: S_17  and  C_18
REMARK    9  A    between atoms: C_18  and  C_20
REMARK   10  A    between atoms: C_18  and  C_21
REMARK   11  A    between atoms: N_23  and  C_24
REMARK   12  A    between atoms: C_27  and  C_30
REMARK                            x       y       z     vdW  Elec       q    Type
REMARK                         _______ _______ _______ _____ _____    ______ ____
ROOT
ATOM      1  C   UNL     1      -0.795   1.532   3.637  0.00  0.00    +0.125 A 
ATOM      2  N   UNL     1      -1.137   2.781   3.786  0.00  0.00    -0.135 NA
ATOM      3  N   UNL     1      -1.657   2.962   4.947  0.00  0.00    -0.122 NA
ATOM      4  C   UNL     1      -1.667   1.830   5.614  0.00  0.00    +0.197 A 
ATOM      5  N   UNL     1      -1.117   0.881   4.798  0.00  0.00    -0.275 N 
ENDROOT
BRANCH   5   6
ATOM      6  C   UNL     1      -0.922  -0.479   5.090  0.00  0.00    +0.050 A 
ATOM      7  C   UNL     1      -1.613  -1.448   4.376  0.00  0.00    +0.030 A 
ATOM      8  C   UNL     1      -1.418  -2.785   4.661  0.00  0.00    +0.047 A 
ATOM      9  C   UNL     1      -0.538  -3.159   5.666  0.00  0.00    +0.120 A 
ATOM     10  C   UNL     1       0.150  -2.191   6.382  0.00  0.00    +0.047 A 
ATOM     11  C   UNL     1      -0.042  -0.853   6.095  0.00  0.00    +0.030 A 
BRANCH   9  12
ATOM     12  O   UNL     1      -0.349  -4.476   5.949  0.00  0.00    -0.495 OA
ATOM     13  C   UNL     1      -1.090  -5.419   5.171  0.00  0.00    +0.277 C 
ENDBRANCH   9  12
ENDBRANCH   5   6
BRANCH   1  15
ATOM     14  C   UNL     1       1.338   1.240   2.408  0.00  0.00    -0.005 C 
ATOM     15  C   UNL     1      -0.158   0.920   2.416  0.00  0.00    -0.002 C 
BRANCH  15  21
ATOM     16  C   UNL     1      -2.173   1.017   1.079  0.00  0.00    -0.078 C 
ATOM     17  C   UNL     1      -2.836   1.725  -0.105  0.00  0.00    -0.019 C 
ATOM     18  C   UNL     1      -2.055   1.410  -1.384  0.00  0.00    -0.004 C 
ATOM     19  C   UNL     1      -0.600   1.850  -1.206  0.00  0.00    -0.019 C 
ATOM     20  C   UNL     1      -0.002   1.139   0.010  0.00  0.00    -0.078 C 
ATOM     21  N   UNL     1      -0.783   1.503   1.211  0.00  0.00    +0.386 N 
ATOM     22  H   UNL     1      -0.795   2.526   1.303  0.00  0.00    -0.081 HD
ENDBRANCH  15  21
ENDBRANCH   1  15
BRANCH   4  23
ATOM     23  S   UNL     1      -2.274   1.583   7.249  0.00  0.00    -0.073 S 
BRANCH  23  24
ATOM     24  C   UNL     1      -2.820   3.264   7.640  0.00  0.00    +0.137 C 
ATOM     25  C   UNL     1      -1.608   4.197   7.680  0.00  0.00    +0.029 C 
BRANCH  24  26
ATOM     26  C   UNL     1      -3.504   3.270   8.983  0.00  0.00    +0.230 C 
ATOM     27  O   UNL     1      -3.238   2.417   9.803  0.00  0.00    -0.274 OA
ATOM     28  N   UNL     1      -4.411   4.224   9.272  0.00  0.00    -0.285 N 
ATOM     29  H   UNL     1      -4.666   4.872   8.597  0.00  0.00    +0.155 HD
BRANCH  28  30
ATOM     30  C   UNL     1      -4.982   4.281  10.544  0.00  0.00    +0.033 A 
ATOM     31  C   UNL     1      -5.251   3.105  11.237  0.00  0.00    +0.024 A 
ATOM     32  C   UNL     1      -5.810   3.157  12.494  0.00  0.00    +0.020 A 
ATOM     33  C   UNL     1      -6.117   4.393  13.070  0.00  0.00    +0.052 A 
ATOM     34  C   UNL     1      -5.850   5.572  12.369  0.00  0.00    +0.020 A 
ATOM     35  C   UNL     1      -5.286   5.513  11.114  0.00  0.00    +0.024 A 
BRANCH  33  36
ATOM     36  C   UNL     1      -6.702   4.451  14.376  0.00  0.00    +0.099 C 
ATOM     37  N   UNL     1      -7.167   4.497  15.411  0.00  0.00    -0.191 NA
ENDBRANCH  33  36
ENDBRANCH  28  30
ENDBRANCH  24  26
ENDBRANCH  23  24
ENDBRANCH   4  23
TORSDOF 9
