REMARK  Name = ZINC02215344
REMARK  3 active torsions:
REMARK  status: ('A' for Active; 'I' for Inactive)
REMARK    1  A    between atoms: C_8  and  C_26
REMARK    2  A    between atoms: C_13  and  C_18
REMARK    3  A    between atoms: C_30  and  N_32
REMARK                            x       y       z     vdW  Elec       q    Type
REMARK                         _______ _______ _______ _____ _____    ______ ____
ROOT
ATOM      1  C   UNL     1       7.156   8.464   3.999  0.00  0.00    +0.002 A 
ATOM      2  C   UNL     1       6.020   8.116   4.709  0.00  0.00    +0.002 A 
ATOM      3  C   UNL     1       5.096   7.247   4.173  0.00  0.00    +0.029 A 
ATOM      4  C   UNL     1       5.289   6.698   2.898  0.00  0.00    +0.085 A 
ATOM      5  C   UNL     1       6.442   7.085   2.174  0.00  0.00    +0.053 A 
ATOM      6  C   UNL     1       7.364   7.947   2.733  0.00  0.00    +0.025 A 
ATOM      7  N   UNL     1       6.587   6.583   0.894  0.00  0.00    -0.334 N 
ATOM      8  C   UNL     1       5.604   6.830  -0.132  0.00  0.00    +0.116 C 
ATOM      9  C   UNL     1       4.366   6.005  -0.004  0.00  0.00    +0.124 C 
ATOM     10  C   UNL     1       3.744   5.657  -1.150  0.00  0.00    +0.145 C 
ATOM     11  C   UNL     1       2.493   4.832  -1.181  0.00  0.00    +0.083 C 
ATOM     12  C   UNL     1       2.455   3.935   0.061  0.00  0.00    +0.032 C 
ATOM     13  C   UNL     1       2.555   4.828   1.297  0.00  0.00    +0.060 C 
ATOM     14  C   UNL     1       3.865   5.606   1.254  0.00  0.00    +0.032 C 
ATOM     15  N   UNL     1       4.401   5.831   2.398  0.00  0.00    -0.254 NA
ATOM     16  O   UNL     1       4.272   6.071  -2.322  0.00  0.00    -0.297 OA
ATOM     17  H   UNL     1       7.369   6.051   0.681  0.00  0.00    +0.147 HD
ENDROOT
BRANCH  12  18
ATOM     18  C   UNL     1       1.161   3.164   0.093  0.00  0.00    -0.043 A 
ATOM     19  C   UNL     1       1.180   1.782   0.092  0.00  0.00    +0.007 A 
ATOM     20  C   UNL     1      -0.006   1.074   0.121  0.00  0.00    +0.038 A 
ATOM     21  C   UNL     1      -1.215   1.749   0.147  0.00  0.00    +0.123 A 
ATOM     22  C   UNL     1      -1.232   3.134   0.154  0.00  0.00    +0.038 A 
ATOM     23  C   UNL     1      -0.045   3.840   0.124  0.00  0.00    +0.007 A 
ATOM     24  F   UNL     1      -2.375   1.058   0.170  0.00  0.00    -0.205 F 
ENDBRANCH  12  18
BRANCH   8  25
ATOM     25  C   UNL     1       5.217   8.285  -0.084  0.00  0.00    -0.024 A 
ATOM     26  C   UNL     1       4.466   8.767   0.972  0.00  0.00    +0.005 A 
ATOM     27  C   UNL     1       4.111  10.102   1.016  0.00  0.00    +0.003 A 
ATOM     28  C   UNL     1       4.507  10.956   0.003  0.00  0.00    +0.033 A 
ATOM     29  C   UNL     1       5.259  10.475  -1.052  0.00  0.00    +0.127 A 
ATOM     30  C   UNL     1       5.617   9.140  -1.094  0.00  0.00    +0.038 A 
BRANCH  29  31
ATOM     31  N   UNL     1       5.683  11.389  -2.136  0.00  0.00    +0.056 N 
ATOM     32  O   UNL     1       5.370  12.565  -2.098  0.00  0.00    -0.126 OA
ATOM     33  O   UNL     1       6.345  10.965  -3.066  0.00  0.00    -0.126 OA
ENDBRANCH  29  31
ENDBRANCH   8  25
TORSDOF 3
