REMARK  Name = ZINC42015810
REMARK  4 active torsions:
REMARK  status: ('A' for Active; 'I' for Inactive)
REMARK    1  A    between atoms: C_1  and  C_2
REMARK    2  A    between atoms: C_5  and  N_9
REMARK    3  A    between atoms: C_10  and  C_14
REMARK    4  A    between atoms: C_19  and  N_20
REMARK                            x       y       z     vdW  Elec       q    Type
REMARK                         _______ _______ _______ _____ _____    ______ ____
ROOT
ATOM      1  N   UNL     1       0.034  -4.174  -0.004  0.00  0.00    -0.193 N 
ATOM      2  C   UNL     1       0.764  -5.000   0.801  0.00  0.00    +0.189 A 
ATOM      3  N   UNL     1       0.504  -6.234   0.419  0.00  0.00    -0.108 NA
ATOM      4  N   UNL     1      -0.328  -6.237  -0.558  0.00  0.00    -0.022 NA
ATOM      5  N   UNL     1      -0.666  -5.032  -0.870  0.00  0.00    -0.039 NA
ENDROOT
BRANCH   1  10
ATOM      6  C   UNL     1      -0.148   1.498   0.130  0.00  0.00    +0.047 C 
ATOM      7  C   UNL     1      -0.101  -0.008   0.095  0.00  0.00    -0.015 A 
ATOM      8  C   UNL     1       1.109  -0.663   0.232  0.00  0.00    +0.008 A 
ATOM      9  C   UNL     1       1.157  -2.043   0.199  0.00  0.00    +0.028 A 
ATOM     10  C   UNL     1      -0.012  -2.774   0.030  0.00  0.00    +0.072 A 
ATOM     11  C   UNL     1      -1.226  -2.115  -0.107  0.00  0.00    +0.066 A 
ATOM     12  C   UNL     1      -1.269  -0.733  -0.069  0.00  0.00    +0.128 A 
ATOM     13  F   UNL     1      -2.450  -0.090  -0.196  0.00  0.00    -0.205 F 
ENDBRANCH   1  10
BRANCH   2  14
ATOM     14  C   UNL     1       1.672  -4.589   1.892  0.00  0.00    +0.042 A 
ATOM     15  C   UNL     1       1.246  -3.667   2.849  0.00  0.00    +0.015 A 
ATOM     16  C   UNL     1       2.097  -3.287   3.865  0.00  0.00    +0.021 A 
ATOM     17  C   UNL     1       3.376  -3.817   3.941  0.00  0.00    +0.043 A 
ATOM     18  C   UNL     1       3.810  -4.731   3.000  0.00  0.00    +0.043 A 
ATOM     19  C   UNL     1       2.964  -5.128   1.974  0.00  0.00    +0.037 A 
ATOM     20 CL   UNL     1       4.437  -3.330   5.226  0.00  0.00    -0.083 Cl
BRANCH  19  21
ATOM     21  N   UNL     1       3.397  -6.054   1.028  0.00  0.00    -0.357 N 
ATOM     22  H   UNL     1       2.805  -6.327   0.310  0.00  0.00    +0.142 HD
ATOM     23  H   UNL     1       4.291  -6.426   1.087  0.00  0.00    +0.142 HD
ENDBRANCH  19  21
ENDBRANCH   2  14
TORSDOF 3
