REMARK  Name = ZINC05121144
REMARK  13 active torsions:
REMARK  status: ('A' for Active; 'I' for Inactive)
REMARK    1  A    between atoms: C_1  and  C_2
REMARK    2  A    between atoms: C_2  and  N_65
REMARK    3  A    between atoms: C_3  and  C_4
REMARK    4  A    between atoms: C_3  and  N_65
REMARK    5  A    between atoms: C_5  and  C_6
REMARK    6  A    between atoms: C_5  and  N_65
REMARK    7  A    between atoms: C_6  and  C_7
REMARK    8  A    between atoms: C_7  and  C_8
REMARK    9  A    between atoms: C_8  and  C_10
REMARK   10  A    between atoms: C_8  and  N_11
REMARK   11  A    between atoms: C_13  and  C_28
REMARK   12  A    between atoms: C_16  and  C_18
REMARK   13  A    between atoms: C_19  and  C_20
REMARK                            x       y       z     vdW  Elec       q    Type
REMARK                         _______ _______ _______ _____ _____    ______ ____
ROOT
ATOM      1  N   UNL     1      -0.673   2.013   1.209  0.00  0.00    -0.326 N 
ATOM      2  C   UNL     1      -0.374   3.271   1.703  0.00  0.00    +0.132 A 
ATOM      3  C   UNL     1      -1.008   3.753   2.864  0.00  0.00    +0.059 A 
ATOM      4  C   UNL     1      -0.670   5.029   3.321  0.00  0.00    +0.143 A 
ATOM      5  N   UNL     1       0.226   5.736   2.654  0.00  0.00    -0.216 NA
ATOM      6  C   UNL     1       0.805   5.250   1.560  0.00  0.00    +0.156 A 
ATOM      7  N   UNL     1       0.518   4.039   1.093  0.00  0.00    -0.213 NA
ATOM      8 CL   UNL     1      -1.418   5.678   4.747  0.00  0.00    -0.061 Cl
ATOM      9  H   UNL     1      -1.324   1.456   1.664  0.00  0.00    +0.148 HD
ENDROOT
BRANCH   3  10
ATOM     10  C   UNL     1      -2.007   2.928   3.583  0.00  0.00    -0.012 A 
ATOM     11  C   UNL     1      -3.216   2.601   2.969  0.00  0.00    +0.010 A 
ATOM     12  C   UNL     1      -4.141   1.829   3.641  0.00  0.00    +0.020 A 
ATOM     13  C   UNL     1      -3.875   1.387   4.926  0.00  0.00    +0.041 A 
ATOM     14  C   UNL     1      -2.679   1.713   5.542  0.00  0.00    +0.020 A 
ATOM     15  C   UNL     1      -1.744   2.481   4.877  0.00  0.00    +0.010 A 
ATOM     16 CL   UNL     1      -5.046   0.422   5.768  0.00  0.00    -0.084 Cl
ENDBRANCH   3  10
BRANCH   1  17
ATOM     17  C   UNL     1      -0.007   1.523   0.000  0.00  0.00    +0.069 C 
ATOM     18  C   UNL     1      -0.758   2.025  -1.235  0.00  0.00    +0.028 C 
BRANCH  17  19
ATOM     19  C   UNL     1      -0.001  -0.007   0.005  0.00  0.00    +0.020 C 
BRANCH  19  20
ATOM     20  C   UNL     1       0.854  -0.510   1.171  0.00  0.00    -0.017 C 
BRANCH  20  21
ATOM     21  C   UNL     1       0.860  -2.040   1.176  0.00  0.00    -0.079 C 
BRANCH  21  22
ATOM     22  N   UNL     1       1.802  -2.506   2.216  0.00  0.00    +0.379 N 
ATOM     23  H   UNL     1       2.649  -1.926   2.183  0.00  0.00    -0.082 HD
BRANCH  22  25
ATOM     24  C   UNL     1       2.247  -2.650   4.617  0.00  0.00    -0.017 C 
ATOM     25  C   UNL     1       1.183  -2.377   3.552  0.00  0.00    -0.082 C 
ENDBRANCH  22  25
BRANCH  22  26
ATOM     26  C   UNL     1       2.174  -3.914   1.966  0.00  0.00    -0.082 C 
ATOM     27  C   UNL     1       3.198  -3.956   0.830  0.00  0.00    -0.017 C 
ENDBRANCH  22  26
ENDBRANCH  21  22
ENDBRANCH  20  21
ENDBRANCH  19  20
ENDBRANCH  17  19
ENDBRANCH   1  17
BRANCH   6  28
ATOM     28  C   UNL     1       1.796   6.074   0.851  0.00  0.00    +0.049 C 
ATOM     29  C   UNL     1       2.104   7.299   1.310  0.00  0.00    +0.011 C 
BRANCH  29  30
ATOM     30  C   UNL     1       3.097   8.124   0.599  0.00  0.00    -0.025 A 
ATOM     31  C   UNL     1       3.724   7.634  -0.549  0.00  0.00    +0.009 A 
ATOM     32  C   UNL     1       4.649   8.413  -1.212  0.00  0.00    +0.020 A 
ATOM     33  C   UNL     1       4.964   9.675  -0.736  0.00  0.00    +0.041 A 
ATOM     34  C   UNL     1       4.350  10.165   0.405  0.00  0.00    +0.020 A 
ATOM     35  C   UNL     1       3.420   9.399   1.074  0.00  0.00    +0.009 A 
ATOM     36 CL   UNL     1       6.135  10.646  -1.572  0.00  0.00    -0.084 Cl
ENDBRANCH  29  30
ENDBRANCH   6  28
TORSDOF 10
