REMARK  Name = ZINC31162770
REMARK  19 active torsions:
REMARK  status: ('A' for Active; 'I' for Inactive)
REMARK    1  A    between atoms: C_1  and  C_2
REMARK    2  A    between atoms: C_2  and  C_38
REMARK    3  A    between atoms: C_3  and  C_4
REMARK    4  A    between atoms: C_4  and  C_5
REMARK    5  A    between atoms: C_7  and  C_12
REMARK    6  A    between atoms: C_10  and  O_11
REMARK    7  A    between atoms: C_12  and  C_13
REMARK    8  A    between atoms: C_13  and  C_34
REMARK    9  A    between atoms: C_14  and  C_21
REMARK   10  A    between atoms: C_15  and  O_19
REMARK   11  A    between atoms: O_19  and  C_20
REMARK   12  A    between atoms: C_23  and  C_29
REMARK   13  A    between atoms: C_24  and  O_28
REMARK   14  A    between atoms: C_25  and  O_27
REMARK   15  A    between atoms: C_29  and  C_30
REMARK   16  A    between atoms: C_31  and  C_32
REMARK   17  A    between atoms: C_31  and  C_33
REMARK   18  A    between atoms: C_34  and  O_36
REMARK   19  A    between atoms: O_36  and  C_37
REMARK                            x       y       z     vdW  Elec       q    Type
REMARK                         _______ _______ _______ _____ _____    ______ ____
ROOT
ATOM      1  C   UNL     1       0.773  -2.293  -7.911  0.00  0.00    +0.242 C 
ATOM      2  C   UNL     1       0.692  -2.502  -6.417  0.00  0.00    +0.063 C 
ATOM      3  C   UNL     1       0.294  -3.783  -6.229  0.00  0.00    +0.213 C 
ATOM      4  C   UNL     1       0.106  -4.412  -7.536  0.00  0.00    +0.376 C 
ATOM      5  O   UNL     1      -0.252  -5.561  -7.712  0.00  0.00    -0.241 OA
ATOM      6  O   UNL     1       0.391  -3.533  -8.514  0.00  0.00    -0.436 OA
ENDROOT
BRANCH   2   7
ATOM      7  C   UNL     1       0.991  -1.511  -5.373  0.00  0.00    -0.010 A 
ATOM      8  C   UNL     1      -0.025  -1.055  -4.527  0.00  0.00    +0.016 A 
ATOM      9  C   UNL     1       0.257  -0.122  -3.552  0.00  0.00    +0.002 A 
ATOM     10  C   UNL     1       1.551   0.359  -3.401  0.00  0.00    +0.162 A 
ATOM     11  C   UNL     1       2.570  -0.095  -4.237  0.00  0.00    +0.159 A 
ATOM     12  C   UNL     1       2.295  -1.026  -5.220  0.00  0.00    +0.057 A 
BRANCH  11  13
ATOM     13  O   UNL     1       3.835   0.379  -4.085  0.00  0.00    -0.503 OA
ATOM     14  H   UNL     1       4.640   0.021  -4.744  0.00  0.00    +0.292 HD
ENDBRANCH  11  13
BRANCH  10  15
ATOM     15  O   UNL     1       1.824   1.274  -2.435  0.00  0.00    -0.503 OA
ATOM     16  H   UNL     1       2.849   1.656  -2.314  0.00  0.00    +0.292 HD
ENDBRANCH  10  15
BRANCH   9  17
ATOM     17  C   UNL     1      -0.840   0.372  -2.645  0.00  0.00    +0.066 C 
BRANCH  17  18
ATOM     18  C   UNL     1      -0.764  -0.351  -1.325  0.00  0.00    -0.023 C 
ATOM     19  C   UNL     1      -0.703   0.330  -0.208  0.00  0.00    -0.079 C 
ATOM     20  C   UNL     1      -0.835   1.831  -0.231  0.00  0.00    +0.038 C 
ATOM     21  C   UNL     1      -0.499  -0.389   1.101  0.00  0.00    +0.038 C 
ENDBRANCH  17  18
ENDBRANCH   9  17
ENDBRANCH   2   7
BRANCH   3  22
ATOM     22  O   UNL     1       0.100  -4.383  -5.024  0.00  0.00    -0.488 OA
ATOM     23  C   UNL     1       0.963  -5.474  -4.697  0.00  0.00    +0.277 C 
ENDBRANCH   3  22
BRANCH   1  24
ATOM     24  C   UNL     1      -0.175  -1.200  -8.333  0.00  0.00    +0.356 C 
ATOM     25  O   UNL     1      -0.507  -0.350  -7.541  0.00  0.00    -0.246 OA
BRANCH  24  26
ATOM     26  O   UNL     1      -0.650  -1.170  -9.588  0.00  0.00    -0.465 OA
ATOM     27  C   UNL     1      -1.558  -0.088  -9.924  0.00  0.00    +0.280 C 
ENDBRANCH  24  26
ENDBRANCH   1  24
BRANCH   1  28
ATOM     28  C   UNL     1       2.204  -1.931  -8.314  0.00  0.00    +0.100 C 
BRANCH  28  31
ATOM     29  C   UNL     1       2.524  -2.313 -12.055  0.00  0.00    -0.002 A 
ATOM     30  C   UNL     1       2.491  -2.607 -10.706  0.00  0.00    +0.011 A 
ATOM     31  C   UNL     1       2.245  -1.606  -9.785  0.00  0.00    -0.042 A 
ATOM     32  C   UNL     1       2.042  -0.306 -10.210  0.00  0.00    +0.007 A 
ATOM     33  C   UNL     1       2.079  -0.006 -11.558  0.00  0.00    +0.046 A 
ATOM     34  C   UNL     1       2.320  -1.010 -12.485  0.00  0.00    +0.120 A 
BRANCH  34  35
ATOM     35  O   UNL     1       2.357  -0.717 -13.812  0.00  0.00    -0.506 OA
ATOM     36  H   UNL     1       2.196   0.317 -14.151  0.00  0.00    +0.292 HD
ENDBRANCH  34  35
BRANCH  29  37
ATOM     37  C   UNL     1       2.787  -3.405 -13.059  0.00  0.00    +0.066 C 
BRANCH  37  40
ATOM     38  C   UNL     1       2.502  -3.511 -15.863  0.00  0.00    +0.038 C 
ATOM     39  C   UNL     1       1.333  -3.844 -14.971  0.00  0.00    -0.079 C 
ATOM     40  C   UNL     1       1.483  -3.851 -13.670  0.00  0.00    -0.023 C 
ATOM     41  C   UNL     1      -0.008  -4.168 -15.577  0.00  0.00    +0.038 C 
ENDBRANCH  37  40
ENDBRANCH  29  37
ENDBRANCH  28  31
ENDBRANCH   1  28
TORSDOF 13
