REMARK  Name = ZINC35898293
REMARK  12 active torsions:
REMARK  status: ('A' for Active; 'I' for Inactive)
REMARK    1  A    between atoms: C_1  and  C_2
REMARK    2  A    between atoms: C_2  and  C_3
REMARK    3  A    between atoms: C_3  and  C_5
REMARK    4  A    between atoms: C_3  and  O_6
REMARK    5  A    between atoms: O_6  and  C_7
REMARK    6  A    between atoms: C_7  and  C_9
REMARK    7  A    between atoms: C_10  and  C_37
REMARK    8  A    between atoms: C_14  and  C_16
REMARK    9  A    between atoms: C_27  and  C_33
REMARK   10  A    between atoms: C_29  and  C_32
REMARK   11  A    between atoms: C_33  and  O_35
REMARK   12  A    between atoms: O_35  and  C_36
REMARK                            x       y       z     vdW  Elec       q    Type
REMARK                         _______ _______ _______ _____ _____    ______ ____
ROOT
ATOM      1  C   UNL     1      -4.286   0.465   2.158  0.00  0.00    +0.065 C 
ATOM      2  C   UNL     1      -5.614   0.670   2.118  0.00  0.00    +0.016 C 
ATOM      3  N   UNL     1      -6.286   1.077   3.236  0.00  0.00    -0.321 N 
ATOM      4  C   UNL     1      -5.738   0.909   4.479  0.00  0.00    +0.016 C 
ATOM      5  C   UNL     1      -4.411   0.710   4.622  0.00  0.00    +0.025 C 
ATOM      6  C   UNL     1      -3.503   0.677   3.420  0.00  0.00    +0.092 C 
ATOM      7  C   UNL     1      -3.838   0.520   5.892  0.00  0.00    +0.176 C 
ATOM      8  O   UNL     1      -2.638   0.351   5.986  0.00  0.00    -0.291 OA
ATOM      9  C   UNL     1      -4.683   0.523   7.136  0.00  0.00    +0.171 C 
ATOM     10  C   UNL     1      -6.096   0.049   6.781  0.00  0.00    +0.013 C 
ATOM     11  C   UNL     1      -6.650   0.956   5.680  0.00  0.00    +0.055 C 
ATOM     12  C   UNL     1      -6.044  -1.397   6.284  0.00  0.00    +0.009 C 
ATOM     13  C   UNL     1      -6.367   0.449   0.831  0.00  0.00    +0.061 C 
ATOM     14  H   UNL     1      -7.160   1.490   3.148  0.00  0.00    +0.152 HD
ENDROOT
BRANCH   6  15
ATOM     15  C   UNL     1      -2.762   1.986   3.329  0.00  0.00    -0.032 A 
ATOM     16  C   UNL     1      -3.464   3.166   3.169  0.00  0.00    +0.008 A 
ATOM     17  C   UNL     1      -2.789   4.369   3.086  0.00  0.00    +0.050 A 
ATOM     18  C   UNL     1      -1.406   4.395   3.163  0.00  0.00    +0.166 A 
ATOM     19  C   UNL     1      -0.699   3.206   3.324  0.00  0.00    +0.167 A 
ATOM     20  C   UNL     1      -1.383   2.004   3.413  0.00  0.00    +0.054 A 
ATOM     21  O   UNL     1       0.635   3.494   3.371  0.00  0.00    -0.453 OA
ATOM     22  C   UNL     1       0.760   4.822   2.829  0.00  0.00    +0.466 C 
ATOM     23  O   UNL     1      -0.515   5.428   3.109  0.00  0.00    -0.453 OA
ENDBRANCH   6  15
BRANCH   1  24
ATOM     24  C   UNL     1      -3.615   0.037   0.989  0.00  0.00    +0.338 C 
ATOM     25  O   UNL     1      -4.253  -0.281   0.003  0.00  0.00    -0.245 OA
BRANCH  24  26
ATOM     26  O   UNL     1      -2.267  -0.019   0.967  0.00  0.00    -0.458 OA
BRANCH  26  27
ATOM     27  C   UNL     1      -1.655  -0.460  -0.247  0.00  0.00    +0.173 C 
ATOM     28  C   UNL     1      -1.485  -1.980  -0.209  0.00  0.00    +0.052 C 
BRANCH  27  30
ATOM     29  C   UNL     1      -0.463   1.713  -0.561  0.00  0.00    +0.007 C 
ATOM     30  C   UNL     1      -0.284   0.202  -0.398  0.00  0.00    +0.041 C 
ENDBRANCH  27  30
ENDBRANCH  26  27
ENDBRANCH  24  26
ENDBRANCH   1  24
BRANCH   9  31
ATOM     31  C   UNL     1      -4.079  -0.407   8.158  0.00  0.00    +0.318 C 
ATOM     32  O   UNL     1      -3.548  -1.432   7.802  0.00  0.00    -0.250 OA
BRANCH  31  33
ATOM     33  O   UNL     1      -4.132  -0.096   9.462  0.00  0.00    -0.467 OA
ATOM     34  C   UNL     1      -3.539  -1.023  10.374  0.00  0.00    +0.280 C 
ENDBRANCH  31  33
ENDBRANCH   9  31
TORSDOF 7
