REMARK  Name = ZINC13639916
REMARK  7 active torsions:
REMARK  status: ('A' for Active; 'I' for Inactive)
REMARK    1  A    between atoms: C_1  and  N_2
REMARK    2  A    between atoms: N_2  and  C_3
REMARK    3  A    between atoms: N_2  and  S_4
REMARK    4  A    between atoms: S_4  and  C_7
REMARK    5  A    between atoms: C_20  and  C_23
REMARK    6  A    between atoms: C_26  and  O_30
REMARK    7  A    between atoms: C_28  and  O_29
REMARK                            x       y       z     vdW  Elec       q    Type
REMARK                         _______ _______ _______ _____ _____    ______ ____
ROOT
ATOM      1  C   UNL     1       3.404  -6.708   0.351  0.00  0.00    +0.106 A 
ATOM      2  C   UNL     1       3.945  -5.939   1.365  0.00  0.00    +0.030 A 
ATOM      3  C   UNL     1       3.621  -4.600   1.456  0.00  0.00    +0.025 A 
ATOM      4  C   UNL     1       2.755  -4.030   0.531  0.00  0.00    +0.031 A 
ATOM      5  C   UNL     1       2.211  -4.796  -0.488  0.00  0.00    -0.018 A 
ATOM      6  C   UNL     1       2.544  -6.142  -0.569  0.00  0.00    +0.034 A 
ATOM      7  C   UNL     1       1.279  -4.225  -1.509  0.00  0.00    +0.049 C 
ATOM      8  C   UNL     1      -0.148  -4.646  -1.252  0.00  0.00    -0.023 C 
ATOM      9  C   UNL     1      -0.970  -3.670  -1.550  0.00  0.00    -0.030 C 
ATOM     10  C   UNL     1      -0.201  -2.464  -2.054  0.00  0.00    +0.033 C 
ATOM     11  C   UNL     1       1.227  -2.685  -1.484  0.00  0.00    +0.029 C 
ATOM     12  C   UNL     1       1.225  -2.187  -0.035  0.00  0.00    +0.108 C 
ATOM     13  N   UNL     1       2.434  -2.672   0.638  0.00  0.00    -0.336 N 
ATOM     14  H   UNL     1       2.998  -2.067   1.144  0.00  0.00    +0.147 HD
ENDROOT
BRANCH  12  15
ATOM     15  C   UNL     1       1.209  -0.680  -0.020  0.00  0.00    +0.015 A 
ATOM     16  C   UNL     1       0.057  -0.006   0.336  0.00  0.00    +0.012 A 
ATOM     17  C   UNL     1       0.039   1.376   0.351  0.00  0.00    +0.046 A 
ATOM     18  C   UNL     1       1.179   2.089   0.009  0.00  0.00    +0.120 A 
ATOM     19  C   UNL     1       2.336   1.415  -0.349  0.00  0.00    +0.091 A 
ATOM     20  C   UNL     1       2.351   0.029  -0.363  0.00  0.00    +0.125 A 
BRANCH  20  21
ATOM     21  O   UNL     1       3.484  -0.635  -0.714  0.00  0.00    -0.506 OA
ATOM     22  H   UNL     1       4.107  -0.761   0.015  0.00  0.00    +0.292 HD
ENDBRANCH  20  21
BRANCH  18  23
ATOM     23  O   UNL     1       1.160   3.448   0.025  0.00  0.00    -0.507 OA
ATOM     24  H   UNL     1       0.897   3.848  -0.816  0.00  0.00    +0.292 HD
ENDBRANCH  18  23
ENDBRANCH  12  15
BRANCH   1  25
ATOM     25  S   UNL     1       3.813  -8.417   0.232  0.00  0.00    +0.060 S 
ATOM     26  O   UNL     1       3.608  -8.791  -1.124  0.00  0.00    -0.153 OA
ATOM     27  O   UNL     1       5.064  -8.582   0.886  0.00  0.00    -0.153 OA
BRANCH  25  29
ATOM     28  C   UNL     1       1.462  -9.727   0.499  0.00  0.00    +0.131 C 
ATOM     29  N   UNL     1       2.698  -9.252   1.127  0.00  0.00    -0.183 NA
ATOM     30  C   UNL     1       2.946  -9.514   2.547  0.00  0.00    +0.131 C 
ENDBRANCH  25  29
ENDBRANCH   1  25
TORSDOF 5
