REMARK  Name = ZINC35745194
REMARK  17 active torsions:
REMARK  status: ('A' for Active; 'I' for Inactive)
REMARK    1  A    between atoms: C_1  and  C_2
REMARK    2  A    between atoms: C_5  and  C_7
REMARK    3  A    between atoms: C_7  and  N_8
REMARK    4  A    between atoms: N_8  and  C_9
REMARK    5  A    between atoms: N_8  and  C_13
REMARK    6  A    between atoms: C_9  and  C_10
REMARK    7  A    between atoms: C_10  and  O_11
REMARK    8  A    between atoms: O_11  and  C_12
REMARK    9  A    between atoms: C_13  and  C_14
REMARK   10  A    between atoms: C_17  and  C_19
REMARK   11  A    between atoms: C_19  and  C_20
REMARK   12  A    between atoms: C_19  and  C_28
REMARK   13  A    between atoms: C_19  and  O_36
REMARK   14  A    between atoms: C_23  and  O_26
REMARK   15  A    between atoms: O_26  and  C_27
REMARK   16  A    between atoms: C_31  and  O_34
REMARK   17  A    between atoms: O_34  and  C_35
REMARK                            x       y       z     vdW  Elec       q    Type
REMARK                         _______ _______ _______ _____ _____    ______ ____
ROOT
ATOM      1  C   UNL     1       3.900  -4.188  -2.485  0.00  0.00    +0.089 A 
ATOM      2  C   UNL     1       4.899  -3.826  -3.310  0.00  0.00    +0.043 A 
ATOM      3  C   UNL     1       4.641  -4.439  -4.558  0.00  0.00    +0.048 A 
ATOM      4  C   UNL     1       3.501  -5.140  -4.420  0.00  0.00    +0.146 A 
ATOM      5  O   UNL     1       3.060  -4.989  -3.161  0.00  0.00    -0.463 OA
ENDROOT
BRANCH   1   6
ATOM      6  C   UNL     1       3.753  -3.772  -1.044  0.00  0.00    -0.002 C 
BRANCH   6   7
ATOM      7  N   UNL     1       2.971  -2.531  -0.970  0.00  0.00    +0.391 N 
ATOM      8  H   UNL     1       3.401  -1.827  -1.551  0.00  0.00    -0.081 HD
BRANCH   7   9
ATOM      9  C   UNL     1       2.929  -2.061   0.421  0.00  0.00    -0.002 C 
BRANCH   9  14
ATOM     10  C   UNL     1       7.529  -2.299   2.476  0.00  0.00    +0.086 C 
ATOM     11  C   UNL     1       6.315  -1.771   1.754  0.00  0.00    +0.102 A 
ATOM     12  C   UNL     1       6.188  -0.541   1.225  0.00  0.00    +0.044 A 
ATOM     13  C   UNL     1       4.899  -0.474   0.649  0.00  0.00    +0.043 A 
ATOM     14  C   UNL     1       4.315  -1.667   0.860  0.00  0.00    +0.089 A 
ATOM     15  O   UNL     1       5.180  -2.451   1.525  0.00  0.00    -0.467 OA
ENDBRANCH   9  14
ENDBRANCH   7   9
BRANCH   7  16
ATOM     16  C   UNL     1       1.603  -2.785  -1.443  0.00  0.00    -0.049 C 
BRANCH  16  17
ATOM     17  C   UNL     1       0.834  -1.465  -1.514  0.00  0.00    +0.141 C 
BRANCH  17  18
ATOM     18  O   UNL     1       1.419  -0.626  -2.512  0.00  0.00    -0.385 OA
ATOM     19  C   UNL     1       0.773   0.639  -2.660  0.00  0.00    +0.193 C 
ENDBRANCH  17  18
ENDBRANCH  16  17
ENDBRANCH   7  16
ENDBRANCH   6   7
ENDBRANCH   1   6
BRANCH   4  20
ATOM     20  C   UNL     1       2.835  -5.959  -5.495  0.00  0.00    +0.174 C 
BRANCH  20  21
ATOM     21  C   UNL     1       2.093  -7.109  -4.863  0.00  0.00    -0.004 A 
ATOM     22  C   UNL     1       2.465  -8.410  -5.148  0.00  0.00    +0.011 A 
ATOM     23  C   UNL     1       1.786  -9.465  -4.571  0.00  0.00    +0.046 A 
ATOM     24  C   UNL     1       0.731  -9.219  -3.704  0.00  0.00    +0.120 A 
ATOM     25  C   UNL     1       0.360  -7.912  -3.419  0.00  0.00    +0.046 A 
ATOM     26  C   UNL     1       1.046  -6.860  -3.995  0.00  0.00    +0.011 A 
BRANCH  24  27
ATOM     27  O   UNL     1       0.061 -10.255  -3.135  0.00  0.00    -0.495 OA
ATOM     28  C   UNL     1      -1.014  -9.927  -2.252  0.00  0.00    +0.277 C 
ENDBRANCH  24  27
ENDBRANCH  20  21
BRANCH  20  29
ATOM     29  C   UNL     1       1.865  -5.094  -6.258  0.00  0.00    -0.004 A 
ATOM     30  C   UNL     1       1.059  -4.198  -5.580  0.00  0.00    +0.011 A 
ATOM     31  C   UNL     1       0.169  -3.404  -6.277  0.00  0.00    +0.046 A 
ATOM     32  C   UNL     1       0.084  -3.506  -7.658  0.00  0.00    +0.120 A 
ATOM     33  C   UNL     1       0.894  -4.405  -8.336  0.00  0.00    +0.046 A 
ATOM     34  C   UNL     1       1.786  -5.194  -7.635  0.00  0.00    +0.011 A 
BRANCH  32  35
ATOM     35  O   UNL     1      -0.791  -2.726  -8.346  0.00  0.00    -0.495 OA
ATOM     36  C   UNL     1      -0.824  -2.885  -9.765  0.00  0.00    +0.277 C 
ENDBRANCH  32  35
ENDBRANCH  20  29
BRANCH  20  37
ATOM     37  O   UNL     1       3.826  -6.467  -6.391  0.00  0.00    -0.372 OA
ATOM     38  H   UNL     1       4.344  -5.781  -6.834  0.00  0.00    +0.212 HD
ENDBRANCH  20  37
ENDBRANCH   4  20
TORSDOF 13
