REMARK  Name = ZINC38742039
REMARK  3 active torsions:
REMARK  status: ('A' for Active; 'I' for Inactive)
REMARK    1  A    between atoms: C_1  and  C_2
REMARK    2  A    between atoms: C_4  and  C_8
REMARK    3  A    between atoms: C_16  and  C_18
REMARK                            x       y       z     vdW  Elec       q    Type
REMARK                         _______ _______ _______ _____ _____    ______ ____
ROOT
ATOM      1  C   UNL     1      -0.976  -2.937  -1.266  0.00  0.00    +0.206 C 
ATOM      2  N   UNL     1      -2.456  -2.963  -1.351  0.00  0.00    -0.231 NA
ATOM      3  N   UNL     1      -2.858  -4.373  -1.218  0.00  0.00    -0.224 NA
ATOM      4  C   UNL     1      -1.724  -4.974  -0.487  0.00  0.00    +0.240 C 
ATOM      5  N   UNL     1      -0.555  -4.355  -1.196  0.00  0.00    -0.206 N 
ATOM      6  N   UNL     1       0.403  -5.265  -1.587  0.00  0.00    -0.173 NA
ATOM      7  C   UNL     1       0.181  -6.547  -1.638  0.00  0.00    +0.125 C 
ATOM      8  S   UNL     1      -1.491  -6.734  -0.940  0.00  0.00    -0.063 S 
ATOM      9  H   UNL     1      -2.869  -2.399  -0.624  0.00  0.00    +0.143 HD
ATOM     10  H   UNL     1      -2.974  -4.803  -2.124  0.00  0.00    +0.144 HD
ENDROOT
BRANCH   7  11
ATOM     11  C   UNL     1       1.081  -7.608  -2.136  0.00  0.00    +0.009 A 
ATOM     12  C   UNL     1       0.657  -8.949  -2.116  0.00  0.00    +0.011 A 
ATOM     13  C   UNL     1       1.466  -9.941  -2.568  0.00  0.00    +0.009 A 
ATOM     14  C   UNL     1       2.746  -9.634  -3.066  0.00  0.00    -0.018 A 
ATOM     15  C   UNL     1       3.600 -10.644  -3.539  0.00  0.00    +0.008 A 
ATOM     16  C   UNL     1       4.833 -10.317  -4.015  0.00  0.00    +0.001 A 
ATOM     17  C   UNL     1       5.264  -8.992  -4.040  0.00  0.00    +0.001 A 
ATOM     18  C   UNL     1       4.465  -7.987  -3.590  0.00  0.00    +0.008 A 
ATOM     19  C   UNL     1       3.184  -8.286  -3.092  0.00  0.00    -0.017 A 
ATOM     20  C   UNL     1       2.333  -7.273  -2.626  0.00  0.00    +0.019 A 
ENDBRANCH   7  11
BRANCH   1  24
ATOM     21  C   UNL     1      -0.018   1.503   0.010  0.00  0.00    +0.067 C 
ATOM     22  C   UNL     1       0.002  -0.004   0.002  0.00  0.00    +0.058 C 
ATOM     23  C   UNL     1      -1.086  -0.777   0.003  0.00  0.00    +0.029 C 
ATOM     24  C   UNL     1      -0.531  -2.190  -0.007  0.00  0.00    +0.190 C 
ATOM     25  N   UNL     1       0.926  -1.973  -0.013  0.00  0.00    -0.177 NA
ATOM     26  N   UNL     1       1.125  -0.756  -0.013  0.00  0.00    -0.159 NA
ENDBRANCH   1  24
TORSDOF 2
