REMARK  Name = ZINC22021011
REMARK  14 active torsions:
REMARK  status: ('A' for Active; 'I' for Inactive)
REMARK    1  A    between atoms: C_1  and  C_2
REMARK    2  A    between atoms: C_2  and  C_25
REMARK    3  A    between atoms: N_5  and  C_9
REMARK    4  A    between atoms: C_9  and  C_10
REMARK    5  A    between atoms: C_10  and  C_12
REMARK    6  A    between atoms: C_10  and  O_24
REMARK    7  A    between atoms: C_12  and  O_13
REMARK    8  A    between atoms: O_13  and  C_14
REMARK    9  A    between atoms: C_19  and  C_20
REMARK   10  A    between atoms: C_20  and  C_21
REMARK   11  A    between atoms: C_20  and  C_22
REMARK   12  A    between atoms: C_20  and  C_23
REMARK   13  A    between atoms: C_30  and  O_35
REMARK   14  A    between atoms: O_35  and  C_36
REMARK                            x       y       z     vdW  Elec       q    Type
REMARK                         _______ _______ _______ _____ _____    ______ ____
ROOT
ATOM      1  C   UNL     1      -3.603   2.200  -2.809  0.00  0.00    +0.047 C 
ATOM      2  C   UNL     1      -2.141   1.775  -2.957  0.00  0.00    +0.135 C 
ATOM      3  C   UNL     1      -1.715   0.900  -1.794  0.00  0.00    +0.251 C 
ATOM      4  O   UNL     1      -2.174  -0.177  -1.482  0.00  0.00    -0.272 OA
ATOM      5  N   UNL     1      -0.721   1.571  -1.179  0.00  0.00    -0.221 N 
ATOM      6  C   UNL     1      -0.458   2.732  -1.789  0.00  0.00    +0.310 C 
ATOM      7  O   UNL     1       0.401   3.510  -1.421  0.00  0.00    -0.252 OA
ATOM      8  N   UNL     1      -1.249   2.943  -2.856  0.00  0.00    -0.281 N 
ATOM      9  H   UNL     1      -1.329   3.760  -3.588  0.00  0.00    +0.152 HD
ENDROOT
BRANCH   2  10
ATOM     10  C   UNL     1      -1.926   1.055  -4.263  0.00  0.00    -0.015 A 
ATOM     11  C   UNL     1      -2.105  -0.326  -4.323  0.00  0.00    +0.007 A 
ATOM     12  C   UNL     1      -1.925  -1.006  -5.488  0.00  0.00    +0.009 A 
ATOM     13  C   UNL     1      -1.542  -0.310  -6.647  0.00  0.00    -0.014 A 
ATOM     14  C   UNL     1      -1.340  -0.979  -7.866  0.00  0.00    +0.054 A 
ATOM     15  C   UNL     1      -0.968  -0.270  -8.972  0.00  0.00    +0.121 A 
ATOM     16  C   UNL     1      -0.784   1.115  -8.908  0.00  0.00    +0.046 A 
ATOM     17  C   UNL     1      -0.971   1.792  -7.744  0.00  0.00    +0.012 A 
ATOM     18  C   UNL     1      -1.354   1.094  -6.585  0.00  0.00    -0.017 A 
ATOM     19  C   UNL     1      -1.556   1.762  -5.365  0.00  0.00    +0.014 A 
BRANCH  15  20
ATOM     20  O   UNL     1      -0.774  -0.918 -10.150  0.00  0.00    -0.495 OA
ATOM     21  C   UNL     1      -0.385  -0.123 -11.272  0.00  0.00    +0.277 C 
ENDBRANCH  15  20
ENDBRANCH   2  10
BRANCH   5  22
ATOM     22  C   UNL     1      -0.013   1.086   0.008  0.00  0.00    +0.152 C 
BRANCH  22  23
ATOM     23  C   UNL     1      -0.729   1.579   1.267  0.00  0.00    +0.170 C 
BRANCH  23  24
ATOM     24  O   UNL     1      -0.748   3.008   1.275  0.00  0.00    -0.387 OA
ATOM     25  H   UNL     1      -1.224   3.547   2.107  0.00  0.00    +0.210 HD
ENDBRANCH  23  24
BRANCH  23  26
ATOM     26  C   UNL     1       0.011   1.072   2.506  0.00  0.00    +0.262 C 
BRANCH  26  27
ATOM     27  O   UNL     1      -0.721   1.434   3.679  0.00  0.00    -0.489 OA
BRANCH  27  28
ATOM     28  C   UNL     1      -0.196   1.056   4.875  0.00  0.00    +0.124 A 
ATOM     29  C   UNL     1       0.996   0.347   4.918  0.00  0.00    +0.046 A 
ATOM     30  C   UNL     1       1.529  -0.031   6.134  0.00  0.00    +0.004 A 
ATOM     31  C   UNL     1       0.871   0.288   7.308  0.00  0.00    +0.001 A 
ATOM     32  C   UNL     1      -0.319   0.989   7.268  0.00  0.00    +0.008 A 
ATOM     33  C   UNL     1      -0.855   1.375   6.054  0.00  0.00    -0.000 A 
BRANCH  33  34
ATOM     34  C   UNL     1      -2.152   2.140   6.010  0.00  0.00    -0.009 C 
ATOM     35  C   UNL     1      -2.664   2.357   7.436  0.00  0.00    +0.015 C 
ATOM     36  C   UNL     1      -1.923   3.495   5.338  0.00  0.00    +0.015 C 
ATOM     37  C   UNL     1      -3.187   1.344   5.213  0.00  0.00    +0.015 C 
ENDBRANCH  33  34
ENDBRANCH  27  28
ENDBRANCH  26  27
ENDBRANCH  23  26
ENDBRANCH  22  23
ENDBRANCH   5  22
TORSDOF 9
