REMARK  Name = ZINC39665502
REMARK  9 active torsions:
REMARK  status: ('A' for Active; 'I' for Inactive)
REMARK    1  A    between atoms: C_1  and  C_2
REMARK    2  A    between atoms: C_2  and  C_4
REMARK    3  A    between atoms: C_2  and  O_29
REMARK    4  A    between atoms: C_4  and  N_5
REMARK    5  A    between atoms: C_6  and  C_8
REMARK    6  A    between atoms: C_19  and  C_21
REMARK    7  A    between atoms: O_29  and  C_30
REMARK    8  A    between atoms: C_33  and  O_36
REMARK    9  A    between atoms: O_36  and  C_37
REMARK                            x       y       z     vdW  Elec       q    Type
REMARK                         _______ _______ _______ _____ _____    ______ ____
ROOT
ATOM      1  C   UNL     1       0.910  -3.872  -2.327  0.00  0.00    +0.100 C 
ATOM      2  C   UNL     1       1.526  -4.495  -1.054  0.00  0.00    +0.121 C 
ATOM      3  N   UNL     1       2.187  -5.734  -1.526  0.00  0.00    -0.296 N 
ATOM      4  C   UNL     1       2.792  -5.357  -2.826  0.00  0.00    +0.115 C 
ATOM      5  C   UNL     1       1.744  -4.440  -3.488  0.00  0.00    -0.004 C 
ATOM      6  C   UNL     1       2.436  -3.310  -4.244  0.00  0.00    -0.010 C 
ATOM      7  C   UNL     1       3.212  -3.893  -5.428  0.00  0.00    -0.082 C 
ATOM      8  N   UNL     1       2.288  -4.609  -6.316  0.00  0.00    +0.379 N 
ATOM      9  C   UNL     1       1.698  -5.751  -5.608  0.00  0.00    -0.082 C 
ATOM     10  C   UNL     1       0.857  -5.246  -4.432  0.00  0.00    -0.010 C 
ATOM     11  C   UNL     1       2.229  -6.933  -0.912  0.00  0.00    +0.247 C 
ATOM     12  O   UNL     1       1.589  -7.118   0.105  0.00  0.00    -0.270 OA
ATOM     13  H   UNL     1       1.555  -3.982  -6.612  0.00  0.00    -0.086 HD
ATOM     14  H   UNL     1       2.791  -4.941  -7.125  0.00  0.00    -0.086 HD
ENDROOT
BRANCH  11  15
ATOM     15  C   UNL     1       3.053  -8.023  -1.475  0.00  0.00    +0.038 A 
ATOM     16  C   UNL     1       4.152  -7.725  -2.283  0.00  0.00    +0.014 A 
ATOM     17  C   UNL     1       4.918  -8.746  -2.806  0.00  0.00    +0.022 A 
ATOM     18  C   UNL     1       4.599 -10.065  -2.531  0.00  0.00    +0.059 A 
ATOM     19  C   UNL     1       3.509 -10.368  -1.730  0.00  0.00    +0.060 A 
ATOM     20  C   UNL     1       2.739  -9.354  -1.196  0.00  0.00    +0.034 A 
ATOM     21 CL   UNL     1       3.116 -12.025  -1.391  0.00  0.00    -0.082 Cl
ATOM     22 CL   UNL     1       5.567 -11.345  -3.194  0.00  0.00    -0.082 Cl
ENDBRANCH  11  15
BRANCH   1  24
ATOM     23  N   UNL     1       0.095  -1.606  -2.891  0.00  0.00    -0.312 N 
ATOM     24  C   UNL     1       1.024  -2.370  -2.285  0.00  0.00    +0.218 C 
ATOM     25  O   UNL     1       1.953  -1.849  -1.704  0.00  0.00    -0.275 OA
ATOM     26  H   UNL     1      -0.648  -2.023  -3.355  0.00  0.00    +0.149 HD
BRANCH  23  27
ATOM     27  C   UNL     1       0.206  -0.146  -2.850  0.00  0.00    +0.148 C 
BRANCH  27  29
ATOM     28  C   UNL     1      -0.787   1.994  -3.672  0.00  0.00    +0.053 C 
ATOM     29  C   UNL     1      -0.968   0.477  -3.609  0.00  0.00    +0.187 C 
BRANCH  29  30
ATOM     30  O   UNL     1      -2.189   0.171  -2.932  0.00  0.00    -0.488 OA
BRANCH  30  31
ATOM     31  C   UNL     1      -3.326   0.175  -3.677  0.00  0.00    +0.121 A 
ATOM     32  C   UNL     1      -4.557  -0.009  -3.066  0.00  0.00    +0.049 A 
ATOM     33  C   UNL     1      -5.712  -0.005  -3.823  0.00  0.00    +0.049 A 
ATOM     34  C   UNL     1      -5.641   0.183  -5.195  0.00  0.00    +0.120 A 
ATOM     35  C   UNL     1      -4.410   0.367  -5.807  0.00  0.00    +0.049 A 
ATOM     36  C   UNL     1      -3.255   0.368  -5.049  0.00  0.00    +0.049 A 
BRANCH  34  37
ATOM     37  O   UNL     1      -6.778   0.185  -5.941  0.00  0.00    -0.495 OA
ATOM     38  C   UNL     1      -6.630   0.384  -7.349  0.00  0.00    +0.277 C 
ENDBRANCH  34  37
ENDBRANCH  30  31
ENDBRANCH  29  30
ENDBRANCH  27  29
ENDBRANCH  23  27
ENDBRANCH   1  24
TORSDOF 7
