REMARK  Name = ZINC03227076
REMARK  8 active torsions:
REMARK  status: ('A' for Active; 'I' for Inactive)
REMARK    1  A    between atoms: C_1  and  C_2
REMARK    2  A    between atoms: C_5  and  S_8
REMARK    3  A    between atoms: S_8  and  N_11
REMARK    4  A    between atoms: N_11  and  C_12
REMARK    5  A    between atoms: C_24  and  S_26
REMARK    6  A    between atoms: S_26  and  C_27
REMARK    7  A    between atoms: C_32  and  C_37
REMARK    8  A    between atoms: C_34  and  C_36
REMARK                            x       y       z     vdW  Elec       q    Type
REMARK                         _______ _______ _______ _____ _____    ______ ____
ROOT
ATOM      1  C   UNL     1       5.328   0.770   1.998  0.00  0.00    +0.125 C 
ATOM      2  C   UNL     1       6.268   1.950   1.969  0.00  0.00    -0.019 A 
ATOM      3  C   UNL     1       7.511   2.170   1.457  0.00  0.00    +0.006 A 
ATOM      4  C   UNL     1       8.124   3.416   1.607  0.00  0.00    +0.001 A 
ATOM      5  C   UNL     1       7.523   4.452   2.260  0.00  0.00    +0.008 A 
ATOM      6  C   UNL     1       6.241   4.259   2.800  0.00  0.00    -0.017 A 
ATOM      7  C   UNL     1       5.643   2.997   2.637  0.00  0.00    -0.009 A 
ATOM      8  C   UNL     1       4.377   2.695   3.130  0.00  0.00    -0.024 A 
ATOM      9  C   UNL     1       3.702   3.672   3.797  0.00  0.00    +0.005 A 
ATOM     10  C   UNL     1       4.277   4.933   3.972  0.00  0.00    +0.001 A 
ATOM     11  C   UNL     1       5.516   5.244   3.493  0.00  0.00    +0.008 A 
ATOM     12  C   UNL     1       4.080   1.262   2.764  0.00  0.00    +0.108 C 
ENDROOT
BRANCH   1  13
ATOM     13  N   UNL     1       5.946  -0.355   2.704  0.00  0.00    -0.181 NA
ATOM     14  H   UNL     1       5.940  -0.382   3.674  0.00  0.00    +0.149 HD
BRANCH  13  15
ATOM     15  S   UNL     1       6.655  -1.582   1.846  0.00  0.00    +0.059 S 
ATOM     16  O   UNL     1       7.180  -2.494   2.801  0.00  0.00    -0.153 OA
ATOM     17  O   UNL     1       5.721  -1.974   0.850  0.00  0.00    -0.153 OA
BRANCH  15  22
ATOM     18  C   UNL     1      11.386   0.779  -1.062  0.00  0.00    +0.044 C 
ATOM     19  C   UNL     1      10.204   0.189  -0.335  0.00  0.00    -0.050 A 
ATOM     20  C   UNL     1      10.364  -0.331   0.935  0.00  0.00    +0.005 A 
ATOM     21  C   UNL     1       9.280  -0.872   1.602  0.00  0.00    +0.029 A 
ATOM     22  C   UNL     1       8.037  -0.892   0.997  0.00  0.00    +0.105 A 
ATOM     23  C   UNL     1       7.879  -0.377  -0.276  0.00  0.00    +0.029 A 
ATOM     24  C   UNL     1       8.961   0.168  -0.940  0.00  0.00    +0.005 A 
ENDBRANCH  15  22
ENDBRANCH  13  15
ENDBRANCH   1  13
BRANCH  12  25
ATOM     25  S   UNL     1       2.614   1.176   1.699  0.00  0.00    -0.076 S 
BRANCH  25  26
ATOM     26  C   UNL     1       1.296   1.700   2.744  0.00  0.00    +0.198 A 
ATOM     27  N   UNL     1       1.397   2.063   4.003  0.00  0.00    -0.120 NA
ATOM     28  N   UNL     1       0.243   2.388   4.468  0.00  0.00    -0.108 NA
ATOM     29  C   UNL     1      -0.673   2.251   3.527  0.00  0.00    +0.257 A 
ATOM     30  N   UNL     1      -0.018   1.806   2.398  0.00  0.00    -0.259 N 
ATOM     31  C   UNL     1      -0.718   1.572   1.248  0.00  0.00    +0.028 A 
ATOM     32  C   UNL     1      -2.055   1.788   1.239  0.00  0.00    +0.044 A 
ATOM     33  C   UNL     1      -2.690   2.237   2.409  0.00  0.00    +0.044 A 
ATOM     34  N   UNL     1      -1.998   2.455   3.501  0.00  0.00    -0.216 NA
ATOM     35  C   UNL     1      -4.178   2.474   2.407  0.00  0.00    +0.066 C 
ATOM     36  C   UNL     1      -0.013   1.086   0.008  0.00  0.00    +0.064 C 
ENDBRANCH  25  26
ENDBRANCH  12  25
TORSDOF 5
