REMARK  Name = ZINC24831435
REMARK  7 active torsions:
REMARK  status: ('A' for Active; 'I' for Inactive)
REMARK    1  A    between atoms: C_1  and  O_2
REMARK    2  A    between atoms: O_2  and  C_3
REMARK    3  A    between atoms: C_6  and  C_9
REMARK    4  A    between atoms: N_15  and  C_16
REMARK    5  A    between atoms: C_16  and  C_17
REMARK    6  A    between atoms: C_17  and  C_18
REMARK    7  A    between atoms: C_23  and  C_26
REMARK                            x       y       z     vdW  Elec       q    Type
REMARK                         _______ _______ _______ _____ _____    ______ ____
ROOT
ATOM      1  C   UNL     1      -0.037   1.109   0.009  0.00  0.00    +0.220 C 
ATOM      2  O   UNL     1      -0.046  -0.104  -0.006  0.00  0.00    -0.275 OA
ATOM      3  N   UNL     1       1.135   1.774   0.007  0.00  0.00    -0.265 N 
ATOM      4  C   UNL     1       2.334   1.070  -0.011  0.00  0.00    +0.165 A 
ATOM      5  N   UNL     1       3.568   1.535  -0.015  0.00  0.00    -0.229 NA
ATOM      6  C   UNL     1       4.605   0.721  -0.033  0.00  0.00    +0.057 A 
ATOM      7  C   UNL     1       4.377  -0.615  -0.046  0.00  0.00    +0.072 A 
ATOM      8  S   UNL     1       2.591  -0.647  -0.026  0.00  0.00    -0.060 S 
ATOM      9  H   UNL     1       1.143   2.874   0.020  0.00  0.00    +0.157 HD
ENDROOT
BRANCH   6  10
ATOM     10  C   UNL     1       6.011   1.263  -0.038  0.00  0.00    +0.014 C 
ATOM     11  C   UNL     1       6.845   0.507  -1.074  0.00  0.00    +0.016 C 
ATOM     12  C   UNL     1       8.273   1.057  -1.079  0.00  0.00    -0.010 C 
ATOM     13  C   UNL     1       8.244   2.545  -1.435  0.00  0.00    +0.007 C 
ATOM     14  C   UNL     1       7.410   3.301  -0.400  0.00  0.00    -0.010 C 
ATOM     15  C   UNL     1       5.982   2.751  -0.394  0.00  0.00    +0.016 C 
ATOM     16  C   UNL     1       8.032   3.120   0.986  0.00  0.00    +0.007 C 
ATOM     17  C   UNL     1       8.060   1.633   1.342  0.00  0.00    -0.010 C 
ATOM     18  C   UNL     1       8.895   0.876   0.307  0.00  0.00    +0.007 C 
ATOM     19  C   UNL     1       6.633   1.082   1.348  0.00  0.00    +0.016 C 
ENDBRANCH   6  10
BRANCH   1  20
ATOM     20  C   UNL     1      -1.336   1.872   0.022  0.00  0.00    +0.118 C 
BRANCH  20  21
ATOM     21  C   UNL     1      -2.507   0.886   0.014  0.00  0.00    +0.135 C 
BRANCH  21  28
ATOM     22  C   UNL     1      -4.508   1.948   1.148  0.00  0.00    +0.163 A 
ATOM     23  N   UNL     1      -5.565   2.613   0.773  0.00  0.00    -0.153 NA
ATOM     24  N   UNL     1      -5.533   2.727  -0.624  0.00  0.00    -0.254 N 
ATOM     25  H   UNL     1      -6.341   3.253  -1.152  0.00  0.00    +0.191 HD
ATOM     26  C   UNL     1      -4.413   2.110  -1.055  0.00  0.00    +0.176 A 
ATOM     27  S   UNL     1      -3.903   1.965  -2.683  0.00  0.00    -0.011 S 
ATOM     28  N   UNL     1      -3.770   1.628   0.027  0.00  0.00    -0.303 N 
BRANCH  22  32
ATOM     29  C   UNL     1      -3.500   0.947   5.154  0.00  0.00    +0.120 A 
ATOM     30  C   UNL     1      -4.816   1.246   4.825  0.00  0.00    +0.046 A 
ATOM     31  C   UNL     1      -5.147   1.571   3.527  0.00  0.00    +0.015 A 
ATOM     32  C   UNL     1      -4.157   1.600   2.542  0.00  0.00    +0.019 A 
ATOM     33  C   UNL     1      -2.837   1.293   2.876  0.00  0.00    +0.015 A 
ATOM     34  C   UNL     1      -2.513   0.974   4.177  0.00  0.00    +0.046 A 
BRANCH  29  36
ATOM     35  C   UNL     1      -1.806   0.330   6.703  0.00  0.00    +0.277 C 
ATOM     36  O   UNL     1      -3.178   0.626   6.434  0.00  0.00    -0.495 OA
ENDBRANCH  29  36
ENDBRANCH  22  32
ENDBRANCH  21  28
ENDBRANCH  20  21
ENDBRANCH   1  20
TORSDOF 6
