REMARK  Name = ZINC15040103
REMARK  9 active torsions:
REMARK  status: ('A' for Active; 'I' for Inactive)
REMARK    1  A    between atoms: C_3  and  O_31
REMARK    2  A    between atoms: C_6  and  C_7
REMARK    3  A    between atoms: N_11  and  C_15
REMARK    4  A    between atoms: C_15  and  C_16
REMARK    5  A    between atoms: C_16  and  C_17
REMARK    6  A    between atoms: C_17  and  C_18
REMARK    7  A    between atoms: N_20  and  C_21
REMARK    8  A    between atoms: C_24  and  S_27
REMARK    9  A    between atoms: S_27  and  N_30
REMARK                            x       y       z     vdW  Elec       q    Type
REMARK                         _______ _______ _______ _____ _____    ______ ____
ROOT
ATOM      1  C   UNL     1       3.733   8.011   1.934  0.00  0.00    +0.029 C 
ENDROOT
BRANCH   1   2
ATOM      2  C   UNL     1       3.664   7.615   0.458  0.00  0.00    +0.115 C 
BRANCH   2   7
ATOM      3  C   UNL     1       0.139   4.156  -0.005  0.00  0.00    +0.028 C 
ATOM      4  C   UNL     1       1.396   4.652   0.119  0.00  0.00    +0.077 C 
ATOM      5  C   UNL     1       1.849   6.053   0.232  0.00  0.00    +0.258 C 
ATOM      6  O   UNL     1       1.062   6.982   0.224  0.00  0.00    -0.269 OA
ATOM      7  N   UNL     1       3.152   6.248   0.343  0.00  0.00    -0.255 N 
ATOM      8  C   UNL     1       4.020   5.216   0.351  0.00  0.00    +0.121 C 
ATOM      9  S   UNL     1       5.726   5.263   0.484  0.00  0.00    -0.027 S 
ATOM     10  S   UNL     1       2.959   3.788   0.197  0.00  0.00    -0.061 S 
BRANCH   3  16
ATOM     11  C   UNL     1      -1.315   2.140  -0.068  0.00  0.00    +0.011 A 
ATOM     12  C   UNL     1      -1.499   0.802  -0.334  0.00  0.00    +0.046 A 
ATOM     13  C   UNL     1      -0.445   0.036  -0.818  0.00  0.00    +0.117 A 
ATOM     14  C   UNL     1       0.799   0.615  -1.037  0.00  0.00    +0.046 A 
ATOM     15  C   UNL     1       0.994   1.952  -0.775  0.00  0.00    +0.011 A 
ATOM     16  C   UNL     1      -0.063   2.729  -0.287  0.00  0.00    -0.024 A 
BRANCH  13  17
ATOM     17  O   UNL     1      -0.632  -1.284  -1.078  0.00  0.00    -0.507 OA
ATOM     18  H   UNL     1      -0.923  -1.469  -1.982  0.00  0.00    +0.292 HD
ENDBRANCH  13  17
ENDBRANCH   3  16
ENDBRANCH   2   7
ENDBRANCH   1   2
BRANCH   1  19
ATOM     19  C   UNL     1       4.268   9.439   2.055  0.00  0.00    +0.097 C 
BRANCH  19  20
ATOM     20  C   UNL     1       4.335   9.829   3.509  0.00  0.00    +0.217 C 
ATOM     21  O   UNL     1       3.990   9.042   4.365  0.00  0.00    -0.275 OA
ATOM     22  N   UNL     1       4.780  11.053   3.859  0.00  0.00    -0.285 N 
ATOM     23  H   UNL     1       4.995  11.705   3.174  0.00  0.00    +0.155 HD
BRANCH  22  24
ATOM     24  C   UNL     1       4.932  11.382   5.210  0.00  0.00    +0.033 A 
ATOM     25  C   UNL     1       4.684  12.678   5.643  0.00  0.00    +0.025 A 
ATOM     26  C   UNL     1       4.829  12.998   6.979  0.00  0.00    +0.030 A 
ATOM     27  C   UNL     1       5.233  12.032   7.883  0.00  0.00    +0.105 A 
ATOM     28  C   UNL     1       5.487  10.742   7.454  0.00  0.00    +0.030 A 
ATOM     29  C   UNL     1       5.337  10.414   6.121  0.00  0.00    +0.025 A 
BRANCH  27  30
ATOM     30  S   UNL     1       5.424  12.447   9.585  0.00  0.00    +0.056 S 
ATOM     31  O   UNL     1       4.600  13.580   9.822  0.00  0.00    -0.153 OA
ATOM     32  O   UNL     1       5.283  11.236  10.316  0.00  0.00    -0.153 OA
BRANCH  30  33
ATOM     33  N   UNL     1       6.989  12.947   9.794  0.00  0.00    -0.204 NA
ATOM     34  H   UNL     1       7.597  12.965   9.039  0.00  0.00    +0.144 HD
ATOM     35  H   UNL     1       7.296  13.221  10.672  0.00  0.00    +0.144 HD
ENDBRANCH  30  33
ENDBRANCH  27  30
ENDBRANCH  22  24
ENDBRANCH  19  20
ENDBRANCH   1  19
TORSDOF 9
