REMARK  Name = ZINC12776109
REMARK  8 active torsions:
REMARK  status: ('A' for Active; 'I' for Inactive)
REMARK    1  A    between atoms: C_1  and  C_2
REMARK    2  A    between atoms: C_5  and  C_7
REMARK    3  A    between atoms: N_14  and  C_17
REMARK    4  A    between atoms: C_17  and  C_18
REMARK    5  A    between atoms: N_20  and  C_21
REMARK    6  A    between atoms: C_23  and  C_31
REMARK    7  A    between atoms: C_24  and  C_30
REMARK    8  A    between atoms: C_26  and  N_27
REMARK                            x       y       z     vdW  Elec       q    Type
REMARK                         _______ _______ _______ _____ _____    ______ ____
ROOT
ATOM      1  C   UNL     1      -1.350   2.045   0.022  0.00  0.00    +0.010 A 
ATOM      2  C   UNL     1      -2.433   1.228   0.033  0.00  0.00    +0.057 A 
ATOM      3  S   UNL     1      -1.718  -0.405   0.045  0.00  0.00    -0.076 S 
ATOM      4  C   UNL     1      -0.001   0.041   0.030  0.00  0.00    +0.116 A 
ATOM      5  C   UNL     1      -0.020   1.445   0.015  0.00  0.00    +0.080 A 
ATOM      6  C   UNL     1       1.261   2.083   0.000  0.00  0.00    +0.263 A 
ATOM      7  O   UNL     1       1.346   3.299  -0.014  0.00  0.00    -0.267 OA
ATOM      8  N   UNL     1       2.369   1.320   0.000  0.00  0.00    -0.290 N 
ATOM      9  C   UNL     1       2.293  -0.036   0.016  0.00  0.00    +0.203 A 
ATOM     10  N   UNL     1       1.139  -0.646   0.030  0.00  0.00    -0.230 NA
ENDROOT
BRANCH   1  15
ATOM     11  C   UNL     1      -1.327   7.638   0.720  0.00  0.00    +0.051 C 
ATOM     12  C   UNL     1      -1.505   6.191   0.340  0.00  0.00    -0.013 A 
ATOM     13  C   UNL     1      -2.288   5.655  -0.630  0.00  0.00    +0.011 A 
ATOM     14  C   UNL     1      -2.293   4.287  -0.809  0.00  0.00    +0.016 A 
ATOM     15  C   UNL     1      -1.514   3.514   0.009  0.00  0.00    +0.021 A 
ATOM     16  S   UNL     1      -0.742   4.742   1.050  0.00  0.00    -0.093 S 
ENDBRANCH   1  15
BRANCH   8  17
ATOM     17  C   UNL     1       3.685   1.965  -0.016  0.00  0.00    +0.222 C 
BRANCH  17  18
ATOM     18  C   UNL     1       4.126   2.170  -1.442  0.00  0.00    +0.237 C 
ATOM     19  O   UNL     1       3.412   1.813  -2.355  0.00  0.00    -0.274 OA
ATOM     20  N   UNL     1       5.314   2.751  -1.703  0.00  0.00    -0.282 N 
ATOM     21  H   UNL     1       5.856   3.094  -0.976  0.00  0.00    +0.155 HD
BRANCH  20  22
ATOM     22  C   UNL     1       5.765   2.858  -3.023  0.00  0.00    +0.064 A 
ATOM     23  C   UNL     1       4.859   3.084  -4.052  0.00  0.00    +0.029 A 
ATOM     24  C   UNL     1       5.309   3.196  -5.353  0.00  0.00    -0.046 A 
ATOM     25  C   UNL     1       6.657   3.071  -5.634  0.00  0.00    -0.045 A 
ATOM     26  C   UNL     1       7.560   2.841  -4.613  0.00  0.00    +0.038 A 
ATOM     27  C   UNL     1       7.118   2.734  -3.308  0.00  0.00    +0.148 A 
ATOM     28  C   UNL     1       7.143   3.187  -7.056  0.00  0.00    +0.044 C 
ATOM     29  C   UNL     1       4.327   3.447  -6.469  0.00  0.00    +0.044 C 
BRANCH  27  30
ATOM     30  N   UNL     1       8.086   2.489  -2.216  0.00  0.00    +0.058 N 
ATOM     31  O   UNL     1       9.281   2.479  -2.451  0.00  0.00    -0.126 OA
ATOM     32  O   UNL     1       7.687   2.296  -1.081  0.00  0.00    -0.126 OA
ENDBRANCH  27  30
ENDBRANCH  20  22
ENDBRANCH  17  18
ENDBRANCH   8  17
TORSDOF 5
