REMARK  Name = ZINC12436817
REMARK  4 active torsions:
REMARK  status: ('A' for Active; 'I' for Inactive)
REMARK    1  A    between atoms: C_6  and  C_7
REMARK    2  A    between atoms: C_10  and  C_11
REMARK    3  A    between atoms: C_13  and  N_18
REMARK    4  A    between atoms: C_16  and  O_17
REMARK                            x       y       z     vdW  Elec       q    Type
REMARK                         _______ _______ _______ _____ _____    ______ ____
ROOT
ATOM      1  C   UNL     1      -1.319  -0.815  -0.693  0.00  0.00    +0.232 C 
ATOM      2  N   UNL     1      -1.372  -2.066  -0.326  0.00  0.00    -0.205 NA
ATOM      3  C   UNL     1      -2.675  -2.471  -0.311  0.00  0.00    +0.153 C 
ATOM      4  C   UNL     1      -3.158  -3.720   0.021  0.00  0.00    +0.046 C 
ATOM      5  C   UNL     1      -3.458  -1.292  -0.724  0.00  0.00    +0.364 C 
ATOM      6  O   UNL     1      -4.666  -1.212  -0.845  0.00  0.00    -0.243 OA
ATOM      7  O   UNL     1      -2.547  -0.317  -0.934  0.00  0.00    -0.402 OA
ENDROOT
BRANCH   1  13
ATOM      8  C   UNL     1      -0.111   1.298  -1.218  0.00  0.00    +0.014 A 
ATOM      9  C   UNL     1       1.061   2.016  -1.336  0.00  0.00    +0.016 A 
ATOM     10  C   UNL     1       2.277   1.413  -1.065  0.00  0.00    +0.018 A 
ATOM     11  C   UNL     1       2.326   0.085  -0.673  0.00  0.00    +0.016 A 
ATOM     12  C   UNL     1       1.162  -0.644  -0.550  0.00  0.00    +0.014 A 
ATOM     13  C   UNL     1      -0.068  -0.041  -0.823  0.00  0.00    +0.037 A 
ATOM     14 BR   UNL     1       3.878   2.405  -1.230  0.00  0.00    -0.050 Br
ENDBRANCH   1  13
BRANCH   4  15
ATOM     15  C   UNL     1      -4.601  -3.938   0.142  0.00  0.00    +0.021 A 
ATOM     16  C   UNL     1      -5.411  -2.975   0.761  0.00  0.00    +0.044 A 
ATOM     17  C   UNL     1      -6.766  -3.189   0.871  0.00  0.00    +0.127 A 
ATOM     18  C   UNL     1      -7.335  -4.351   0.373  0.00  0.00    +0.036 A 
ATOM     19  C   UNL     1      -6.550  -5.309  -0.239  0.00  0.00    +0.048 A 
ATOM     20  C   UNL     1      -5.184  -5.112  -0.366  0.00  0.00    +0.124 A 
BRANCH  17  21
ATOM     21  N   UNL     1      -7.621  -2.172   1.524  0.00  0.00    +0.056 N 
ATOM     22  O   UNL     1      -7.128  -1.158   1.960  0.00  0.00    -0.126 OA
ATOM     23  O   UNL     1      -8.812  -2.356   1.622  0.00  0.00    -0.126 OA
ENDBRANCH  17  21
BRANCH  20  24
ATOM     24  O   UNL     1      -4.414  -6.050  -0.972  0.00  0.00    -0.506 OA
ATOM     25  H   UNL     1      -4.064  -6.721  -0.370  0.00  0.00    +0.292 HD
ENDBRANCH  20  24
ENDBRANCH   4  15
TORSDOF 4
