REMARK  Name = ZINC01035746
REMARK  5 active torsions:
REMARK  status: ('A' for Active; 'I' for Inactive)
REMARK    1  A    between atoms: C_1  and  C_2
REMARK    2  A    between atoms: C_3  and  N_17
REMARK    3  A    between atoms: C_8  and  C_10
REMARK    4  A    between atoms: N_20  and  N_21
REMARK    5  A    between atoms: N_21  and  C_22
REMARK                            x       y       z     vdW  Elec       q    Type
REMARK                         _______ _______ _______ _____ _____    ______ ____
ROOT
ATOM      1  C   UNL     1       1.735   3.511   0.004  0.00  0.00    +0.068 C 
ATOM      2  C   UNL     1       1.288   2.072   0.001  0.00  0.00    +0.071 A 
ATOM      3  C   UNL     1      -0.022   1.782   0.012  0.00  0.00    +0.098 A 
ATOM      4  S   UNL     1       0.002  -0.004   0.002  0.00  0.00    -0.033 S 
ATOM      5  C   UNL     1       1.766  -0.215  -0.016  0.00  0.00    +0.198 A 
ATOM      6  N   UNL     1       2.226   1.065  -0.013  0.00  0.00    -0.209 N 
ATOM      7  N   UNL     1       3.639   0.930  -0.028  0.00  0.00    -0.144 NA
ATOM      8  C   UNL     1       3.917  -0.355  -0.037  0.00  0.00    +0.183 A 
ATOM      9  N   UNL     1       2.771  -1.047  -0.030  0.00  0.00    -0.200 NA
ENDROOT
BRANCH   8  10
ATOM     10  C   UNL     1       5.279  -0.943  -0.052  0.00  0.00    +0.021 A 
ATOM     11  C   UNL     1       6.398  -0.113  -0.064  0.00  0.00    +0.013 A 
ATOM     12  C   UNL     1       7.663  -0.664  -0.073  0.00  0.00    +0.021 A 
ATOM     13  C   UNL     1       7.821  -2.040  -0.082  0.00  0.00    +0.041 A 
ATOM     14  C   UNL     1       6.712  -2.868  -0.076  0.00  0.00    +0.021 A 
ATOM     15  C   UNL     1       5.443  -2.326  -0.061  0.00  0.00    +0.013 A 
ATOM     16 CL   UNL     1       9.415  -2.727  -0.101  0.00  0.00    -0.084 Cl
ENDBRANCH   8  10
BRANCH   3  17
ATOM     17  N   UNL     1      -1.118   2.650   0.022  0.00  0.00    -0.261 N 
ATOM     18  C   UNL     1      -2.371   2.153   0.026  0.00  0.00    +0.321 C 
ATOM     19  O   UNL     1      -2.548   0.950   0.021  0.00  0.00    -0.251 OA
ATOM     20  N   UNL     1      -3.428   2.989   0.036  0.00  0.00    -0.220 N 
ATOM     21  H   UNL     1      -0.977   3.609   0.026  0.00  0.00    +0.157 HD
ATOM     22  H   UNL     1      -4.330   2.631   0.039  0.00  0.00    +0.174 HD
BRANCH  20  23
ATOM     23  N   UNL     1      -3.224   4.375   0.042  0.00  0.00    -0.262 N 
ATOM     24  H   UNL     1      -2.322   4.733   0.039  0.00  0.00    +0.170 HD
BRANCH  23  25
ATOM     25  C   UNL     1      -4.320   5.243   0.052  0.00  0.00    +0.063 A 
ATOM     26  C   UNL     1      -5.612   4.732   0.056  0.00  0.00    +0.027 A 
ATOM     27  C   UNL     1      -6.693   5.592   0.067  0.00  0.00    +0.022 A 
ATOM     28  C   UNL     1      -6.491   6.961   0.073  0.00  0.00    +0.042 A 
ATOM     29  C   UNL     1      -5.206   7.473   0.069  0.00  0.00    +0.042 A 
ATOM     30  C   UNL     1      -4.120   6.618   0.064  0.00  0.00    +0.065 A 
ATOM     31 CL   UNL     1      -2.507   7.261   0.066  0.00  0.00    -0.082 Cl
ATOM     32 CL   UNL     1      -7.853   8.037   0.086  0.00  0.00    -0.083 Cl
ENDBRANCH  23  25
ENDBRANCH  20  23
ENDBRANCH   3  17
TORSDOF 4
