REMARK  Name = ZINC13016013
REMARK  11 active torsions:
REMARK  status: ('A' for Active; 'I' for Inactive)
REMARK    1  A    between atoms: C_1  and  C_2
REMARK    2  A    between atoms: C_2  and  C_4
REMARK    3  A    between atoms: C_2  and  S_19
REMARK    4  A    between atoms: N_6  and  C_7
REMARK    5  A    between atoms: C_7  and  C_8
REMARK    6  A    between atoms: C_8  and  C_9
REMARK    7  A    between atoms: C_12  and  S_15
REMARK    8  A    between atoms: S_15  and  N_18
REMARK    9  A    between atoms: S_19  and  C_20
REMARK   10  A    between atoms: C_23  and  C_32
REMARK   11  A    between atoms: N_24  and  C_25
REMARK                            x       y       z     vdW  Elec       q    Type
REMARK                         _______ _______ _______ _____ _____    ______ ____
ROOT
ATOM      1  C   UNL     1       2.232   7.625   1.329  0.00  0.00    +0.029 C 
ATOM      2  C   UNL     1       1.438   7.783   0.030  0.00  0.00    +0.137 C 
ENDROOT
BRANCH   2   3
ATOM      3  C   UNL     1       0.933   9.199  -0.081  0.00  0.00    +0.226 C 
ATOM      4  O   UNL     1      -0.186   9.474   0.297  0.00  0.00    -0.275 OA
ATOM      5  N   UNL     1       1.725  10.158  -0.599  0.00  0.00    -0.314 N 
ATOM      6  H   UNL     1       2.620   9.938  -0.901  0.00  0.00    +0.149 HD
BRANCH   5   7
ATOM      7  C   UNL     1       1.233  11.534  -0.707  0.00  0.00    +0.109 C 
BRANCH   7   8
ATOM      8  C   UNL     1       2.320  12.417  -1.324  0.00  0.00    +0.054 C 
BRANCH   8   9
ATOM      9  C   UNL     1       1.815  13.832  -1.435  0.00  0.00    -0.046 A 
ATOM     10  C   UNL     1       1.161  14.245  -2.581  0.00  0.00    +0.005 A 
ATOM     11  C   UNL     1       0.693  15.542  -2.681  0.00  0.00    +0.029 A 
ATOM     12  C   UNL     1       0.888  16.429  -1.639  0.00  0.00    +0.105 A 
ATOM     13  C   UNL     1       1.546  16.018  -0.495  0.00  0.00    +0.029 A 
ATOM     14  C   UNL     1       2.010  14.720  -0.394  0.00  0.00    +0.005 A 
BRANCH  12  15
ATOM     15  S   UNL     1       0.296  18.084  -1.769  0.00  0.00    +0.056 S 
ATOM     16  O   UNL     1      -0.764  18.063  -2.715  0.00  0.00    -0.153 OA
ATOM     17  O   UNL     1       0.123  18.558  -0.440  0.00  0.00    -0.153 OA
BRANCH  15  18
ATOM     18  N   UNL     1       1.511  18.987  -2.439  0.00  0.00    -0.204 NA
ATOM     19  H   UNL     1       2.353  18.568  -2.676  0.00  0.00    +0.144 HD
ATOM     20  H   UNL     1       1.381  19.936  -2.595  0.00  0.00    +0.144 HD
ENDBRANCH  15  18
ENDBRANCH  12  15
ENDBRANCH   8   9
ENDBRANCH   7   8
ENDBRANCH   5   7
ENDBRANCH   2   3
BRANCH   2  21
ATOM     21  S   UNL     1       0.035   6.641   0.038  0.00  0.00    -0.075 S 
BRANCH  21  22
ATOM     22  C   UNL     1       0.893   5.102   0.021  0.00  0.00    +0.175 A 
ATOM     23  N   UNL     1       2.204   4.957   0.008  0.00  0.00    -0.229 NA
ATOM     24  C   UNL     1       2.517   3.664   0.004  0.00  0.00    +0.147 A 
ATOM     25  C   UNL     1       1.343   2.939   0.005  0.00  0.00    +0.156 A 
ATOM     26  N   UNL     1       0.311   3.873   0.020  0.00  0.00    -0.282 N 
BRANCH  26  27
ATOM     27  C   UNL     1      -1.064   3.599   0.032  0.00  0.00    +0.049 A 
ATOM     28  C   UNL     1      -1.857   3.973  -1.045  0.00  0.00    +0.029 A 
ATOM     29  C   UNL     1      -3.210   3.697  -1.034  0.00  0.00    +0.040 A 
ATOM     30  C   UNL     1      -3.779   3.059   0.056  0.00  0.00    +0.124 A 
ATOM     31  C   UNL     1      -2.990   2.690   1.133  0.00  0.00    +0.040 A 
ATOM     32  C   UNL     1      -1.636   2.959   1.123  0.00  0.00    +0.029 A 
ATOM     33  F   UNL     1      -5.103   2.795   0.068  0.00  0.00    -0.205 F 
ENDBRANCH  26  27
BRANCH  25  34
ATOM     34  C   UNL     1       1.214   1.528  -0.001  0.00  0.00    +0.405 C 
ATOM     35  O   UNL     1       2.208   0.827  -0.015  0.00  0.00    -0.239 OA
ATOM     36  O   UNL     1      -0.011   0.963   0.007  0.00  0.00    -0.239 OA
ENDBRANCH  25  34
ENDBRANCH  21  22
ENDBRANCH   2  21
TORSDOF 10
