REMARK  Name = ZINC58903489
REMARK  6 active torsions:
REMARK  status: ('A' for Active; 'I' for Inactive)
REMARK    1  A    between atoms: C_1  and  C_2
REMARK    2  A    between atoms: C_5  and  C_7
REMARK    3  A    between atoms: C_10  and  C_27
REMARK    4  A    between atoms: N_12  and  C_21
REMARK    5  A    between atoms: C_15  and  N_20
REMARK    6  A    between atoms: C_16  and  C_17
REMARK                            x       y       z     vdW  Elec       q    Type
REMARK                         _______ _______ _______ _____ _____    ______ ____
ROOT
ATOM      1  C   UNL     1       1.039  -4.215  -0.049  0.00  0.00    +0.103 C 
ATOM      2  C   UNL     1       1.926  -4.383  -1.255  0.00  0.00    +0.050 A 
ATOM      3  C   UNL     1       1.574  -4.599  -2.581  0.00  0.00    +0.068 A 
ATOM      4  N   UNL     1       2.675  -4.683  -3.290  0.00  0.00    -0.168 NA
ATOM      5  N   UNL     1       3.772  -4.521  -2.429  0.00  0.00    -0.200 N 
ATOM      6  C   UNL     1       3.290  -4.338  -1.180  0.00  0.00    +0.230 A 
ATOM      7  O   UNL     1       3.954  -4.143  -0.014  0.00  0.00    -0.423 OA
ATOM      8  C   UNL     1       3.253  -4.262   1.131  0.00  0.00    +0.195 C 
ATOM      9  C   UNL     1       1.901  -4.303   1.186  0.00  0.00    +0.083 C 
ATOM     10  C   UNL     1       0.169  -4.718  -3.114  0.00  0.00    +0.068 C 
ENDROOT
BRANCH   1  15
ATOM     11  C   UNL     1      -0.590   1.208  -0.244  0.00  0.00    +0.051 C 
ATOM     12  C   UNL     1      -0.415  -0.288  -0.192  0.00  0.00    -0.013 A 
ATOM     13  C   UNL     1      -1.361  -1.259  -0.170  0.00  0.00    +0.011 A 
ATOM     14  C   UNL     1      -0.963  -2.582  -0.123  0.00  0.00    +0.012 A 
ATOM     15  C   UNL     1       0.361  -2.870  -0.100  0.00  0.00    +0.002 A 
ATOM     16  S   UNL     1       1.094  -1.242  -0.152  0.00  0.00    -0.097 S 
ENDBRANCH   1  15
BRANCH   5  17
ATOM     17  C   UNL     1       5.123  -4.545  -2.798  0.00  0.00    +0.069 A 
ATOM     18  C   UNL     1       6.037  -3.728  -2.146  0.00  0.00    +0.028 A 
ATOM     19  C   UNL     1       7.369  -3.753  -2.512  0.00  0.00    +0.002 A 
ATOM     20  C   UNL     1       7.792  -4.591  -3.528  0.00  0.00    +0.000 A 
ATOM     21  C   UNL     1       6.884  -5.406  -4.179  0.00  0.00    +0.002 A 
ATOM     22  C   UNL     1       5.553  -5.390  -3.813  0.00  0.00    +0.028 A 
ENDBRANCH   5  17
BRANCH   9  23
ATOM     23  C   UNL     1       1.278  -4.435   2.438  0.00  0.00    +0.243 C 
ATOM     24  O   UNL     1       0.855  -5.520   2.798  0.00  0.00    -0.271 OA
ATOM     25  N   UNL     1       1.147  -3.361   3.242  0.00  0.00    -0.325 N 
ATOM     26  H   UNL     1       1.483  -2.497   2.956  0.00  0.00    +0.145 HD
ATOM     27  H   UNL     1       0.717  -3.451   4.107  0.00  0.00    +0.145 HD
ENDBRANCH   9  23
BRANCH   8  28
ATOM     28  N   UNL     1       3.950  -4.347   2.308  0.00  0.00    -0.329 N 
ATOM     29  H   UNL     1       4.918  -4.403   2.295  0.00  0.00    +0.145 HD
ATOM     30  H   UNL     1       3.475  -4.350   3.153  0.00  0.00    +0.145 HD
ENDBRANCH   8  28
TORSDOF 4
