REMARK  Name = ZINC22977406
REMARK  10 active torsions:
REMARK  status: ('A' for Active; 'I' for Inactive)
REMARK    1  A    between atoms: C_1  and  C_2
REMARK    2  A    between atoms: C_4  and  C_34
REMARK    3  A    between atoms: C_8  and  N_33
REMARK    4  A    between atoms: C_9  and  C_11
REMARK    5  A    between atoms: C_11  and  O_13
REMARK    6  A    between atoms: O_13  and  C_14
REMARK    7  A    between atoms: C_14  and  C_15
REMARK    8  A    between atoms: N_20  and  C_23
REMARK    9  A    between atoms: C_26  and  C_30
REMARK   10  A    between atoms: C_30  and  C_32
REMARK                            x       y       z     vdW  Elec       q    Type
REMARK                         _______ _______ _______ _____ _____    ______ ____
ROOT
ATOM      1  C   UNL     1       4.412   5.091   1.779  0.00  0.00    +0.328 C 
ENDROOT
BRANCH   1   2
ATOM      2  C   UNL     1       4.152   3.609   1.871  0.00  0.00    +0.253 C 
ATOM      3  O   UNL     1       4.625   2.966   2.784  0.00  0.00    -0.272 OA
ATOM      4  N   UNL     1       3.394   2.999   0.939  0.00  0.00    -0.296 N 
ATOM      5  C   UNL     1       2.811   3.760  -0.176  0.00  0.00    +0.127 C 
ATOM      6  C   UNL     1       1.312   3.451  -0.245  0.00  0.00    +0.124 C 
ATOM      7  N   UNL     1       1.118   1.997  -0.318  0.00  0.00    -0.325 N 
ATOM      8  C   UNL     1       1.616   1.332   0.894  0.00  0.00    +0.124 C 
ATOM      9  C   UNL     1       3.128   1.554   1.010  0.00  0.00    +0.127 C 
BRANCH   7  10
ATOM     10  C   UNL     1      -0.217   1.683  -0.545  0.00  0.00    +0.065 A 
ATOM     11  C   UNL     1      -1.190   2.085   0.366  0.00  0.00    +0.027 A 
ATOM     12  C   UNL     1      -2.503   1.781   0.150  0.00  0.00    +0.013 A 
ATOM     13  C   UNL     1      -2.878   1.061  -0.992  0.00  0.00    +0.020 A 
ATOM     14  C   UNL     1      -1.901   0.654  -1.911  0.00  0.00    +0.051 A 
ATOM     15  C   UNL     1      -0.580   0.971  -1.689  0.00  0.00    +0.145 A 
ATOM     16  F   UNL     1       0.366   0.587  -2.574  0.00  0.00    -0.204 F 
BRANCH  13  17
ATOM     17  C   UNL     1      -4.289   0.733  -1.225  0.00  0.00    +0.160 C 
ATOM     18  O   UNL     1      -5.133   1.086  -0.428  0.00  0.00    -0.292 OA
ATOM     19  C   UNL     1      -4.690  -0.041  -2.454  0.00  0.00    +0.091 C 
ENDBRANCH  13  17
ENDBRANCH   7  10
ENDBRANCH   1   2
BRANCH   1  20
ATOM     20  O   UNL     1       5.236   5.499   2.874  0.00  0.00    -0.451 OA
BRANCH  20  21
ATOM     21  C   UNL     1       5.564   6.806   2.940  0.00  0.00    +0.348 C 
ATOM     22  O   UNL     1       5.161   7.578   2.090  0.00  0.00    -0.244 OA
BRANCH  21  31
ATOM     23  C   UNL     1       7.973  11.308   5.071  0.00  0.00    +0.044 C 
ATOM     24  C   UNL     1       8.211  10.033   5.839  0.00  0.00    -0.037 A 
ATOM     25  C   UNL     1       8.979  10.038   6.980  0.00  0.00    +0.025 A 
ATOM     26  C   UNL     1       9.197   8.864   7.684  0.00  0.00    +0.014 A 
ATOM     27  N   UNL     1       8.671   7.728   7.269  0.00  0.00    -0.353 N 
ATOM     28  C   UNL     1       7.929   7.672   6.183  0.00  0.00    +0.088 A 
ATOM     29  C   UNL     1       7.648   8.811   5.396  0.00  0.00    +0.030 A 
ATOM     30  C   UNL     1       6.816   8.565   4.227  0.00  0.00    +0.055 A 
ATOM     31  C   UNL     1       6.376   7.279   3.998  0.00  0.00    +0.119 A 
ATOM     32  S   UNL     1       7.081   6.354   5.347  0.00  0.00    -0.062 S 
ATOM     33  C   UNL     1      10.040   8.885   8.933  0.00  0.00    +0.063 C 
ATOM     34  H   UNL     1       8.848   6.801   7.833  0.00  0.00    +0.166 HD
BRANCH  30  35
ATOM     35  N   UNL     1       6.473   9.599   3.369  0.00  0.00    -0.356 N 
ATOM     36  H   UNL     1       5.844   9.397   2.489  0.00  0.00    +0.142 HD
ATOM     37  H   UNL     1       6.829  10.620   3.567  0.00  0.00    +0.142 HD
ENDBRANCH  30  35
ENDBRANCH  21  31
ENDBRANCH  20  21
ENDBRANCH   1  20
TORSDOF 7
