REMARK  Name = ZINC39293717
REMARK  14 active torsions:
REMARK  status: ('A' for Active; 'I' for Inactive)
REMARK    1  A    between atoms: C_1  and  N_2
REMARK    2  A    between atoms: N_2  and  C_3
REMARK    3  A    between atoms: C_3  and  C_4
REMARK    4  A    between atoms: C_4  and  O_5
REMARK    5  A    between atoms: O_5  and  C_6
REMARK    6  A    between atoms: C_9  and  C_12
REMARK    7  A    between atoms: C_12  and  C_13
REMARK    8  A    between atoms: C_13  and  C_15
REMARK    9  A    between atoms: C_13  and  N_19
REMARK   10  A    between atoms: C_15  and  O_17
REMARK   11  A    between atoms: O_17  and  C_18
REMARK   12  A    between atoms: N_19  and  C_20
REMARK   13  A    between atoms: C_25  and  C_26
REMARK   14  A    between atoms: C_26  and  C_28
REMARK                            x       y       z     vdW  Elec       q    Type
REMARK                         _______ _______ _______ _____ _____    ______ ____
ROOT
ATOM      1  C   UNL     1      -7.244  -2.413   1.502  0.00  0.00    +0.184 C 
ENDROOT
BRANCH   1   2
ATOM      2  C   UNL     1      -8.486  -3.265   1.461  0.00  0.00    +0.328 C 
ATOM      3  O   UNL     1      -9.538  -2.818   1.853  0.00  0.00    -0.249 OA
BRANCH   2   4
ATOM      4  O   UNL     1      -8.424  -4.520   0.989  0.00  0.00    -0.467 OA
ATOM      5  C   UNL     1      -9.640  -5.270   0.979  0.00  0.00    +0.280 C 
ENDBRANCH   2   4
ENDBRANCH   1   2
BRANCH   1   6
ATOM      6  N   UNL     1      -7.572  -1.097   2.054  0.00  0.00    -0.331 N 
ATOM      7  H   UNL     1      -7.444  -0.921   3.000  0.00  0.00    +0.147 HD
BRANCH   6   8
ATOM      8  C   UNL     1      -8.067  -0.100   1.225  0.00  0.00    +0.039 A 
ATOM      9  C   UNL     1      -8.355  -0.378  -0.106  0.00  0.00    +0.023 A 
ATOM     10  C   UNL     1      -8.847   0.614  -0.929  0.00  0.00    +0.002 A 
ATOM     11  C   UNL     1      -9.058   1.894  -0.438  0.00  0.00    +0.001 A 
ATOM     12  C   UNL     1      -8.779   2.189   0.878  0.00  0.00    +0.013 A 
ATOM     13  C   UNL     1      -8.285   1.194   1.727  0.00  0.00    +0.043 A 
BRANCH  13  14
ATOM     14  C   UNL     1      -7.990   1.501   3.137  0.00  0.00    +0.195 C 
ATOM     15  O   UNL     1      -7.004   2.152   3.424  0.00  0.00    -0.287 OA
BRANCH  14  16
ATOM     16  C   UNL     1      -8.892   1.018   4.203  0.00  0.00    +0.022 A 
ATOM     17  C   UNL     1     -10.081   0.363   3.873  0.00  0.00    +0.012 A 
ATOM     18  C   UNL     1     -10.918  -0.085   4.873  0.00  0.00    +0.001 A 
ATOM     19  C   UNL     1     -10.584   0.113   6.201  0.00  0.00    +0.000 A 
ATOM     20  C   UNL     1      -9.408   0.761   6.535  0.00  0.00    +0.001 A 
ATOM     21  C   UNL     1      -8.558   1.209   5.545  0.00  0.00    +0.012 A 
ENDBRANCH  14  16
ENDBRANCH  13  14
ENDBRANCH   6   8
ENDBRANCH   1   6
BRANCH   1  22
ATOM     22  C   UNL     1      -6.192  -3.088   2.385  0.00  0.00    +0.068 C 
BRANCH  22  26
ATOM     23  C   UNL     1      -2.552  -0.855   2.225  0.00  0.00    +0.121 A 
ATOM     24  C   UNL     1      -3.506  -0.560   3.187  0.00  0.00    +0.046 A 
ATOM     25  C   UNL     1      -4.683  -1.283   3.236  0.00  0.00    +0.007 A 
ATOM     26  C   UNL     1      -4.908  -2.301   2.328  0.00  0.00    -0.045 A 
ATOM     27  C   UNL     1      -3.958  -2.598   1.369  0.00  0.00    +0.007 A 
ATOM     28  C   UNL     1      -2.783  -1.873   1.311  0.00  0.00    +0.046 A 
BRANCH  23  29
ATOM     29  O   UNL     1      -1.394  -0.145   2.174  0.00  0.00    -0.490 OA
BRANCH  29  30
ATOM     30  C   UNL     1      -1.224   0.888   3.146  0.00  0.00    +0.248 C 
BRANCH  30  31
ATOM     31  C   UNL     1       0.128   1.572   2.932  0.00  0.00    +0.147 C 
BRANCH  31  33
ATOM     32  C   UNL     1      -0.312   3.648   1.541  0.00  0.00    +0.130 C 
ATOM     33  N   UNL     1       0.131   2.255   1.636  0.00  0.00    -0.316 N 
ATOM     34  C   UNL     1       0.553   1.581   0.496  0.00  0.00    +0.099 A 
ATOM     35  C   UNL     1       0.967   0.256   0.592  0.00  0.00    +0.042 A 
ATOM     36  C   UNL     1       1.385  -0.402  -0.550  0.00  0.00    +0.005 A 
ATOM     37  C   UNL     1       1.375   0.289  -1.755  0.00  0.00    +0.018 A 
ATOM     38  C   UNL     1       0.951   1.602  -1.777  0.00  0.00    +0.084 A 
ATOM     39  N   UNL     1       0.553   2.204  -0.672  0.00  0.00    -0.350 N 
ATOM     40  H   UNL     1       0.256   3.126  -0.717  0.00  0.00    +0.166 HD
ENDBRANCH  31  33
ENDBRANCH  30  31
ENDBRANCH  29  30
ENDBRANCH  23  29
ENDBRANCH  22  26
ENDBRANCH   1  22
TORSDOF 12
