REMARK  Name = ZINC38713699
REMARK  14 active torsions:
REMARK  status: ('A' for Active; 'I' for Inactive)
REMARK    1  A    between atoms: C_1  and  C_2
REMARK    2  A    between atoms: C_2  and  N_3
REMARK    3  A    between atoms: N_3  and  C_4
REMARK    4  A    between atoms: N_3  and  C_6
REMARK    5  A    between atoms: C_4  and  C_5
REMARK    6  A    between atoms: C_6  and  C_7
REMARK    7  A    between atoms: C_7  and  C_8
REMARK    8  A    between atoms: C_8  and  N_9
REMARK    9  A    between atoms: C_10  and  C_29
REMARK   10  A    between atoms: C_32  and  O_37
REMARK   11  A    between atoms: C_33  and  O_35
REMARK   12  A    between atoms: O_35  and  C_36
REMARK   13  A    between atoms: O_37  and  C_38
REMARK   14  A    between atoms: C_38  and  C_39
REMARK                            x       y       z     vdW  Elec       q    Type
REMARK                         _______ _______ _______ _____ _____    ______ ____
ROOT
ATOM      1  N   UNL     1       2.127  -4.548  -3.841  0.00  0.00    -0.284 N 
ATOM      2  C   UNL     1       1.660  -4.679  -5.231  0.00  0.00    +0.145 C 
ATOM      3  C   UNL     1       2.826  -5.200  -6.005  0.00  0.00    +0.072 A 
ATOM      4  C   UNL     1       2.972  -5.541  -7.423  0.00  0.00    +0.199 A 
ATOM      5  O   UNL     1       2.135  -5.266  -8.265  0.00  0.00    -0.287 OA
ATOM      6  C   UNL     1       4.236  -6.252  -7.736  0.00  0.00    +0.065 A 
ATOM      7  C   UNL     1       4.423  -6.825  -9.007  0.00  0.00    +0.016 A 
ATOM      8  C   UNL     1       5.568  -7.484  -9.307  0.00  0.00    +0.009 A 
ATOM      9  C   UNL     1       6.590  -7.604  -8.342  0.00  0.00    -0.014 A 
ATOM     10  C   UNL     1       7.780  -8.290  -8.636  0.00  0.00    +0.008 A 
ATOM     11  C   UNL     1       8.754  -8.390  -7.689  0.00  0.00    +0.001 A 
ATOM     12  C   UNL     1       8.589  -7.823  -6.429  0.00  0.00    +0.001 A 
ATOM     13  C   UNL     1       7.446  -7.152  -6.109  0.00  0.00    +0.012 A 
ATOM     14  C   UNL     1       6.423  -7.030  -7.060  0.00  0.00    +0.025 A 
ATOM     15  C   UNL     1       5.223  -6.342  -6.752  0.00  0.00    +0.147 A 
ATOM     16  O   UNL     1       5.078  -5.796  -5.526  0.00  0.00    -0.449 OA
ATOM     17  C   UNL     1       3.870  -5.348  -5.135  0.00  0.00    +0.199 A 
ATOM     18  C   UNL     1       3.418  -4.935  -3.796  0.00  0.00    +0.283 C 
ATOM     19  O   UNL     1       4.107  -4.944  -2.795  0.00  0.00    -0.267 OA
ENDROOT
BRANCH   2  20
ATOM     20  C   UNL     1       1.236  -3.336  -5.766  0.00  0.00    -0.019 A 
ATOM     21  C   UNL     1       1.978  -2.208  -5.465  0.00  0.00    +0.009 A 
ATOM     22  C   UNL     1       1.594  -0.974  -5.953  0.00  0.00    +0.050 A 
ATOM     23  C   UNL     1       0.464  -0.863  -6.747  0.00  0.00    +0.162 A 
ATOM     24  C   UNL     1      -0.282  -1.998  -7.051  0.00  0.00    +0.162 A 
ATOM     25  C   UNL     1       0.111  -3.233  -6.562  0.00  0.00    +0.055 A 
BRANCH  24  26
ATOM     26  O   UNL     1      -1.393  -1.895  -7.829  0.00  0.00    -0.491 OA
ATOM     27  C   UNL     1      -2.110  -3.101  -8.100  0.00  0.00    +0.277 C 
ENDBRANCH  24  26
BRANCH  23  28
ATOM     28  O   UNL     1       0.085   0.351  -7.228  0.00  0.00    -0.489 OA
BRANCH  28  29
ATOM     29  C   UNL     1       0.898   1.471  -6.875  0.00  0.00    +0.226 C 
ATOM     30  C   UNL     1       0.318   2.740  -7.503  0.00  0.00    +0.048 C 
ENDBRANCH  28  29
ENDBRANCH  23  28
ENDBRANCH   2  20
BRANCH   1  31
ATOM     31  C   UNL     1       1.330  -4.075  -2.706  0.00  0.00    +0.107 C 
BRANCH  31  32
ATOM     32  C   UNL     1       1.468  -2.556  -2.585  0.00  0.00    +0.000 C 
BRANCH  32  33
ATOM     33  C   UNL     1       0.636  -2.062  -1.400  0.00  0.00    -0.077 C 
BRANCH  33  34
ATOM     34  N   UNL     1       0.865  -0.623  -1.206  0.00  0.00    +0.379 N 
ATOM     35  H   UNL     1       1.854  -0.451  -1.106  0.00  0.00    -0.082 HD
BRANCH  34  37
ATOM     36  C   UNL     1       0.705   1.597  -2.227  0.00  0.00    -0.017 C 
ATOM     37  C   UNL     1       0.356   0.114  -2.370  0.00  0.00    -0.082 C 
ENDBRANCH  34  37
BRANCH  34  38
ATOM     38  C   UNL     1       0.164  -0.174   0.004  0.00  0.00    -0.082 C 
ATOM     39  C   UNL     1       0.801  -0.824   1.233  0.00  0.00    -0.017 C 
ENDBRANCH  34  38
ENDBRANCH  33  34
ENDBRANCH  32  33
ENDBRANCH  31  32
ENDBRANCH   1  31
TORSDOF 10
