REMARK  Name = ZINC10236955
REMARK  12 active torsions:
REMARK  status: ('A' for Active; 'I' for Inactive)
REMARK    1  A    between atoms: C_1  and  C_2
REMARK    2  A    between atoms: C_2  and  C_3
REMARK    3  A    between atoms: C_3  and  C_4
REMARK    4  A    between atoms: C_4  and  N_5
REMARK    5  A    between atoms: C_6  and  N_36
REMARK    6  A    between atoms: C_7  and  N_14
REMARK    7  A    between atoms: N_14  and  C_15
REMARK    8  A    between atoms: C_15  and  C_16
REMARK    9  A    between atoms: C_16  and  C_17
REMARK   10  A    between atoms: C_18  and  C_20
REMARK   11  A    between atoms: C_20  and  C_21
REMARK   12  A    between atoms: C_27  and  C_29
REMARK                            x       y       z     vdW  Elec       q    Type
REMARK                         _______ _______ _______ _____ _____    ______ ____
ROOT
ATOM      1  N   UNL     1      -1.317   2.008  -0.119  0.00  0.00    -0.264 N 
ATOM      2  C   UNL     1      -1.379   3.349   0.012  0.00  0.00    +0.226 C 
ATOM      3  O   UNL     1      -0.358   4.004   0.046  0.00  0.00    -0.275 OA
ENDROOT
BRANCH   1   6
ATOM      4  N   UNL     1       1.616   0.074  -1.197  0.00  0.00    -0.280 N 
ATOM      5  C   UNL     1       0.394   0.705  -1.238  0.00  0.00    +0.127 A 
ATOM      6  C   UNL     1      -0.065   1.356  -0.111  0.00  0.00    +0.140 A 
ATOM      7  C   UNL     1       0.733   1.353   1.048  0.00  0.00    +0.277 A 
ATOM      8  O   UNL     1       0.351   1.921   2.058  0.00  0.00    -0.266 OA
ATOM      9  N   UNL     1       1.922   0.720   1.035  0.00  0.00    -0.273 N 
ATOM     10  H   UNL     1       2.490   0.717   1.858  0.00  0.00    +0.173 HD
ATOM     11  C   UNL     1       2.353   0.090  -0.072  0.00  0.00    +0.331 A 
ATOM     12  O   UNL     1       3.431  -0.474  -0.057  0.00  0.00    -0.246 OA
BRANCH   5  13
ATOM     13  N   UNL     1      -0.359   0.688  -2.387  0.00  0.00    -0.343 N 
ATOM     14  H   UNL     1      -1.173   1.213  -2.441  0.00  0.00    +0.144 HD
ATOM     15  H   UNL     1      -0.078   0.151  -3.143  0.00  0.00    +0.144 HD
ENDBRANCH   5  13
BRANCH   4  16
ATOM     16  C   UNL     1       2.116  -0.621  -2.386  0.00  0.00    +0.128 C 
BRANCH  16  17
ATOM     17  C   UNL     1       1.647  -2.077  -2.360  0.00  0.00    +0.021 C 
BRANCH  17  19
ATOM     18  C   UNL     1       1.700  -4.259  -3.576  0.00  0.00    +0.004 C 
ATOM     19  C   UNL     1       2.169  -2.803  -3.602  0.00  0.00    -0.002 C 
ENDBRANCH  17  19
ENDBRANCH  16  17
ENDBRANCH   4  16
ENDBRANCH   1   6
BRANCH   1  20
ATOM     20  C   UNL     1      -2.548   1.228  -0.270  0.00  0.00    +0.113 C 
BRANCH  20  21
ATOM     21  C   UNL     1      -3.026   0.758   1.105  0.00  0.00    +0.016 C 
ATOM     22  C   UNL     1      -4.311  -0.056   0.947  0.00  0.00    +0.005 C 
ENDBRANCH  20  21
ENDBRANCH   1  20
BRANCH   2  23
ATOM     23  C   UNL     1      -2.717   4.035   0.117  0.00  0.00    +0.150 C 
BRANCH  23  24
ATOM     24  C   UNL     1      -2.511   5.521   0.255  0.00  0.00    +0.041 A 
ATOM     25  C   UNL     1      -2.349   6.266  -0.837  0.00  0.00    +0.070 A 
ATOM     26  S   UNL     1      -2.153   7.900  -0.143  0.00  0.00    -0.057 S 
ATOM     27  C   UNL     1      -2.296   7.447   1.570  0.00  0.00    +0.178 A 
ATOM     28  N   UNL     1      -2.487   6.091   1.509  0.00  0.00    -0.296 N 
ATOM     29  C   UNL     1      -2.607   5.684   2.833  0.00  0.00    +0.121 A 
ATOM     30  C   UNL     1      -2.486   6.786   3.613  0.00  0.00    +0.090 A 
ATOM     31  N   UNL     1      -2.296   7.851   2.807  0.00  0.00    -0.221 NA
BRANCH  30  32
ATOM     32  C   UNL     1      -2.549   6.815   5.095  0.00  0.00    +0.002 A 
ATOM     33  C   UNL     1      -2.756   5.637   5.809  0.00  0.00    +0.013 A 
ATOM     34  C   UNL     1      -2.811   5.668   7.188  0.00  0.00    +0.039 A 
ATOM     35  C   UNL     1      -2.670   6.871   7.861  0.00  0.00    +0.123 A 
ATOM     36  C   UNL     1      -2.469   8.046   7.155  0.00  0.00    +0.039 A 
ATOM     37  C   UNL     1      -2.408   8.023   5.777  0.00  0.00    +0.013 A 
ATOM     38  F   UNL     1      -2.728   6.898   9.211  0.00  0.00    -0.205 F 
ENDBRANCH  30  32
ENDBRANCH  23  24
ENDBRANCH   2  23
TORSDOF 10
