REMARK  Name = ZINC17299735
REMARK  7 active torsions:
REMARK  status: ('A' for Active; 'I' for Inactive)
REMARK    1  A    between atoms: C_1  and  C_2
REMARK    2  A    between atoms: C_6  and  C_29
REMARK    3  A    between atoms: C_6  and  O_30
REMARK    4  A    between atoms: C_12  and  O_20
REMARK    5  A    between atoms: C_15  and  C_19
REMARK    6  A    between atoms: O_20  and  C_21
REMARK    7  A    between atoms: C_21  and  C_23
REMARK                            x       y       z     vdW  Elec       q    Type
REMARK                         _______ _______ _______ _____ _____    ______ ____
ROOT
ATOM      1  C   UNL     1      -3.074   5.979   2.573  0.00  0.00    +0.039 C 
ATOM      2  C   UNL     1      -2.491   4.736   1.959  0.00  0.00    -0.076 C 
ATOM      3  C   UNL     1      -2.356   4.615   0.663  0.00  0.00    -0.028 C 
ATOM      4  C   UNL     1      -2.715   5.725  -0.284  0.00  0.00    +0.030 C 
ATOM      5  C   UNL     1      -2.259   5.360  -1.698  0.00  0.00    +0.042 C 
ATOM      6  C   UNL     1      -0.773   5.678  -1.882  0.00  0.00    +0.100 C 
ATOM      7  C   UNL     1      -0.094   4.518  -2.610  0.00  0.00    +0.209 C 
ATOM      8  C   UNL     1      -0.001   3.280  -1.738  0.00  0.00    +0.059 C 
ATOM      9  C   UNL     1       1.125   3.366  -0.708  0.00  0.00    +0.070 C 
ATOM     10  C   UNL     1       1.269   2.015   0.001  0.00  0.00    +0.188 C 
ATOM     11  C   UNL     1       1.736   2.246   1.439  0.00  0.00    +0.075 C 
ATOM     12  C   UNL     1       0.887   1.449   2.395  0.00  0.00    -0.073 C 
ATOM     13  C   UNL     1      -0.164   1.983   2.965  0.00  0.00    -0.027 C 
ATOM     14  C   UNL     1      -0.537   3.418   2.708  0.00  0.00    +0.031 C 
ATOM     15  C   UNL     1      -2.050   3.596   2.849  0.00  0.00    +0.034 C 
ATOM     16  C   UNL     1       1.256   0.021   2.712  0.00  0.00    +0.039 C 
ATOM     17  C   UNL     1       2.412   3.743  -1.395  0.00  0.00    +0.036 C 
ATOM     18  C   UNL     1       3.597   3.379  -0.910  0.00  0.00    +0.020 C 
ATOM     19  C   UNL     1       2.340   4.545  -2.627  0.00  0.00    +0.335 C 
ATOM     20  O   UNL     1       3.374   4.873  -3.175  0.00  0.00    -0.245 OA
ATOM     21  O   UNL     1       1.174   4.928  -3.145  0.00  0.00    -0.455 OA
ATOM     22  C   UNL     1      -0.642   6.946  -2.738  0.00  0.00    +0.045 C 
ENDROOT
BRANCH   6  23
ATOM     23  O   UNL     1      -0.155   5.908  -0.619  0.00  0.00    -0.385 OA
ATOM     24  H   UNL     1      -0.537   6.645  -0.123  0.00  0.00    +0.210 HD
ENDBRANCH   6  23
BRANCH  10  25
ATOM     25  O   UNL     1      -0.016   1.338   0.009  0.00  0.00    -0.461 OA
BRANCH  25  26
ATOM     26  C   UNL     1       0.002  -0.004   0.002  0.00  0.00    +0.304 C 
ATOM     27  O   UNL     1       1.056  -0.594  -0.011  0.00  0.00    -0.251 OA
ATOM     28  C   UNL     1      -1.293  -0.775   0.010  0.00  0.00    +0.136 C 
ENDBRANCH  25  26
ENDBRANCH  10  25
TORSDOF 3
