REMARK  Name = ZINC13108121
REMARK  4 active torsions:
REMARK  status: ('A' for Active; 'I' for Inactive)
REMARK    1  A    between atoms: C_6  and  C_7
REMARK    2  A    between atoms: C_10  and  C_12
REMARK    3  A    between atoms: N_13  and  N_14
REMARK    4  A    between atoms: C_15  and  C_17
REMARK                            x       y       z     vdW  Elec       q    Type
REMARK                         _______ _______ _______ _____ _____    ______ ____
ROOT
ATOM      1  C   UNL     1       7.089  -2.980   4.071  0.00  0.00    +0.176 C 
ATOM      2  N   UNL     1       6.658  -1.840   3.615  0.00  0.00    -0.184 NA
ENDROOT
BRANCH   1   6
ATOM      3  C   UNL     1       4.480  -5.454   3.677  0.00  0.00    +0.136 A 
ATOM      4  C   UNL     1       5.376  -6.194   4.389  0.00  0.00    +0.050 A 
ATOM      5  C   UNL     1       6.486  -5.374   4.633  0.00  0.00    +0.051 A 
ATOM      6  C   UNL     1       6.210  -4.152   4.061  0.00  0.00    +0.148 A 
ATOM      7  O   UNL     1       4.993  -4.223   3.485  0.00  0.00    -0.454 OA
BRANCH   3  13
ATOM      8  C   UNL     1       2.693  -7.185   3.563  0.00  0.00    +0.012 A 
ATOM      9  C   UNL     1       1.462  -7.614   3.115  0.00  0.00    +0.016 A 
ATOM     10  C   UNL     1       0.699  -6.802   2.293  0.00  0.00    +0.018 A 
ATOM     11  C   UNL     1       1.164  -5.552   1.921  0.00  0.00    +0.016 A 
ATOM     12  C   UNL     1       2.391  -5.108   2.366  0.00  0.00    +0.012 A 
ATOM     13  C   UNL     1       3.166  -5.922   3.196  0.00  0.00    +0.017 A 
ATOM     14 BR   UNL     1      -0.985  -7.403   1.676  0.00  0.00    -0.050 Br
ENDBRANCH   3  13
ENDBRANCH   1   6
BRANCH   2  15
ATOM     15  N   UNL     1       5.383  -1.751   3.041  0.00  0.00    -0.203 N 
ATOM     16  C   UNL     1       4.982  -0.601   2.463  0.00  0.00    +0.263 C 
ATOM     17  O   UNL     1       5.760   0.327   2.353  0.00  0.00    -0.268 OA
ATOM     18  H   UNL     1       4.789  -2.518   3.059  0.00  0.00    +0.178 HD
BRANCH  16  19
ATOM     19  C   UNL     1       3.600  -0.469   1.965  0.00  0.00    +0.042 A 
ATOM     20  C   UNL     1       2.730  -1.562   2.012  0.00  0.00    +0.017 A 
ATOM     21  C   UNL     1       1.440  -1.436   1.546  0.00  0.00    +0.050 A 
ATOM     22  C   UNL     1       0.999  -0.225   1.029  0.00  0.00    +0.166 A 
ATOM     23  C   UNL     1       1.862   0.870   0.979  0.00  0.00    +0.167 A 
ATOM     24  C   UNL     1       3.157   0.750   1.445  0.00  0.00    +0.062 A 
ATOM     25  O   UNL     1       1.192   1.928   0.434  0.00  0.00    -0.453 OA
ATOM     26  C   UNL     1      -0.204   1.588   0.528  0.00  0.00    +0.466 C 
ATOM     27  O   UNL     1      -0.208   0.148   0.515  0.00  0.00    -0.453 OA
ENDBRANCH  16  19
ENDBRANCH   2  15
TORSDOF 4
