REMARK  Name = ZINC35662024
REMARK  6 active torsions:
REMARK  status: ('A' for Active; 'I' for Inactive)
REMARK    1  A    between atoms: C_1  and  C_2
REMARK    2  A    between atoms: C_2  and  N_3
REMARK    3  A    between atoms: N_3  and  C_4
REMARK    4  A    between atoms: C_4  and  C_5
REMARK    5  A    between atoms: C_10  and  O_11
REMARK    6  A    between atoms: O_11  and  C_12
REMARK                            x       y       z     vdW  Elec       q    Type
REMARK                         _______ _______ _______ _____ _____    ______ ____
ROOT
ATOM      1  C   UNL     1      -2.770  -2.503   0.015  0.00  0.00    -0.020 A 
ATOM      2  C   UNL     1      -3.337  -2.938   1.198  0.00  0.00    +0.025 A 
ATOM      3  C   UNL     1      -4.635  -3.418   1.208  0.00  0.00    +0.043 A 
ATOM      4  C   UNL     1      -5.368  -3.463   0.036  0.00  0.00    +0.043 A 
ATOM      5  C   UNL     1      -4.804  -3.028  -1.149  0.00  0.00    +0.084 A 
ATOM      6  C   UNL     1      -3.504  -2.541  -1.161  0.00  0.00    +0.141 A 
ATOM      7 CL   UNL     1      -5.723  -3.085  -2.621  0.00  0.00    -0.080 Cl
ATOM      8 CL   UNL     1      -5.344  -3.964   2.696  0.00  0.00    -0.083 Cl
ENDROOT
BRANCH   1   9
ATOM      9  C   UNL     1      -1.356  -1.981   0.004  0.00  0.00    -0.043 C 
BRANCH   9  10
ATOM     10  N   UNL     1      -1.376  -0.512   0.012  0.00  0.00    +0.382 N 
ATOM     11  H   UNL     1      -1.848  -0.187   0.843  0.00  0.00    -0.085 HD
ATOM     12  H   UNL     1      -1.864  -0.178  -0.805  0.00  0.00    -0.085 HD
BRANCH  10  14
ATOM     13  C   UNL     1      -0.019   1.526   0.010  0.00  0.00    -0.017 C 
ATOM     14  C   UNL     1       0.002  -0.004   0.002  0.00  0.00    -0.086 C 
ENDBRANCH  10  14
ENDBRANCH   9  10
ENDBRANCH   1   9
BRANCH   6  15
ATOM     15  O   UNL     1      -2.950  -2.108  -2.324  0.00  0.00    -0.478 OA
BRANCH  15  16
ATOM     16  C   UNL     1      -2.253  -3.077  -3.110  0.00  0.00    +0.259 C 
ATOM     17  C   UNL     1      -1.136  -2.390  -3.901  0.00  0.00    +0.054 C 
ATOM     18  C   UNL     1      -1.557  -0.995  -4.325  0.00  0.00    +0.006 C 
ATOM     19  C   UNL     1      -2.687  -0.977  -5.337  0.00  0.00    +0.019 C 
ATOM     20  C   UNL     1      -3.985  -1.495  -4.714  0.00  0.00    +0.104 C 
ATOM     21  N   UNL     1      -4.015  -2.961  -4.839  0.00  0.00    -0.312 N 
ATOM     22  C   UNL     1      -3.212  -3.723  -4.088  0.00  0.00    +0.254 C 
ATOM     23  O   UNL     1      -3.246  -4.931  -4.193  0.00  0.00    -0.272 OA
ATOM     24  H   UNL     1      -4.623  -3.379  -5.468  0.00  0.00    +0.149 HD
ENDBRANCH  15  16
ENDBRANCH   6  15
TORSDOF 5
