REMARK  Name = ZINC61958016
REMARK  5 active torsions:
REMARK  status: ('A' for Active; 'I' for Inactive)
REMARK    1  A    between atoms: C_2  and  C_3
REMARK    2  A    between atoms: C_3  and  O_4
REMARK    3  A    between atoms: O_4  and  C_5
REMARK    4  A    between atoms: C_8  and  C_11
REMARK    5  A    between atoms: C_11  and  C_13
REMARK                            x       y       z     vdW  Elec       q    Type
REMARK                         _______ _______ _______ _____ _____    ______ ____
ROOT
ATOM      1  C   UNL     1       5.897  -6.119   2.365  0.00  0.00    +0.099 C 
ATOM      2  C   UNL     1       5.373  -7.415   1.699  0.00  0.00    +0.070 C 
ATOM      3  C   UNL     1       3.869  -7.557   1.984  0.00  0.00    +0.021 C 
ATOM      4  C   UNL     1       3.771  -8.354   3.300  0.00  0.00    +0.017 C 
ATOM      5  C   UNL     1       5.230  -8.603   3.730  0.00  0.00    +0.086 C 
ATOM      6  N   UNL     1       6.041  -8.505   2.475  0.00  0.00    -0.281 NA
ATOM      7  C   UNL     1       7.393  -8.005   2.782  0.00  0.00    +0.145 C 
ATOM      8  C   UNL     1       7.345  -6.479   2.738  0.00  0.00    +0.116 C 
ATOM      9  C   UNL     1       8.317  -5.913   1.742  0.00  0.00    -0.008 A 
ATOM     10  C   UNL     1       8.488  -6.080   0.385  0.00  0.00    +0.006 A 
ATOM     11  C   UNL     1       9.499  -5.404  -0.273  0.00  0.00    +0.000 A 
ATOM     12  C   UNL     1      10.338  -4.562   0.434  0.00  0.00    +0.002 A 
ATOM     13  C   UNL     1      10.171  -4.392   1.792  0.00  0.00    +0.023 A 
ATOM     14  C   UNL     1       9.154  -5.069   2.463  0.00  0.00    +0.038 A 
ATOM     15  N   UNL     1       8.788  -5.062   3.811  0.00  0.00    -0.284 N 
ATOM     16  C   UNL     1       7.734  -5.863   4.055  0.00  0.00    +0.231 C 
ATOM     17  O   UNL     1       7.201  -6.053   5.128  0.00  0.00    -0.274 OA
ATOM     18  C   UNL     1       7.858  -8.499   4.126  0.00  0.00    +0.004 A 
ATOM     19  C   UNL     1       7.378  -8.343   5.407  0.00  0.00    +0.008 A 
ATOM     20  C   UNL     1       8.039  -8.933   6.470  0.00  0.00    +0.000 A 
ATOM     21  C   UNL     1       9.181  -9.679   6.241  0.00  0.00    +0.002 A 
ATOM     22  C   UNL     1       9.665  -9.838   4.959  0.00  0.00    +0.023 A 
ATOM     23  C   UNL     1       9.006  -9.246   3.884  0.00  0.00    +0.039 A 
ATOM     24  N   UNL     1       9.295  -9.259   2.518  0.00  0.00    -0.283 N 
ATOM     25  C   UNL     1       8.399  -8.553   1.803  0.00  0.00    +0.244 C 
ATOM     26  O   UNL     1       8.402  -8.389   0.601  0.00  0.00    -0.273 OA
ATOM     27  H   UNL     1       9.241  -4.540   4.492  0.00  0.00    +0.155 HD
ATOM     28  H   UNL     1      10.053  -9.722   2.130  0.00  0.00    +0.155 HD
ENDROOT
BRANCH   1  29
ATOM     29  C   UNL     1       5.867  -4.969   1.391  0.00  0.00    +0.169 C 
ATOM     30  O   UNL     1       5.850  -5.186   0.198  0.00  0.00    -0.292 OA
BRANCH  29  34
ATOM     31  C   UNL     1       5.843  -0.982   2.820  0.00  0.00    +0.121 A 
ATOM     32  C   UNL     1       5.824  -1.228   1.451  0.00  0.00    +0.046 A 
ATOM     33  C   UNL     1       5.832  -2.517   0.983  0.00  0.00    +0.015 A 
ATOM     34  C   UNL     1       5.859  -3.587   1.886  0.00  0.00    +0.018 A 
ATOM     35  C   UNL     1       5.878  -3.334   3.264  0.00  0.00    +0.015 A 
ATOM     36  C   UNL     1       5.875  -2.041   3.721  0.00  0.00    +0.046 A 
BRANCH  31  37
ATOM     37  O   UNL     1       5.835   0.295   3.277  0.00  0.00    -0.488 OA
BRANCH  37  38
ATOM     38  C   UNL     1       5.801   1.335   2.298  0.00  0.00    +0.256 C 
BRANCH  38  40
ATOM     39  C   UNL     1       6.579   3.635   2.558  0.00  0.00    +0.007 C 
ATOM     40  C   UNL     1       5.798   2.675   2.988  0.00  0.00    +0.006 C 
ENDBRANCH  38  40
ENDBRANCH  37  38
ENDBRANCH  31  37
ENDBRANCH  29  34
ENDBRANCH   1  29
TORSDOF 5
