REMARK  Name = ZINC38701109
REMARK  11 active torsions:
REMARK  status: ('A' for Active; 'I' for Inactive)
REMARK    1  A    between atoms: C_1  and  O_2
REMARK    2  A    between atoms: O_2  and  C_3
REMARK    3  A    between atoms: C_6  and  C_10
REMARK    4  A    between atoms: C_10  and  O_12
REMARK    5  A    between atoms: O_12  and  C_13
REMARK    6  A    between atoms: C_20  and  N_36
REMARK    7  A    between atoms: C_21  and  C_34
REMARK    8  A    between atoms: C_22  and  C_24
REMARK    9  A    between atoms: C_28  and  O_30
REMARK   10  A    between atoms: O_30  and  C_31
REMARK   11  A    between atoms: C_31  and  C_32
REMARK                            x       y       z     vdW  Elec       q    Type
REMARK                         _______ _______ _______ _____ _____    ______ ____
ROOT
ATOM      1  C   UNL     1       3.199  -4.301  -5.525  0.00  0.00    +0.135 A 
ATOM      2  C   UNL     1       3.787  -3.413  -6.414  0.00  0.00    +0.047 A 
ATOM      3  C   UNL     1       4.457  -3.889  -7.524  0.00  0.00    +0.012 A 
ATOM      4  C   UNL     1       4.546  -5.251  -7.753  0.00  0.00    +0.008 A 
ATOM      5  C   UNL     1       3.961  -6.143  -6.868  0.00  0.00    +0.138 A 
ATOM      6  C   UNL     1       3.291  -5.665  -5.749  0.00  0.00    +0.093 A 
ATOM      7  O   UNL     1       4.037  -7.481  -7.076  0.00  0.00    -0.441 OA
ATOM      8  C   UNL     1       4.328  -7.953  -8.300  0.00  0.00    +0.199 C 
ATOM      9  C   UNL     1       4.918  -7.183  -9.244  0.00  0.00    +0.098 C 
ATOM     10  C   UNL     1       5.282  -5.751  -8.969  0.00  0.00    +0.098 C 
ENDROOT
BRANCH  10  11
ATOM     11  C   UNL     1       6.766  -5.649  -8.730  0.00  0.00    -0.031 A 
ATOM     12  C   UNL     1       7.347  -6.341  -7.684  0.00  0.00    +0.005 A 
ATOM     13  C   UNL     1       8.708  -6.250  -7.462  0.00  0.00    +0.004 A 
ATOM     14  C   UNL     1       9.492  -5.467  -8.287  0.00  0.00    +0.045 A 
ATOM     15  C   UNL     1       8.912  -4.771  -9.337  0.00  0.00    +0.121 A 
ATOM     16  C   UNL     1       7.546  -4.869  -9.561  0.00  0.00    +0.050 A 
BRANCH  15  17
ATOM     17  O   UNL     1       9.682  -4.000 -10.150  0.00  0.00    -0.488 OA
BRANCH  17  18
ATOM     18  C   UNL     1      11.081  -3.951  -9.864  0.00  0.00    +0.256 C 
BRANCH  18  19
ATOM     19  C   UNL     1      11.766  -3.053 -10.861  0.00  0.00    +0.006 C 
ATOM     20  C   UNL     1      12.648  -2.174 -10.454  0.00  0.00    +0.007 C 
ENDBRANCH  18  19
ENDBRANCH  17  18
ENDBRANCH  15  17
ENDBRANCH  10  11
BRANCH   8  21
ATOM     21  N   UNL     1       4.018  -9.256  -8.601  0.00  0.00    -0.328 N 
ATOM     22  H   UNL     1       3.595  -9.820  -7.936  0.00  0.00    +0.145 HD
ATOM     23  H   UNL     1       4.221  -9.612  -9.480  0.00  0.00    +0.145 HD
ENDBRANCH   8  21
BRANCH   9  24
ATOM     24  C   UNL     1       5.202  -7.744 -10.530  0.00  0.00    +0.101 C 
ATOM     25  N   UNL     1       5.428  -8.189 -11.551  0.00  0.00    -0.191 NA
ENDBRANCH   9  24
BRANCH   1  26
ATOM     26  O   UNL     1       2.539  -3.834  -4.433  0.00  0.00    -0.422 OA
BRANCH  26  27
ATOM     27  C   UNL     1       3.162  -3.903  -3.239  0.00  0.00    +0.344 C 
ATOM     28  O   UNL     1       4.242  -4.452  -3.148  0.00  0.00    -0.245 OA
BRANCH  27  32
ATOM     29  C   UNL     1       1.352  -2.198   0.203  0.00  0.00    +0.138 A 
ATOM     30  C   UNL     1       2.587  -2.827   0.308  0.00  0.00    +0.048 A 
ATOM     31  C   UNL     1       3.177  -3.381  -0.806  0.00  0.00    +0.018 A 
ATOM     32  C   UNL     1       2.532  -3.311  -2.044  0.00  0.00    +0.061 A 
ATOM     33  C   UNL     1       1.290  -2.678  -2.147  0.00  0.00    +0.038 A 
ATOM     34  C   UNL     1       0.704  -2.131  -1.026  0.00  0.00    +0.083 A 
ATOM     35 CL   UNL     1      -0.841  -1.350  -1.151  0.00  0.00    -0.080 Cl
BRANCH  29  37
ATOM     36  C   UNL     1       1.493  -1.758   2.533  0.00  0.00    +0.277 C 
ATOM     37  O   UNL     1       0.774  -1.653   1.303  0.00  0.00    -0.494 OA
ENDBRANCH  29  37
ENDBRANCH  27  32
ENDBRANCH  26  27
ENDBRANCH   1  26
TORSDOF 10
