REMARK  Name = ZINC39654239
REMARK  7 active torsions:
REMARK  status: ('A' for Active; 'I' for Inactive)
REMARK    1  A    between atoms: C_1  and  C_2
REMARK    2  A    between atoms: C_2  and  C_3
REMARK    3  A    between atoms: C_6  and  C_9
REMARK    4  A    between atoms: C_9  and  C_10
REMARK    5  A    between atoms: C_10  and  N_11
REMARK    6  A    between atoms: C_12  and  C_14
REMARK    7  A    between atoms: C_25  and  C_27
REMARK                            x       y       z     vdW  Elec       q    Type
REMARK                         _______ _______ _______ _____ _____    ______ ____
ROOT
ATOM      1  C   UNL     1       5.194  -0.669  -8.661  0.00  0.00    +0.100 C 
ATOM      2  C   UNL     1       6.541  -1.377  -8.393  0.00  0.00    +0.121 C 
ATOM      3  N   UNL     1       7.394  -1.006  -9.547  0.00  0.00    -0.296 N 
ATOM      4  C   UNL     1       7.066   0.416  -9.807  0.00  0.00    +0.115 C 
ATOM      5  C   UNL     1       5.542   0.507  -9.588  0.00  0.00    -0.004 C 
ATOM      6  C   UNL     1       5.184   1.831  -8.920  0.00  0.00    -0.010 C 
ATOM      7  C   UNL     1       5.485   2.982  -9.884  0.00  0.00    -0.082 C 
ATOM      8  N   UNL     1       4.708   2.806 -11.117  0.00  0.00    +0.379 N 
ATOM      9  C   UNL     1       5.125   1.576 -11.802  0.00  0.00    -0.082 C 
ATOM     10  C   UNL     1       4.809   0.366 -10.918  0.00  0.00    -0.010 C 
ATOM     11  C   UNL     1       8.270  -1.787 -10.210  0.00  0.00    +0.247 C 
ATOM     12  O   UNL     1       8.966  -1.311 -11.087  0.00  0.00    -0.270 OA
ATOM     13  H   UNL     1       3.727   2.746 -10.889  0.00  0.00    -0.086 HD
ATOM     14  H   UNL     1       4.861   3.596 -11.725  0.00  0.00    -0.086 HD
ENDROOT
BRANCH  11  15
ATOM     15  C   UNL     1       8.385  -3.220  -9.873  0.00  0.00    +0.045 A 
ATOM     16  C   UNL     1       8.547  -3.618  -8.541  0.00  0.00    +0.014 A 
ATOM     17  C   UNL     1       8.654  -4.954  -8.223  0.00  0.00    +0.001 A 
ATOM     18  C   UNL     1       8.604  -5.919  -9.217  0.00  0.00    +0.012 A 
ATOM     19  C   UNL     1       8.444  -5.545 -10.547  0.00  0.00    +0.031 A 
ATOM     20  C   UNL     1       8.328  -4.188 -10.884  0.00  0.00    +0.006 A 
ATOM     21  C   UNL     1       8.162  -4.075 -12.355  0.00  0.00    -0.006 A 
ATOM     22  C   UNL     1       8.011  -2.975 -13.189  0.00  0.00    +0.009 A 
ATOM     23  C   UNL     1       7.872  -3.155 -14.556  0.00  0.00    +0.001 A 
ATOM     24  C   UNL     1       7.881  -4.426 -15.099  0.00  0.00    +0.001 A 
ATOM     25  C   UNL     1       8.030  -5.534 -14.280  0.00  0.00    +0.012 A 
ATOM     26  C   UNL     1       8.171  -5.367 -12.909  0.00  0.00    +0.030 A 
ATOM     27  C   UNL     1       8.358  -6.333 -11.800  0.00  0.00    +0.194 C 
ATOM     28  O   UNL     1       8.415  -7.542 -11.897  0.00  0.00    -0.287 OA
ENDBRANCH  11  15
BRANCH   1  30
ATOM     29  N   UNL     1       3.278   0.075  -7.285  0.00  0.00    -0.315 N 
ATOM     30  C   UNL     1       4.601  -0.163  -7.371  0.00  0.00    +0.218 C 
ATOM     31  O   UNL     1       5.316   0.031  -6.410  0.00  0.00    -0.275 OA
ATOM     32  H   UNL     1       2.706  -0.080  -8.053  0.00  0.00    +0.149 HD
BRANCH  29  33
ATOM     33  C   UNL     1       2.702   0.567  -6.031  0.00  0.00    +0.109 C 
BRANCH  33  34
ATOM     34  C   UNL     1       1.193   0.753  -6.201  0.00  0.00    +0.054 C 
BRANCH  34  38
ATOM     35  C   UNL     1      -0.488   2.189  -2.546  0.00  0.00    -0.048 A 
ATOM     36  C   UNL     1      -0.036   3.084  -3.497  0.00  0.00    +0.004 A 
ATOM     37  C   UNL     1       0.508   2.619  -4.680  0.00  0.00    +0.004 A 
ATOM     38  C   UNL     1       0.601   1.259  -4.911  0.00  0.00    -0.046 A 
ATOM     39  C   UNL     1       0.149   0.364  -3.959  0.00  0.00    +0.004 A 
ATOM     40  C   UNL     1      -0.391   0.829  -2.775  0.00  0.00    +0.004 A 
BRANCH  35  42
ATOM     41  C   UNL     1       0.027   2.859  -0.214  0.00  0.00    +0.009 C 
ATOM     42  C   UNL     1      -1.081   2.696  -1.256  0.00  0.00    +0.032 C 
ENDBRANCH  35  42
ENDBRANCH  34  38
ENDBRANCH  33  34
ENDBRANCH  29  33
ENDBRANCH   1  30
TORSDOF 6
