REMARK  Name = ZINC39685195
REMARK  7 active torsions:
REMARK  status: ('A' for Active; 'I' for Inactive)
REMARK    1  A    between atoms: C_5  and  O_7
REMARK    2  A    between atoms: O_7  and  C_8
REMARK    3  A    between atoms: C_8  and  C_9
REMARK    4  A    between atoms: C_9  and  N_10
REMARK    5  A    between atoms: C_11  and  C_13
REMARK    6  A    between atoms: C_24  and  C_26
REMARK    7  A    between atoms: C_29  and  C_31
REMARK                            x       y       z     vdW  Elec       q    Type
REMARK                         _______ _______ _______ _____ _____    ______ ____
ROOT
ATOM      1  C   UNL     1       1.834  -6.340   2.711  0.00  0.00    +0.100 C 
ATOM      2  C   UNL     1       3.277  -5.790   2.756  0.00  0.00    +0.121 C 
ATOM      3  N   UNL     1       4.069  -6.867   3.396  0.00  0.00    -0.294 N 
ATOM      4  C   UNL     1       3.511  -8.120   2.831  0.00  0.00    +0.115 C 
ATOM      5  C   UNL     1       1.992  -7.869   2.760  0.00  0.00    -0.004 C 
ATOM      6  C   UNL     1       1.305  -8.431   4.001  0.00  0.00    -0.010 C 
ATOM      7  C   UNL     1       1.427  -9.958   3.998  0.00  0.00    -0.082 C 
ATOM      8  N   UNL     1       0.805 -10.497   2.783  0.00  0.00    +0.379 N 
ATOM      9  C   UNL     1       1.529 -10.025   1.597  0.00  0.00    -0.082 C 
ATOM     10  C   UNL     1       1.412  -8.501   1.498  0.00  0.00    -0.010 C 
ATOM     11  C   UNL     1       5.069  -6.738   4.290  0.00  0.00    +0.282 C 
ATOM     12  O   UNL     1       5.626  -7.728   4.728  0.00  0.00    -0.267 OA
ATOM     13  H   UNL     1       0.832 -11.506   2.812  0.00  0.00    -0.086 HD
ATOM     14  H   UNL     1      -0.155 -10.191   2.733  0.00  0.00    -0.086 HD
ENDROOT
BRANCH  11  15
ATOM     15  C   UNL     1       5.485  -5.406   4.736  0.00  0.00    +0.190 A 
ATOM     16  C   UNL     1       6.491  -5.132   5.636  0.00  0.00    +0.055 A 
ATOM     17  C   UNL     1       6.546  -3.741   5.768  0.00  0.00    +0.050 A 
ATOM     18  C   UNL     1       5.583  -3.221   4.952  0.00  0.00    +0.136 A 
ATOM     19  O   UNL     1       4.954  -4.233   4.331  0.00  0.00    -0.450 OA
BRANCH  18  20
ATOM     20  C   UNL     1       5.285  -1.786   4.777  0.00  0.00    +0.017 A 
ATOM     21  C   UNL     1       6.023  -0.827   5.476  0.00  0.00    +0.014 A 
ATOM     22  C   UNL     1       5.741   0.512   5.308  0.00  0.00    +0.039 A 
ATOM     23  C   UNL     1       4.728   0.908   4.448  0.00  0.00    +0.123 A 
ATOM     24  C   UNL     1       3.992  -0.039   3.753  0.00  0.00    +0.039 A 
ATOM     25  C   UNL     1       4.269  -1.381   3.909  0.00  0.00    +0.014 A 
ATOM     26  F   UNL     1       4.456   2.222   4.288  0.00  0.00    -0.205 F 
ENDBRANCH  18  20
ENDBRANCH  11  15
BRANCH   1  28
ATOM     27  N   UNL     1      -0.185  -5.768   1.401  0.00  0.00    -0.312 N 
ATOM     28  C   UNL     1       1.154  -5.923   1.432  0.00  0.00    +0.218 C 
ATOM     29  O   UNL     1       1.810  -5.727   0.431  0.00  0.00    -0.275 OA
ATOM     30  H   UNL     1      -0.710  -5.925   2.201  0.00  0.00    +0.149 HD
BRANCH  27  31
ATOM     31  C   UNL     1      -0.846  -5.363   0.158  0.00  0.00    +0.145 C 
BRANCH  31  32
ATOM     32  C   UNL     1      -2.355  -5.261   0.393  0.00  0.00    +0.248 C 
BRANCH  32  33
ATOM     33  O   UNL     1      -2.622  -4.209   1.323  0.00  0.00    -0.488 OA
BRANCH  33  38
ATOM     34  C   UNL     1      -6.245  -4.528   1.400  0.00  0.00    +0.004 A 
ATOM     35  C   UNL     1      -6.574  -3.526   2.295  0.00  0.00    +0.003 A 
ATOM     36  C   UNL     1      -5.581  -2.752   2.865  0.00  0.00    +0.042 A 
ATOM     37  C   UNL     1      -4.255  -2.978   2.541  0.00  0.00    +0.165 A 
ATOM     38  C   UNL     1      -3.924  -3.984   1.643  0.00  0.00    +0.156 A 
ATOM     39  C   UNL     1      -4.923  -4.759   1.074  0.00  0.00    +0.048 A 
ATOM     40  F   UNL     1      -3.285  -2.220   3.097  0.00  0.00    -0.202 F 
ENDBRANCH  33  38
ENDBRANCH  32  33
ENDBRANCH  31  32
ENDBRANCH  27  31
ENDBRANCH   1  28
TORSDOF 7
