REMARK  Name = ZINC16938501
REMARK  8 active torsions:
REMARK  status: ('A' for Active; 'I' for Inactive)
REMARK    1  A    between atoms: C_1  and  C_2
REMARK    2  A    between atoms: C_2  and  C_4
REMARK    3  A    between atoms: C_2  and  S_15
REMARK    4  A    between atoms: N_6  and  C_7
REMARK    5  A    between atoms: S_15  and  C_16
REMARK    6  A    between atoms: C_19  and  C_28
REMARK    7  A    between atoms: N_20  and  C_21
REMARK    8  A    between atoms: C_28  and  N_57
REMARK                            x       y       z     vdW  Elec       q    Type
REMARK                         _______ _______ _______ _____ _____    ______ ____
ROOT
ATOM      1  C   UNL     1       3.911   2.129  -0.719  0.00  0.00    +0.197 A 
ATOM      2  N   UNL     1       3.862   3.369  -0.290  0.00  0.00    -0.122 NA
ATOM      3  N   UNL     1       5.007   3.931  -0.446  0.00  0.00    -0.135 NA
ATOM      4  C   UNL     1       5.850   3.092  -0.979  0.00  0.00    +0.122 A 
ATOM      5  N   UNL     1       5.184   1.911  -1.168  0.00  0.00    -0.276 N 
ENDROOT
BRANCH   5   6
ATOM      6  C   UNL     1       5.700   0.724  -1.712  0.00  0.00    +0.050 A 
ATOM      7  C   UNL     1       6.706   0.036  -1.048  0.00  0.00    +0.029 A 
ATOM      8  C   UNL     1       7.209  -1.134  -1.582  0.00  0.00    +0.040 A 
ATOM      9  C   UNL     1       6.718  -1.615  -2.785  0.00  0.00    +0.124 A 
ATOM     10  C   UNL     1       5.719  -0.926  -3.451  0.00  0.00    +0.040 A 
ATOM     11  C   UNL     1       5.209   0.241  -2.917  0.00  0.00    +0.029 A 
ATOM     12  F   UNL     1       7.216  -2.756  -3.308  0.00  0.00    -0.205 F 
ENDBRANCH   5   6
BRANCH   1  13
ATOM     13  S   UNL     1       2.589   0.964  -0.711  0.00  0.00    -0.073 S 
BRANCH  13  15
ATOM     14  C   UNL     1       1.657   2.336   1.460  0.00  0.00    +0.029 C 
ATOM     15  C   UNL     1       1.280   1.979   0.020  0.00  0.00    +0.137 C 
BRANCH  15  16
ATOM     16  C   UNL     1      -0.015   1.208   0.016  0.00  0.00    +0.230 C 
ATOM     17  O   UNL     1       0.001  -0.005   0.006  0.00  0.00    -0.274 OA
ATOM     18  N   UNL     1      -1.191   1.867   0.018  0.00  0.00    -0.282 N 
ATOM     19  H   UNL     1      -1.205   2.834   0.091  0.00  0.00    +0.155 HD
BRANCH  18  20
ATOM     20  C   UNL     1      -2.393   1.154  -0.086  0.00  0.00    +0.069 A 
ATOM     21  C   UNL     1      -2.511  -0.099   0.499  0.00  0.00    +0.029 A 
ATOM     22  C   UNL     1      -3.697  -0.800   0.395  0.00  0.00    +0.040 A 
ATOM     23  C   UNL     1      -4.768  -0.254  -0.291  0.00  0.00    +0.126 A 
ATOM     24  C   UNL     1      -4.654   0.996  -0.877  0.00  0.00    +0.078 A 
ATOM     25  C   UNL     1      -3.471   1.704  -0.770  0.00  0.00    +0.147 A 
ATOM     26  F   UNL     1      -3.361   2.926  -1.336  0.00  0.00    -0.203 F 
ATOM     27  F   UNL     1      -5.927  -0.942  -0.391  0.00  0.00    -0.205 F 
ENDBRANCH  18  20
ENDBRANCH  15  16
ENDBRANCH  13  15
ENDBRANCH   1  13
BRANCH   4  28
ATOM     28  C   UNL     1       7.292   3.370  -1.319  0.00  0.00    -0.001 C 
BRANCH  28  34
ATOM     29  C   UNL     1       7.863   3.933   0.965  0.00  0.00    -0.078 C 
ATOM     30  C   UNL     1       8.655   3.469   2.190  0.00  0.00    -0.019 C 
ATOM     31  C   UNL     1      10.150   3.480   1.859  0.00  0.00    -0.004 C 
ATOM     32  C   UNL     1      10.403   2.578   0.648  0.00  0.00    -0.019 C 
ATOM     33  C   UNL     1       9.561   3.068  -0.532  0.00  0.00    -0.078 C 
ATOM     34  N   UNL     1       8.132   3.010  -0.158  0.00  0.00    +0.384 N 
ATOM     35  H   UNL     1       7.903   2.053   0.135  0.00  0.00    -0.081 HD
ENDBRANCH  28  34
ENDBRANCH   4  28
TORSDOF 7
