REMARK  Name = ZINC40569576
REMARK  8 active torsions:
REMARK  status: ('A' for Active; 'I' for Inactive)
REMARK    1  A    between atoms: C_1  and  C_2
REMARK    2  A    between atoms: C_2  and  C_3
REMARK    3  A    between atoms: C_3  and  C_4
REMARK    4  A    between atoms: C_12  and  C_22
REMARK    5  A    between atoms: C_14  and  C_18
REMARK    6  A    between atoms: C_15  and  N_17
REMARK    7  A    between atoms: C_18  and  O_20
REMARK    8  A    between atoms: O_20  and  C_21
REMARK                            x       y       z     vdW  Elec       q    Type
REMARK                         _______ _______ _______ _____ _____    ______ ____
ROOT
ATOM      1  C   UNL     1      -1.393  -2.094  -0.146  0.00  0.00    +0.023 A 
ATOM      2  C   UNL     1      -1.429  -2.716   1.052  0.00  0.00    +0.068 A 
ATOM      3  C   UNL     1      -1.447  -4.125   1.110  0.00  0.00    +0.141 A 
ATOM      4  C   UNL     1      -1.425  -4.842  -0.067  0.00  0.00    +0.071 A 
ATOM      5  C   UNL     1      -1.387  -4.154  -1.287  0.00  0.00    +0.257 A 
ATOM      6  O   UNL     1      -1.367  -4.776  -2.338  0.00  0.00    -0.267 OA
ATOM      7  N   UNL     1      -1.377  -2.808  -1.302  0.00  0.00    -0.326 N 
ATOM      8  H   UNL     1      -1.354  -2.340  -2.152  0.00  0.00    +0.169 HD
ATOM      9  C   UNL     1      -1.444  -6.346  -0.053  0.00  0.00    +0.101 C 
ATOM     10  C   UNL     1      -1.087  -6.855   1.316  0.00  0.00    +0.105 C 
ATOM     11  C   UNL     1      -1.127  -6.040   2.401  0.00  0.00    +0.195 C 
ATOM     12  O   UNL     1      -1.484  -4.749   2.307  0.00  0.00    -0.441 OA
ENDROOT
BRANCH   9  13
ATOM     13  C   UNL     1      -2.822  -6.832  -0.419  0.00  0.00    -0.017 A 
ATOM     14  C   UNL     1      -3.911  -6.471   0.352  0.00  0.00    +0.007 A 
ATOM     15  C   UNL     1      -5.175  -6.916   0.017  0.00  0.00    +0.020 A 
ATOM     16  C   UNL     1      -5.352  -7.724  -1.093  0.00  0.00    +0.042 A 
ATOM     17  C   UNL     1      -4.264  -8.085  -1.866  0.00  0.00    +0.040 A 
ATOM     18  C   UNL     1      -2.999  -7.635  -1.532  0.00  0.00    +0.046 A 
ATOM     19 CL   UNL     1      -1.633  -8.084  -2.505  0.00  0.00    -0.083 Cl
ATOM     20 CL   UNL     1      -6.941  -8.284  -1.514  0.00  0.00    -0.083 Cl
ENDBRANCH   9  13
BRANCH  11  21
ATOM     21  N   UNL     1      -0.794  -6.550   3.628  0.00  0.00    -0.329 N 
ATOM     22  H   UNL     1      -0.446  -7.453   3.700  0.00  0.00    +0.145 HD
ATOM     23  H   UNL     1      -0.906  -6.008   4.425  0.00  0.00    +0.145 HD
ENDBRANCH  11  21
BRANCH  10  24
ATOM     24  C   UNL     1      -0.706  -8.195   1.475  0.00  0.00    +0.341 C 
ATOM     25  O   UNL     1       0.420  -8.549   1.174  0.00  0.00    -0.245 OA
BRANCH  24  26
ATOM     26  O   UNL     1      -1.588  -9.095   1.962  0.00  0.00    -0.465 OA
ATOM     27  C   UNL     1      -1.133 -10.443   2.097  0.00  0.00    +0.280 C 
ENDBRANCH  24  26
ENDBRANCH  10  24
BRANCH   1  28
ATOM     28  C   UNL     1      -1.375  -0.589  -0.202  0.00  0.00    +0.053 C 
BRANCH  28  30
ATOM     29  C   UNL     1       0.088   1.429  -0.373  0.00  0.00    +0.004 C 
ATOM     30  C   UNL     1       0.070  -0.100  -0.317  0.00  0.00    +0.003 C 
ENDBRANCH  28  30
ENDBRANCH   1  28
TORSDOF 6
