REMARK  Name = ZINC04854563
REMARK  4 active torsions:
REMARK  status: ('A' for Active; 'I' for Inactive)
REMARK    1  A    between atoms: C_1  and  C_2
REMARK    2  A    between atoms: C_19  and  C_30
REMARK    3  A    between atoms: C_23  and  C_27
REMARK    4  A    between atoms: C_24  and  N_26
REMARK                            x       y       z     vdW  Elec       q    Type
REMARK                         _______ _______ _______ _____ _____    ______ ____
ROOT
ATOM      1  C   UNL     1       2.988  -0.843  -0.730  0.00  0.00    +0.019 C 
ATOM      2  C   UNL     1       2.014   0.031  -1.522  0.00  0.00    +0.029 C 
ATOM      3  C   UNL     1       0.598  -0.475  -1.317  0.00  0.00    +0.015 C 
ATOM      4  C   UNL     1       0.002  -0.004   0.002  0.00  0.00    +0.005 C 
ATOM      5  C   UNL     1      -0.019   1.528   0.010  0.00  0.00    -0.001 C 
ATOM      6  C   UNL     1       1.417   2.033  -0.001  0.00  0.00    -0.003 C 
ATOM      7  C   UNL     1       2.227   1.488  -1.155  0.00  0.00    +0.006 C 
ATOM      8  C   UNL     1       2.026   2.260  -2.479  0.00  0.00    +0.012 C 
ATOM      9  C   UNL     1       2.694   1.303  -3.501  0.00  0.00    +0.075 C 
ATOM     10  C   UNL     1       2.338  -0.065  -3.008  0.00  0.00    +0.139 C 
ATOM     11  O   UNL     1       2.323  -1.067  -3.682  0.00  0.00    -0.297 OA
ATOM     12  C   UNL     1       1.414   3.564  -0.034  0.00  0.00    +0.004 C 
ATOM     13  C   UNL     1       0.641   4.100   1.167  0.00  0.00    +0.005 C 
ATOM     14  C   UNL     1       0.176   2.950   2.066  0.00  0.00    -0.000 C 
ATOM     15  C   UNL     1      -0.738   2.011   1.275  0.00  0.00    -0.021 C 
ATOM     16  C   UNL     1      -1.046   0.772   2.136  0.00  0.00    +0.050 C 
ATOM     17  C   UNL     1      -1.437   1.220   3.507  0.00  0.00    -0.003 A 
ATOM     18  C   UNL     1      -1.256   2.446   4.044  0.00  0.00    -0.018 A 
ATOM     19  C   UNL     1      -1.735   2.603   5.407  0.00  0.00    +0.083 A 
ATOM     20  C   UNL     1      -2.322   1.499   6.011  0.00  0.00    +0.081 A 
ATOM     21  S   UNL     1      -2.233   0.282   4.781  0.00  0.00    -0.077 S 
ATOM     22  C   UNL     1      -0.596   3.559   3.244  0.00  0.00    +0.041 C 
ATOM     23  C   UNL     1      -2.031   2.736   0.896  0.00  0.00    +0.012 C 
ENDROOT
BRANCH  20  24
ATOM     24  N   UNL     1      -2.851   1.396   7.286  0.00  0.00    -0.352 N 
ATOM     25  H   UNL     1      -3.236   0.558   7.585  0.00  0.00    +0.143 HD
ATOM     26  H   UNL     1      -2.838   2.163   7.880  0.00  0.00    +0.143 HD
ENDBRANCH  20  24
BRANCH  19  27
ATOM     27  C   UNL     1      -1.607   3.848   6.101  0.00  0.00    +0.102 C 
ATOM     28  N   UNL     1      -1.505   4.837   6.652  0.00  0.00    -0.191 NA
ENDBRANCH  19  27
TORSDOF 2
