REMARK  Name = ZINC14950849
REMARK  11 active torsions:
REMARK  status: ('A' for Active; 'I' for Inactive)
REMARK    1  A    between atoms: C_1  and  O_2
REMARK    2  A    between atoms: O_2  and  C_3
REMARK    3  A    between atoms: C_5  and  C_13
REMARK    4  A    between atoms: C_6  and  O_11
REMARK    5  A    between atoms: C_8  and  O_9
REMARK    6  A    between atoms: O_9  and  C_10
REMARK    7  A    between atoms: O_11  and  C_12
REMARK    8  A    between atoms: C_13  and  N_67
REMARK    9  A    between atoms: C_20  and  C_24
REMARK   10  A    between atoms: C_24  and  C_26
REMARK   11  A    between atoms: C_24  and  O_32
REMARK                            x       y       z     vdW  Elec       q    Type
REMARK                         _______ _______ _______ _____ _____    ______ ____
ROOT
ATOM      1  C   UNL     1      -5.535  -1.476   3.744  0.00  0.00    -0.036 C 
ATOM      2  C   UNL     1      -5.234  -2.883   4.213  0.00  0.00    +0.210 C 
ATOM      3  O   UNL     1      -6.441  -3.646   4.333  0.00  0.00    -0.494 OA
ATOM      4  C   UNL     1      -6.870  -4.240   3.187  0.00  0.00    +0.122 A 
ATOM      5  C   UNL     1      -6.818  -5.621   3.056  0.00  0.00    +0.046 A 
ATOM      6  C   UNL     1      -7.235  -6.214   1.879  0.00  0.00    +0.010 A 
ATOM      7  C   UNL     1      -7.700  -5.437   0.835  0.00  0.00    -0.018 A 
ATOM      8  C   UNL     1      -7.760  -4.060   0.967  0.00  0.00    +0.011 A 
ATOM      9  C   UNL     1      -7.353  -3.470   2.145  0.00  0.00    -0.022 A 
ATOM     10  C   UNL     1      -7.447  -1.966   2.318  0.00  0.00    -0.039 C 
ATOM     11  N   UNL     1      -6.066  -1.428   2.366  0.00  0.00    +0.387 N 
ATOM     12  H   UNL     1      -5.467  -2.004   1.762  0.00  0.00    -0.081 HD
ENDROOT
BRANCH  11  13
ATOM     13  C   UNL     1      -6.049  -0.042   1.871  0.00  0.00    -0.039 C 
BRANCH  13  16
ATOM     14  C   UNL     1      -2.686   1.571   2.473  0.00  0.00    +0.162 A 
ATOM     15  C   UNL     1      -4.006   1.184   2.636  0.00  0.00    +0.054 A 
ATOM     16  C   UNL     1      -4.614   0.383   1.688  0.00  0.00    -0.019 A 
ATOM     17  C   UNL     1      -3.907  -0.030   0.569  0.00  0.00    +0.125 A 
ATOM     18  C   UNL     1      -2.587   0.360   0.399  0.00  0.00    +0.095 A 
ATOM     19  C   UNL     1      -1.976   1.163   1.348  0.00  0.00    +0.165 A 
BRANCH  14  21
ATOM     20  C   UNL     1      -2.874   2.735   4.539  0.00  0.00    +0.277 C 
ATOM     21  O   UNL     1      -2.085   2.354   3.410  0.00  0.00    -0.491 OA
ENDBRANCH  14  21
BRANCH  19  22
ATOM     22  O   UNL     1      -0.682   1.547   1.184  0.00  0.00    -0.491 OA
ATOM     23  C   UNL     1      -0.013   1.086   0.008  0.00  0.00    +0.277 C 
ENDBRANCH  19  22
BRANCH  17  24
ATOM     24  O   UNL     1      -4.508  -0.817  -0.363  0.00  0.00    -0.495 OA
ATOM     25  C   UNL     1      -3.721  -1.204  -1.491  0.00  0.00    +0.277 C 
ENDBRANCH  17  24
ENDBRANCH  13  16
ENDBRANCH  11  13
BRANCH   7  26
ATOM     26  C   UNL     1      -8.143  -6.090  -0.450  0.00  0.00    +0.148 C 
BRANCH  26  27
ATOM     27  C   UNL     1      -6.917  -6.430  -1.298  0.00  0.00    +0.022 C 
ATOM     28  C   UNL     1      -6.146  -5.147  -1.618  0.00  0.00    +0.006 C 
ATOM     29  C   UNL     1      -4.919  -5.487  -2.466  0.00  0.00    +0.000 C 
ATOM     30  C   UNL     1      -5.369  -6.150  -3.770  0.00  0.00    +0.000 C 
ATOM     31  C   UNL     1      -6.140  -7.432  -3.451  0.00  0.00    +0.000 C 
ATOM     32  C   UNL     1      -7.366  -7.092  -2.602  0.00  0.00    +0.006 C 
ENDBRANCH  26  27
BRANCH  26  33
ATOM     33  O   UNL     1      -8.863  -7.287  -0.151  0.00  0.00    -0.387 OA
ATOM     34  H   UNL     1      -8.349  -7.943   0.340  0.00  0.00    +0.210 HD
ENDBRANCH  26  33
ENDBRANCH   7  26
TORSDOF 8
