REMARK  Name = ZINC01203741
REMARK  9 active torsions:
REMARK  status: ('A' for Active; 'I' for Inactive)
REMARK    1  A    between atoms: C_1  and  C_2
REMARK    2  A    between atoms: C_3  and  C_25
REMARK    3  A    between atoms: C_4  and  C_16
REMARK    4  A    between atoms: C_10  and  C_14
REMARK    5  A    between atoms: C_10  and  C_15
REMARK    6  A    between atoms: C_20  and  N_22
REMARK    7  A    between atoms: C_25  and  O_27
REMARK    8  A    between atoms: O_27  and  C_28
REMARK    9  A    between atoms: C_28  and  C_29
REMARK                            x       y       z     vdW  Elec       q    Type
REMARK                         _______ _______ _______ _____ _____    ______ ____
ROOT
ATOM      1  C   UNL     1      -2.631   6.943   3.639  0.00  0.00    +0.061 C 
ATOM      2  C   UNL     1      -2.316   5.470   3.688  0.00  0.00    +0.016 C 
ATOM      3  C   UNL     1      -2.293   4.831   4.871  0.00  0.00    +0.065 C 
ATOM      4  C   UNL     1      -1.992   3.364   4.958  0.00  0.00    +0.092 C 
ATOM      5  C   UNL     1      -1.330   2.872   3.696  0.00  0.00    +0.024 C 
ATOM      6  C   UNL     1      -1.391   3.595   2.558  0.00  0.00    +0.016 C 
ATOM      7  N   UNL     1      -2.054   4.793   2.530  0.00  0.00    -0.321 N 
ATOM      8  C   UNL     1      -0.730   3.109   1.292  0.00  0.00    +0.058 C 
ATOM      9  C   UNL     1      -0.729   1.579   1.267  0.00  0.00    -0.023 C 
ATOM     10  C   UNL     1       0.009   1.074   2.511  0.00  0.00    +0.086 C 
ATOM     11  C   UNL     1      -0.653   1.640   3.737  0.00  0.00    +0.162 C 
ATOM     12  O   UNL     1      -0.602   1.022   4.782  0.00  0.00    -0.292 OA
ATOM     13  C   UNL     1      -0.013   1.086   0.008  0.00  0.00    +0.011 C 
ATOM     14  C   UNL     1      -2.168   1.060   1.276  0.00  0.00    +0.011 C 
ATOM     15  H   UNL     1      -2.377   5.209   1.565  0.00  0.00    +0.152 HD
ENDROOT
BRANCH   4  16
ATOM     16  C   UNL     1      -3.278   2.607   5.170  0.00  0.00    -0.033 A 
ATOM     17  C   UNL     1      -4.279   2.664   4.218  0.00  0.00    +0.005 A 
ATOM     18  C   UNL     1      -5.458   1.970   4.412  0.00  0.00    +0.003 A 
ATOM     19  C   UNL     1      -5.636   1.217   5.558  0.00  0.00    +0.033 A 
ATOM     20  C   UNL     1      -4.635   1.159   6.510  0.00  0.00    +0.126 A 
ATOM     21  C   UNL     1      -3.454   1.851   6.313  0.00  0.00    +0.037 A 
BRANCH  20  22
ATOM     22  N   UNL     1      -4.826   0.353   7.737  0.00  0.00    +0.056 N 
ATOM     23  O   UNL     1      -5.865  -0.258   7.908  0.00  0.00    -0.126 OA
ATOM     24  O   UNL     1      -3.944   0.302   8.575  0.00  0.00    -0.126 OA
ENDBRANCH  20  22
ENDBRANCH   4  16
BRANCH   3  25
ATOM     25  C   UNL     1      -2.559   5.556   6.056  0.00  0.00    +0.338 C 
ATOM     26  O   UNL     1      -2.805   6.747   5.999  0.00  0.00    -0.245 OA
BRANCH  25  27
ATOM     27  O   UNL     1      -2.540   4.928   7.250  0.00  0.00    -0.459 OA
BRANCH  27  28
ATOM     28  C   UNL     1      -2.818   5.722   8.405  0.00  0.00    +0.264 C 
BRANCH  28  29
ATOM     29  C   UNL     1      -2.751   4.843   9.656  0.00  0.00    +0.156 C 
ATOM     30  C   UNL     1      -3.170   5.651  10.904  0.00  0.00    +0.037 C 
ATOM     31  C   UNL     1      -2.235   5.131  12.019  0.00  0.00    +0.031 C 
ATOM     32  C   UNL     1      -1.361   4.071  11.312  0.00  0.00    +0.160 C 
ATOM     33  O   UNL     1      -1.389   4.441   9.917  0.00  0.00    -0.373 OA
ENDBRANCH  28  29
ENDBRANCH  27  28
ENDBRANCH  25  27
ENDBRANCH   3  25
TORSDOF 6
