REMARK  Name = ZINC01311935
REMARK  6 active torsions:
REMARK  status: ('A' for Active; 'I' for Inactive)
REMARK    1  A    between atoms: C_3  and  C_6
REMARK    2  A    between atoms: C_6  and  N_7
REMARK    3  A    between atoms: C_16  and  C_27
REMARK    4  A    between atoms: C_16  and  C_31
REMARK    5  A    between atoms: C_17  and  C_19
REMARK    6  A    between atoms: C_22  and  C_25
REMARK                            x       y       z     vdW  Elec       q    Type
REMARK                         _______ _______ _______ _____ _____    ______ ____
ROOT
ATOM      1  N   UNL     1      -2.386  -2.091  -0.904  0.00  0.00    -0.274 N 
ATOM      2  C   UNL     1      -1.163  -1.670  -0.446  0.00  0.00    +0.120 A 
ATOM      3  C   UNL     1      -0.088  -2.506  -0.522  0.00  0.00    +0.098 A 
ATOM      4  C   UNL     1      -0.258  -3.785  -1.081  0.00  0.00    +0.262 A 
ATOM      5  O   UNL     1       0.688  -4.549  -1.165  0.00  0.00    -0.267 OA
ATOM      6  N   UNL     1      -1.475  -4.159  -1.522  0.00  0.00    -0.275 N 
ATOM      7  H   UNL     1      -1.599  -5.069  -1.919  0.00  0.00    +0.173 HD
ATOM      8  C   UNL     1      -2.525  -3.322  -1.433  0.00  0.00    +0.331 A 
ATOM      9  O   UNL     1      -3.614  -3.683  -1.835  0.00  0.00    -0.246 OA
ATOM     10  C   UNL     1       1.257  -2.073  -0.014  0.00  0.00    +0.264 C 
ATOM     11  C   UNL     1       0.257   0.118   0.224  0.00  0.00    +0.106 C 
ATOM     12  N   UNL     1      -1.010  -0.414   0.089  0.00  0.00    -0.286 N 
ATOM     13  H   UNL     1      -1.786   0.096   0.371  0.00  0.00    +0.155 HD
ATOM     14  N   UNL     1       1.393  -0.586   0.178  0.00  0.00    -0.348 N 
ATOM     15  H   UNL     1       2.311  -0.135   0.270  0.00  0.00    +0.162 HD
ENDROOT
BRANCH  11  16
ATOM     16  C   UNL     1       0.412   1.576   0.427  0.00  0.00    +0.013 A 
ATOM     17  C   UNL     1      -0.716   2.397   0.475  0.00  0.00    +0.012 A 
ATOM     18  C   UNL     1      -0.573   3.753   0.669  0.00  0.00    +0.019 A 
ATOM     19  C   UNL     1       0.702   4.308   0.807  0.00  0.00    +0.052 A 
ATOM     20  C   UNL     1       1.830   3.486   0.753  0.00  0.00    +0.019 A 
ATOM     21  C   UNL     1       1.685   2.130   0.564  0.00  0.00    +0.012 A 
BRANCH  19  22
ATOM     22  C   UNL     1       0.851   5.719   1.002  0.00  0.00    +0.099 C 
ATOM     23  N   UNL     1       0.970   6.838   1.157  0.00  0.00    -0.191 NA
ENDBRANCH  19  22
ENDBRANCH  11  16
BRANCH  10  24
ATOM     24  C   UNL     1       1.533  -2.763   1.323  0.00  0.00    +0.426 C 
ATOM     25  F   UNL     1       1.523  -4.151   1.143  0.00  0.00    -0.167 F 
ATOM     26  F   UNL     1       2.785  -2.365   1.804  0.00  0.00    -0.167 F 
ATOM     27  F   UNL     1       0.544  -2.406   2.246  0.00  0.00    -0.167 F 
ENDBRANCH  10  24
BRANCH  10  28
ATOM     28  C   UNL     1       2.331  -2.486  -1.022  0.00  0.00    +0.426 C 
ATOM     29  F   UNL     1       1.897  -2.180  -2.317  0.00  0.00    -0.167 F 
ATOM     30  F   UNL     1       3.516  -1.794  -0.751  0.00  0.00    -0.167 F 
ATOM     31  F   UNL     1       2.561  -3.862  -0.920  0.00  0.00    -0.167 F 
ENDBRANCH  10  28
BRANCH   1  32
ATOM     32  C   UNL     1      -3.545  -1.199  -0.818  0.00  0.00    +0.202 C 
BRANCH  32  35
ATOM     33  C   UNL     1      -4.132   0.341  -4.115  0.00  0.00    +0.041 A 
ATOM     34  C   UNL     1      -4.308  -0.715  -3.192  0.00  0.00    +0.046 A 
ATOM     35  C   UNL     1      -3.639  -0.375  -2.077  0.00  0.00    +0.125 A 
ATOM     36  O   UNL     1      -3.062   0.822  -2.276  0.00  0.00    -0.466 OA
ATOM     37  C   UNL     1      -3.358   1.261  -3.510  0.00  0.00    +0.195 A 
ENDBRANCH  32  35
ENDBRANCH   1  32
TORSDOF 6
