REMARK  Name = ZINC36627202
REMARK  11 active torsions:
REMARK  status: ('A' for Active; 'I' for Inactive)
REMARK    1  A    between atoms: C_1  and  C_2
REMARK    2  A    between atoms: C_2  and  O_3
REMARK    3  A    between atoms: O_3  and  C_4
REMARK    4  A    between atoms: C_4  and  C_6
REMARK    5  A    between atoms: C_7  and  C_20
REMARK    6  A    between atoms: C_12  and  C_14
REMARK    7  A    between atoms: C_20  and  S_21
REMARK    8  A    between atoms: S_21  and  C_22
REMARK    9  A    between atoms: N_27  and  C_28
REMARK   10  A    between atoms: C_33  and  O_34
REMARK   11  A    between atoms: O_34  and  C_35
REMARK                            x       y       z     vdW  Elec       q    Type
REMARK                         _______ _______ _______ _____ _____    ______ ____
ROOT
ATOM      1  C   UNL     1      -2.660  -2.283   0.243  0.00  0.00    +0.079 C 
ATOM      2  C   UNL     1      -2.875  -3.595   0.007  0.00  0.00    +0.034 C 
ATOM      3  N   UNL     1      -4.141  -4.093  -0.106  0.00  0.00    -0.272 N 
ATOM      4  C   UNL     1      -5.246  -3.344   0.002  0.00  0.00    +0.304 C 
ATOM      5  O   UNL     1      -6.332  -3.877  -0.114  0.00  0.00    -0.252 OA
ATOM      6  N   UNL     1      -5.193  -2.018   0.237  0.00  0.00    -0.288 N 
ATOM      7  C   UNL     1      -3.872  -1.384   0.383  0.00  0.00    +0.144 C 
ATOM      8  H   UNL     1      -4.247  -5.042  -0.276  0.00  0.00    +0.156 HD
ATOM      9  H   UNL     1      -6.006  -1.494   0.312  0.00  0.00    +0.151 HD
ENDROOT
BRANCH   7  10
ATOM     10  C   UNL     1      -3.766  -0.297  -0.656  0.00  0.00    -0.023 A 
ATOM     11  C   UNL     1      -4.133  -0.554  -1.964  0.00  0.00    +0.006 A 
ATOM     12  C   UNL     1      -4.036   0.443  -2.917  0.00  0.00    +0.000 A 
ATOM     13  C   UNL     1      -3.573   1.696  -2.562  0.00  0.00    +0.000 A 
ATOM     14  C   UNL     1      -3.208   1.953  -1.254  0.00  0.00    +0.000 A 
ATOM     15  C   UNL     1      -3.308   0.957  -0.300  0.00  0.00    +0.006 A 
ENDBRANCH   7  10
BRANCH   1  16
ATOM     16  C   UNL     1      -1.349  -1.766   0.362  0.00  0.00    +0.339 C 
ATOM     17  O   UNL     1      -0.905  -1.479   1.458  0.00  0.00    -0.245 OA
BRANCH  16  18
ATOM     18  O   UNL     1      -0.590  -1.591  -0.740  0.00  0.00    -0.462 OA
BRANCH  18  20
ATOM     19  C   UNL     1       1.428  -0.938  -1.899  0.00  0.00    +0.048 C 
ATOM     20  C   UNL     1       0.725  -1.065  -0.546  0.00  0.00    +0.229 C 
ENDBRANCH  18  20
ENDBRANCH  16  18
ENDBRANCH   1  16
BRANCH   2  21
ATOM     21  C   UNL     1      -1.697  -4.525  -0.133  0.00  0.00    +0.127 C 
BRANCH  21  22
ATOM     22  S   UNL     1      -1.525  -5.515   1.378  0.00  0.00    -0.091 S 
BRANCH  22  23
ATOM     23  C   UNL     1      -0.126  -6.537   1.060  0.00  0.00    +0.160 A 
ATOM     24  N   UNL     1       0.645  -6.592  -0.009  0.00  0.00    -0.133 NA
ATOM     25  N   UNL     1       1.699  -7.474  -0.049  0.00  0.00    -0.125 NA
ATOM     26  C   UNL     1       1.936  -8.261   0.983  0.00  0.00    +0.187 A 
ATOM     27  S   UNL     1       0.635  -7.771   2.104  0.00  0.00    -0.024 S 
ATOM     28  N   UNL     1       2.934  -9.213   1.153  0.00  0.00    -0.289 N 
ATOM     29  H   UNL     1       2.939  -9.774   1.945  0.00  0.00    +0.154 HD
BRANCH  28  30
ATOM     30  C   UNL     1       3.932  -9.363   0.183  0.00  0.00    +0.075 A 
ATOM     31  C   UNL     1       3.852  -8.660  -1.011  0.00  0.00    +0.027 A 
ATOM     32  C   UNL     1       4.839  -8.810  -1.967  0.00  0.00    +0.002 A 
ATOM     33  C   UNL     1       5.906  -9.659  -1.737  0.00  0.00    +0.004 A 
ATOM     34  C   UNL     1       5.992 -10.362  -0.550  0.00  0.00    +0.047 A 
ATOM     35  C   UNL     1       5.011 -10.214   0.416  0.00  0.00    +0.141 A 
BRANCH  35  36
ATOM     36  O   UNL     1       5.096 -10.901   1.587  0.00  0.00    -0.493 OA
ATOM     37  C   UNL     1       6.230 -11.754   1.756  0.00  0.00    +0.277 C 
ENDBRANCH  35  36
ENDBRANCH  28  30
ENDBRANCH  22  23
ENDBRANCH  21  22
ENDBRANCH   2  21
TORSDOF 9
