REMARK  Name = ZINC21145912
REMARK  12 active torsions:
REMARK  status: ('A' for Active; 'I' for Inactive)
REMARK    1  A    between atoms: C_1  and  C_2
REMARK    2  A    between atoms: C_2  and  O_3
REMARK    3  A    between atoms: O_3  and  C_4
REMARK    4  A    between atoms: C_4  and  C_6
REMARK    5  A    between atoms: C_10  and  N_11
REMARK    6  A    between atoms: C_12  and  C_14
REMARK    7  A    between atoms: C_14  and  S_15
REMARK    8  A    between atoms: S_15  and  C_16
REMARK    9  A    between atoms: C_19  and  C_22
REMARK   10  A    between atoms: N_20  and  N_21
REMARK   11  A    between atoms: C_26  and  C_27
REMARK   12  A    between atoms: C_29  and  C_33
REMARK                            x       y       z     vdW  Elec       q    Type
REMARK                         _______ _______ _______ _____ _____    ______ ____
ROOT
ATOM      1  N   UNL     1      -1.491  -0.852  -2.475  0.00  0.00    -0.279 N 
ATOM      2  C   UNL     1      -2.243  -1.282  -3.508  0.00  0.00    +0.228 C 
ATOM      3  O   UNL     1      -3.268  -1.896  -3.298  0.00  0.00    -0.275 OA
ATOM      4  H   UNL     1      -0.561  -0.296  -2.666  0.00  0.00    +0.155 HD
ENDROOT
BRANCH   1   9
ATOM      5  C   UNL     1      -1.256  -0.753   0.010  0.00  0.00    +0.091 A 
ATOM      6  C   UNL     1      -1.892  -1.146   1.257  0.00  0.00    -0.021 A 
ATOM      7  C   UNL     1      -3.047  -1.832   1.122  0.00  0.00    -0.004 A 
ATOM      8  S   UNL     1      -3.297  -1.960  -0.626  0.00  0.00    -0.077 S 
ATOM      9  C   UNL     1      -1.889  -1.111  -1.173  0.00  0.00    +0.086 A 
ATOM     10  C   UNL     1      -3.917  -2.361   2.220  0.00  0.00    +0.046 C 
ATOM     11  C   UNL     1      -3.500  -1.686   3.535  0.00  0.00    -0.009 C 
ATOM     12  C   UNL     1      -1.975  -1.754   3.662  0.00  0.00    +0.008 C 
ATOM     13  C   UNL     1      -1.325  -0.826   2.634  0.00  0.00    +0.037 C 
ATOM     14  C   UNL     1      -4.149  -2.414   4.714  0.00  0.00    +0.008 C 
BRANCH   5  15
ATOM     15  C   UNL     1       0.002  -0.004   0.002  0.00  0.00    +0.342 C 
ATOM     16  O   UNL     1       1.064  -0.598  -0.011  0.00  0.00    -0.245 OA
BRANCH  15  17
ATOM     17  O   UNL     1      -0.016   1.345   0.009  0.00  0.00    -0.461 OA
BRANCH  17  19
ATOM     18  C   UNL     1       1.047   3.535   0.011  0.00  0.00    +0.048 C 
ATOM     19  C   UNL     1       1.268   2.021   0.001  0.00  0.00    +0.229 C 
ENDBRANCH  17  19
ENDBRANCH  15  17
ENDBRANCH   5  15
ENDBRANCH   1   9
BRANCH   2  20
ATOM     20  C   UNL     1      -1.810  -1.002  -4.924  0.00  0.00    +0.173 C 
BRANCH  20  21
ATOM     21  S   UNL     1      -3.018  -1.702  -6.075  0.00  0.00    -0.075 S 
BRANCH  21  22
ATOM     22  C   UNL     1      -2.284  -1.240  -7.608  0.00  0.00    +0.209 A 
ATOM     23  N   UNL     1      -1.165  -0.572  -7.766  0.00  0.00    -0.121 NA
ATOM     24  N   UNL     1      -0.922  -0.406  -9.017  0.00  0.00    -0.127 NA
ATOM     25  C   UNL     1      -1.871  -0.959  -9.735  0.00  0.00    +0.185 A 
ATOM     26  N   UNL     1      -2.771  -1.515  -8.856  0.00  0.00    -0.224 N 
BRANCH  25  27
ATOM     27  C   UNL     1      -1.955  -0.984 -11.212  0.00  0.00    +0.061 A 
ATOM     28  C   UNL     1      -3.009  -1.597 -12.030  0.00  0.00    +0.053 A 
ATOM     29  C   UNL     1      -2.666  -1.370 -13.308  0.00  0.00    +0.196 A 
ATOM     30  O   UNL     1      -1.513  -0.684 -13.337  0.00  0.00    -0.467 OA
ATOM     31  C   UNL     1      -1.074  -0.439 -12.094  0.00  0.00    +0.112 A 
ATOM     32  C   UNL     1       0.183   0.311 -11.735  0.00  0.00    +0.087 C 
ENDBRANCH  25  27
BRANCH  26  33
ATOM     33  N   UNL     1      -3.913  -2.197  -9.165  0.00  0.00    -0.295 N 
ATOM     34  H   UNL     1      -4.194  -2.352 -10.217  0.00  0.00    +0.163 HD
ATOM     35  H   UNL     1      -4.552  -2.592  -8.361  0.00  0.00    +0.163 HD
ENDBRANCH  26  33
ENDBRANCH  21  22
ENDBRANCH  20  21
ENDBRANCH   2  20
TORSDOF 9
