REMARK  Name = ZINC37196776
REMARK  6 active torsions:
REMARK  status: ('A' for Active; 'I' for Inactive)
REMARK    1  A    between atoms: C_1  and  C_2
REMARK    2  A    between atoms: C_2  and  C_4
REMARK    3  A    between atoms: C_2  and  N_14
REMARK    4  A    between atoms: C_7  and  S_10
REMARK    5  A    between atoms: S_10  and  N_13
REMARK    6  A    between atoms: N_14  and  C_15
REMARK                            x       y       z     vdW  Elec       q    Type
REMARK                         _______ _______ _______ _____ _____    ______ ____
ROOT
ATOM      1  C   UNL     1      -0.019   1.526   0.010  0.00  0.00    +0.033 C 
ATOM      2  C   UNL     1       0.002  -0.004   0.002  0.00  0.00    +0.098 C 
ENDROOT
BRANCH   2   3
ATOM      3  C   UNL     1       0.731  -0.503   1.223  0.00  0.00    -0.027 A 
ATOM      4  C   UNL     1       2.113  -0.514   1.247  0.00  0.00    +0.007 A 
ATOM      5  C   UNL     1       2.782  -0.972   2.366  0.00  0.00    +0.029 A 
ATOM      6  C   UNL     1       2.068  -1.419   3.463  0.00  0.00    +0.105 A 
ATOM      7  C   UNL     1       0.686  -1.407   3.439  0.00  0.00    +0.029 A 
ATOM      8  C   UNL     1       0.017  -0.945   2.321  0.00  0.00    +0.007 A 
BRANCH   6   9
ATOM      9  S   UNL     1       2.920  -2.003   4.890  0.00  0.00    +0.056 S 
ATOM     10  O   UNL     1       2.026  -2.874   5.569  0.00  0.00    -0.153 OA
ATOM     11  O   UNL     1       4.206  -2.422   4.452  0.00  0.00    -0.153 OA
BRANCH   9  12
ATOM     12  N   UNL     1       3.159  -0.702   5.885  0.00  0.00    -0.204 NA
ATOM     13  H   UNL     1       3.198  -0.827   6.846  0.00  0.00    +0.144 HD
ATOM     14  H   UNL     1       3.261   0.186   5.507  0.00  0.00    +0.144 HD
ENDBRANCH   9  12
ENDBRANCH   6   9
ENDBRANCH   2   3
BRANCH   2  15
ATOM     15  N   UNL     1       0.688  -0.476  -1.203  0.00  0.00    -0.336 N 
ATOM     16  H   UNL     1       1.632  -0.695  -1.170  0.00  0.00    +0.147 HD
BRANCH  15  17
ATOM     17  C   UNL     1      -0.019  -0.613  -2.402  0.00  0.00    +0.046 A 
ATOM     18  C   UNL     1      -1.370  -0.296  -2.453  0.00  0.00    +0.026 A 
ATOM     19  C   UNL     1      -2.066  -0.431  -3.638  0.00  0.00    +0.022 A 
ATOM     20  C   UNL     1      -1.419  -0.883  -4.774  0.00  0.00    +0.042 A 
ATOM     21  C   UNL     1      -0.073  -1.200  -4.728  0.00  0.00    +0.041 A 
ATOM     22  C   UNL     1       0.630  -1.061  -3.546  0.00  0.00    +0.063 A 
ATOM     23 CL   UNL     1       2.320  -1.452  -3.489  0.00  0.00    -0.082 Cl
ATOM     24 CL   UNL     1      -2.298  -1.052  -6.262  0.00  0.00    -0.083 Cl
ENDBRANCH  15  17
ENDBRANCH   2  15
TORSDOF 5
