REMARK  Name = ZINC14953614
REMARK  6 active torsions:
REMARK  status: ('A' for Active; 'I' for Inactive)
REMARK    1  A    between atoms: C_1  and  C_2
REMARK    2  A    between atoms: C_2  and  C_4
REMARK    3  A    between atoms: C_2  and  N_14
REMARK    4  A    between atoms: C_15  and  C_17
REMARK    5  A    between atoms: C_20  and  C_25
REMARK    6  A    between atoms: C_25  and  N_26
REMARK                            x       y       z     vdW  Elec       q    Type
REMARK                         _______ _______ _______ _____ _____    ______ ____
ROOT
ATOM      1  C   UNL     1       6.801   4.435  -1.770  0.00  0.00    +0.101 A 
ATOM      2  C   UNL     1       7.937   3.895  -2.370  0.00  0.00    +0.020 A 
ATOM      3  C   UNL     1       8.933   4.756  -2.829  0.00  0.00    +0.023 A 
ATOM      4  C   UNL     1       8.790   6.099  -2.688  0.00  0.00    +0.033 A 
ATOM      5  N   UNL     1       7.689   6.631  -2.106  0.00  0.00    -0.324 N 
ATOM      6  H   UNL     1       7.596   7.722  -1.998  0.00  0.00    +0.169 HD
ATOM      7  C   UNL     1       6.695   5.845  -1.652  0.00  0.00    +0.261 A 
ATOM      8  O   UNL     1       5.709   6.342  -1.135  0.00  0.00    -0.267 OA
ENDROOT
BRANCH   1  10
ATOM      9  N   UNL     1       4.695   4.083  -0.586  0.00  0.00    -0.305 N 
ATOM     10  C   UNL     1       5.729   3.559  -1.274  0.00  0.00    +0.250 C 
ATOM     11  O   UNL     1       5.774   2.362  -1.485  0.00  0.00    -0.270 OA
ATOM     12  H   UNL     1       4.609   5.173  -0.467  0.00  0.00    +0.150 HD
BRANCH   9  14
ATOM     13  C   UNL     1       4.112   2.815   1.423  0.00  0.00    +0.033 C 
ATOM     14  C   UNL     1       3.686   3.200   0.005  0.00  0.00    +0.101 C 
BRANCH  14  15
ATOM     15  C   UNL     1       2.360   3.916   0.055  0.00  0.00    -0.020 A 
ATOM     16  C   UNL     1       2.319   5.275   0.113  0.00  0.00    +0.006 A 
ATOM     17  C   UNL     1       1.103   5.954   0.160  0.00  0.00    +0.001 A 
ATOM     18  C   UNL     1      -0.078   5.278   0.149  0.00  0.00    +0.008 A 
ATOM     19  C   UNL     1      -0.075   3.874   0.090  0.00  0.00    -0.018 A 
ATOM     20  C   UNL     1       1.161   3.183   0.043  0.00  0.00    -0.013 A 
ATOM     21  C   UNL     1       1.164   1.779  -0.017  0.00  0.00    +0.009 A 
ATOM     22  C   UNL     1      -0.017   1.103  -0.028  0.00  0.00    +0.001 A 
ATOM     23  C   UNL     1      -1.233   1.783   0.014  0.00  0.00    +0.001 A 
ATOM     24  C   UNL     1      -1.275   3.142   0.077  0.00  0.00    +0.008 A 
ENDBRANCH  14  15
ENDBRANCH   9  14
ENDBRANCH   1  10
BRANCH   4  25
ATOM     25  C   UNL     1       9.877   7.015  -3.189  0.00  0.00    +0.137 C 
BRANCH  25  26
ATOM     26  N   UNL     1       9.358   7.834  -4.292  0.00  0.00    -0.294 NA
ATOM     27  C   UNL     1       9.040   7.002  -5.461  0.00  0.00    +0.104 C 
ATOM     28  C   UNL     1       8.430   7.879  -6.557  0.00  0.00    +0.122 C 
ATOM     29  N   UNL     1       9.377   8.944  -6.914  0.00  0.00    -0.314 N 
ATOM     30  C   UNL     1       9.695   9.775  -5.745  0.00  0.00    +0.122 C 
ATOM     31  C   UNL     1      10.306   8.899  -4.649  0.00  0.00    +0.104 C 
ATOM     32  C   UNL     1       8.886   9.719  -7.958  0.00  0.00    +0.099 A 
ATOM     33  C   UNL     1       8.527   9.111  -9.157  0.00  0.00    +0.042 A 
ATOM     34  C   UNL     1       8.039   9.895 -10.188  0.00  0.00    +0.005 A 
ATOM     35  C   UNL     1       7.927  11.264  -9.984  0.00  0.00    +0.018 A 
ATOM     36  C   UNL     1       8.303  11.799  -8.768  0.00  0.00    +0.084 A 
ATOM     37  N   UNL     1       8.760  11.027  -7.801  0.00  0.00    -0.350 N 
ATOM     38  H   UNL     1       9.038  11.496  -6.845  0.00  0.00    +0.166 HD
ENDBRANCH  25  26
ENDBRANCH   4  25
TORSDOF 5
