REMARK  Name = ZINC64348806
REMARK  8 active torsions:
REMARK  status: ('A' for Active; 'I' for Inactive)
REMARK    1  A    between atoms: C_1  and  O_2
REMARK    2  A    between atoms: O_2  and  C_3
REMARK    3  A    between atoms: C_6  and  N_9
REMARK    4  A    between atoms: C_10  and  C_12
REMARK    5  A    between atoms: C_12  and  C_14
REMARK    6  A    between atoms: C_12  and  N_24
REMARK    7  A    between atoms: C_14  and  C_15
REMARK    8  A    between atoms: C_25  and  C_27
REMARK                            x       y       z     vdW  Elec       q    Type
REMARK                         _______ _______ _______ _____ _____    ______ ____
ROOT
ATOM      1  C   UNL     1       3.398  -4.577  -5.514  0.00  0.00    +0.163 C 
ENDROOT
BRANCH   1   3
ATOM      2  N   UNL     1       2.233  -2.818  -4.223  0.00  0.00    -0.284 N 
ATOM      3  C   UNL     1       2.557  -4.120  -4.351  0.00  0.00    +0.238 C 
ATOM      4  O   UNL     1       2.172  -4.924  -3.528  0.00  0.00    -0.273 OA
ATOM      5  H   UNL     1       2.481  -2.186  -4.917  0.00  0.00    +0.155 HD
BRANCH   2   9
ATOM      6  C   UNL     1       0.167  -1.504  -0.848  0.00  0.00    +0.120 A 
ATOM      7  C   UNL     1      -0.100  -2.757  -1.381  0.00  0.00    +0.047 A 
ATOM      8  C   UNL     1       0.584  -3.192  -2.498  0.00  0.00    +0.027 A 
ATOM      9  C   UNL     1       1.539  -2.376  -3.089  0.00  0.00    +0.034 A 
ATOM     10  C   UNL     1       1.806  -1.122  -2.556  0.00  0.00    +0.027 A 
ATOM     11  C   UNL     1       1.117  -0.686  -1.441  0.00  0.00    +0.047 A 
BRANCH   6  13
ATOM     12  C   UNL     1      -1.471  -1.970   0.812  0.00  0.00    +0.277 C 
ATOM     13  O   UNL     1      -0.507  -1.076   0.253  0.00  0.00    -0.495 OA
ENDBRANCH   6  13
ENDBRANCH   2   9
ENDBRANCH   1   3
BRANCH   1  14
ATOM     14  N   UNL     1       3.609  -6.024  -5.426  0.00  0.00    -0.302 N 
ATOM     15  C   UNL     1       3.781  -6.749  -6.549  0.00  0.00    +0.231 C 
ATOM     16  O   UNL     1       3.760  -6.204  -7.632  0.00  0.00    -0.274 OA
ATOM     17  H   UNL     1       3.625  -6.460  -4.560  0.00  0.00    +0.150 HD
BRANCH  15  18
ATOM     18  C   UNL     1       3.998  -8.238  -6.458  0.00  0.00    +0.145 C 
ATOM     19  C   UNL     1       2.654  -8.942  -6.267  0.00  0.00    +0.063 C 
ATOM     20  C   UNL     1       2.828 -10.432  -6.417  0.00  0.00    -0.041 A 
ATOM     21  C   UNL     1       1.830 -11.266  -5.936  0.00  0.00    +0.004 A 
ATOM     22  C   UNL     1       1.948 -12.636  -6.056  0.00  0.00    +0.000 A 
ATOM     23  C   UNL     1       3.066 -13.179  -6.660  0.00  0.00    +0.000 A 
ATOM     24  C   UNL     1       4.061 -12.350  -7.138  0.00  0.00    +0.005 A 
ATOM     25  C   UNL     1       3.945 -10.973  -7.015  0.00  0.00    -0.030 A 
ATOM     26  C   UNL     1       5.062 -10.110  -7.541  0.00  0.00    +0.117 C 
ATOM     27  N   UNL     1       4.611  -8.725  -7.704  0.00  0.00    -0.301 NA
ATOM     28  H   UNL     1       3.970  -8.645  -8.478  0.00  0.00    +0.123 HD
ENDBRANCH  15  18
ENDBRANCH   1  14
BRANCH   1  29
ATOM     29  C   UNL     1       4.750  -3.861  -5.478  0.00  0.00    +0.065 C 
BRANCH  29  30
ATOM     30  C   UNL     1       5.493  -4.253  -4.227  0.00  0.00    -0.039 C 
ATOM     31  C   UNL     1       6.411  -5.238  -4.101  0.00  0.00    -0.001 A 
ATOM     32  C   UNL     1       6.972  -6.203  -5.055  0.00  0.00    +0.010 A 
ATOM     33  C   UNL     1       7.897  -7.089  -4.624  0.00  0.00    +0.001 A 
ATOM     34  C   UNL     1       8.334  -7.110  -3.292  0.00  0.00    +0.002 A 
ATOM     35  C   UNL     1       7.866  -6.255  -2.358  0.00  0.00    +0.026 A 
ATOM     36  C   UNL     1       6.889  -5.280  -2.701  0.00  0.00    +0.043 A 
ATOM     37  N   UNL     1       6.290  -4.357  -1.988  0.00  0.00    -0.380 N 
ATOM     38  C   UNL     1       5.367  -3.620  -2.859  0.00  0.00    +0.144 C 
ATOM     39  H   UNL     1       6.435  -4.187  -1.044  0.00  0.00    +0.160 HD
ENDBRANCH  29  30
ENDBRANCH   1  29
TORSDOF 7
