REMARK  Name = ZINC15675670
REMARK  8 active torsions:
REMARK  status: ('A' for Active; 'I' for Inactive)
REMARK    1  A    between atoms: C_1  and  N_2
REMARK    2  A    between atoms: N_2  and  C_3
REMARK    3  A    between atoms: N_2  and  C_4
REMARK    4  A    between atoms: C_7  and  C_10
REMARK    5  A    between atoms: C_10  and  N_11
REMARK    6  A    between atoms: C_20  and  C_22
REMARK    7  A    between atoms: C_24  and  C_27
REMARK    8  A    between atoms: C_27  and  C_28
REMARK                            x       y       z     vdW  Elec       q    Type
REMARK                         _______ _______ _______ _____ _____    ______ ____
ROOT
ATOM      1  N   UNL     1      -5.281  -3.159   1.420  0.00  0.00    -0.281 NA
ATOM      2  C   UNL     1      -4.324  -4.048   2.101  0.00  0.00    +0.140 C 
ATOM      3  C   UNL     1      -4.857  -4.351   3.479  0.00  0.00    +0.051 A 
ATOM      4  C   UNL     1      -6.143  -4.139   3.841  0.00  0.00    +0.040 A 
ATOM      5  N   UNL     1      -6.262  -4.519   5.139  0.00  0.00    -0.349 N 
ATOM      6  H   UNL     1      -7.067  -4.485   5.679  0.00  0.00    +0.166 HD
ATOM      7  C   UNL     1      -5.044  -4.956   5.537  0.00  0.00    +0.171 A 
ATOM      8  N   UNL     1      -4.210  -4.850   4.533  0.00  0.00    -0.349 N 
ATOM      9  C   UNL     1      -7.188  -3.583   2.908  0.00  0.00    +0.083 C 
ATOM     10  C   UNL     1      -6.648  -3.696   1.475  0.00  0.00    +0.152 C 
ATOM     11  H   UNL     1      -3.272  -5.097   4.553  0.00  0.00    +0.166 HD
ENDROOT
BRANCH  10  12
ATOM     12  C   UNL     1      -7.533  -2.911   0.542  0.00  0.00    +0.245 A 
ATOM     13  N   UNL     1      -8.404  -3.414  -0.289  0.00  0.00    -0.194 NA
ATOM     14  C   UNL     1      -9.015  -2.433  -0.963  0.00  0.00    +0.176 A 
ATOM     15  N   UNL     1      -8.537  -1.288  -0.567  0.00  0.00    -0.061 NA
ATOM     16  O   UNL     1      -7.565  -1.577   0.427  0.00  0.00    -0.336 OA
BRANCH  14  17
ATOM     17  C   UNL     1     -10.082  -2.622  -2.010  0.00  0.00    +0.114 C 
BRANCH  17  18
ATOM     18  C   UNL     1     -11.438  -2.617  -1.353  0.00  0.00    -0.040 A 
ATOM     19  C   UNL     1     -11.991  -3.800  -0.900  0.00  0.00    +0.004 A 
ATOM     20  C   UNL     1     -13.235  -3.795  -0.297  0.00  0.00    +0.000 A 
ATOM     21  C   UNL     1     -13.925  -2.607  -0.147  0.00  0.00    +0.000 A 
ATOM     22  C   UNL     1     -13.372  -1.424  -0.599  0.00  0.00    +0.000 A 
ATOM     23  C   UNL     1     -12.126  -1.428  -1.198  0.00  0.00    +0.004 A 
ENDBRANCH  17  18
ENDBRANCH  14  17
ENDBRANCH  10  12
BRANCH   1  24
ATOM     24  C   UNL     1      -4.870  -2.906   0.033  0.00  0.00    +0.120 C 
BRANCH  24  28
ATOM     25  C   UNL     1      -1.198  -0.719   0.010  0.00  0.00    +0.029 A 
ATOM     26  C   UNL     1      -1.181  -2.108   0.008  0.00  0.00    +0.023 A 
ATOM     27  C   UNL     1      -2.369  -2.812   0.016  0.00  0.00    +0.007 A 
ATOM     28  C   UNL     1      -3.575  -2.135   0.025  0.00  0.00    -0.033 A 
ATOM     29  C   UNL     1      -3.596  -0.752   0.027  0.00  0.00    +0.007 A 
ATOM     30  C   UNL     1      -2.411  -0.042   0.025  0.00  0.00    +0.023 A 
BRANCH  25  32
ATOM     31  C   UNL     1      -0.018   1.461   0.010  0.00  0.00    +0.129 C 
ATOM     32  N   UNL     1       0.002  -0.004   0.002  0.00  0.00    -0.336 N 
ATOM     33  C   UNL     1       1.281  -0.719  -0.014  0.00  0.00    +0.129 C 
ENDBRANCH  25  32
ENDBRANCH  24  28
ENDBRANCH   1  24
TORSDOF 6
