REMARK  Name = ZINC19877391
REMARK  4 active torsions:
REMARK  status: ('A' for Active; 'I' for Inactive)
REMARK    1  A    between atoms: C_1  and  C_2
REMARK    2  A    between atoms: C_5  and  N_9
REMARK    3  A    between atoms: C_6  and  C_8
REMARK    4  A    between atoms: N_9  and  C_10
REMARK                            x       y       z     vdW  Elec       q    Type
REMARK                         _______ _______ _______ _____ _____    ______ ____
ROOT
ATOM      1  C   UNL     1       0.061  -4.893  -1.294  0.00  0.00    +0.190 C 
ATOM      2  C   UNL     1       0.636  -6.279  -1.112  0.00  0.00    +0.003 A 
ATOM      3  C   UNL     1       1.870  -6.735  -0.704  0.00  0.00    +0.008 A 
ATOM      4  C   UNL     1       2.113  -8.095  -0.632  0.00  0.00    +0.000 A 
ATOM      5  C   UNL     1       1.115  -8.992  -0.970  0.00  0.00    +0.002 A 
ATOM      6  C   UNL     1      -0.121  -8.537  -1.378  0.00  0.00    +0.023 A 
ATOM      7  C   UNL     1      -0.374  -7.169  -1.454  0.00  0.00    +0.039 A 
ATOM      8  N   UNL     1      -1.523  -6.473  -1.831  0.00  0.00    -0.283 N 
ATOM      9  C   UNL     1      -1.355  -5.138  -1.768  0.00  0.00    +0.242 C 
ATOM     10  O   UNL     1      -2.181  -4.292  -2.039  0.00  0.00    -0.273 OA
ATOM     11  H   UNL     1      -2.348  -6.901  -2.108  0.00  0.00    +0.155 HD
ENDROOT
BRANCH   1  12
ATOM     12  N   UNL     1       0.058  -4.167  -0.021  0.00  0.00    -0.329 N 
ATOM     13  H   UNL     1       0.069  -4.657   0.816  0.00  0.00    +0.147 HD
BRANCH  12  18
ATOM     14  C   UNL     1      -0.018   1.503   0.010  0.00  0.00    +0.044 C 
ATOM     15  C   UNL     1       0.002  -0.004   0.002  0.00  0.00    -0.050 A 
ATOM     16  C   UNL     1       0.006  -0.687  -1.200  0.00  0.00    +0.005 A 
ATOM     17  C   UNL     1       0.024  -2.068  -1.212  0.00  0.00    +0.023 A 
ATOM     18  C   UNL     1       0.040  -2.771  -0.013  0.00  0.00    +0.031 A 
ATOM     19  C   UNL     1       0.036  -2.081   1.192  0.00  0.00    -0.029 A 
ATOM     20  C   UNL     1       0.023  -0.700   1.196  0.00  0.00    +0.008 A 
ATOM     21  C   UNL     1       0.052  -2.839   2.495  0.00  0.00    +0.045 C 
ENDBRANCH  12  18
ENDBRANCH   1  12
TORSDOF 2
