REMARK  Name = ZINC32097222
REMARK  3 active torsions:
REMARK  status: ('A' for Active; 'I' for Inactive)
REMARK    1  A    between atoms: C_1  and  N_2
REMARK    2  A    between atoms: C_19  and  C_28
REMARK    3  A    between atoms: C_20  and  C_21
REMARK                            x       y       z     vdW  Elec       q    Type
REMARK                         _______ _______ _______ _____ _____    ______ ____
ROOT
ATOM      1  C   UNL     1      -0.018   1.461   0.010  0.00  0.00    +0.138 C 
ATOM      2  N   UNL     1       0.002  -0.004   0.002  0.00  0.00    -0.273 N 
ATOM      3  C   UNL     1      -1.135  -0.793   0.003  0.00  0.00    +0.040 A 
ATOM      4  C   UNL     1      -2.478  -0.412   0.011  0.00  0.00    +0.024 A 
ATOM      5  C   UNL     1      -3.424  -1.425   0.010  0.00  0.00    +0.002 A 
ATOM      6  C   UNL     1      -3.067  -2.758   0.002  0.00  0.00    +0.000 A 
ATOM      7  C   UNL     1      -1.733  -3.151  -0.007  0.00  0.00    +0.007 A 
ATOM      8  C   UNL     1      -0.786  -2.150  -0.006  0.00  0.00    -0.006 A 
ATOM      9  C   UNL     1       0.709  -2.197  -0.015  0.00  0.00    +0.115 C 
ATOM     10  C   UNL     1       1.131  -0.743  -0.013  0.00  0.00    +0.236 C 
ATOM     11  O   UNL     1       2.268  -0.322  -0.021  0.00  0.00    -0.274 OA
ATOM     12  C   UNL     1       1.228  -2.883  -1.279  0.00  0.00    +0.122 C 
ATOM     13  C   UNL     1       1.186  -4.377  -1.131  0.00  0.00    +0.219 C 
ATOM     14  O   UNL     1       0.933  -5.047  -2.110  0.00  0.00    -0.275 OA
ATOM     15  N   UNL     1       1.415  -5.008   0.034  0.00  0.00    -0.284 N 
ATOM     16  C   UNL     1       1.590  -4.234   1.216  0.00  0.00    +0.054 A 
ATOM     17  C   UNL     1       1.248  -2.906   1.186  0.00  0.00    +0.032 A 
ATOM     18  S   UNL     1       1.560  -2.316   2.711  0.00  0.00    -0.083 S 
ATOM     19  C   UNL     1       2.179  -3.807   3.471  0.00  0.00    +0.110 A 
ATOM     20  C   UNL     1       2.089  -4.727   2.419  0.00  0.00    +0.025 A 
ATOM     21  H   UNL     1       1.461  -5.976   0.068  0.00  0.00    +0.155 HD
ENDROOT
BRANCH  20  22
ATOM     22  C   UNL     1       2.501  -6.140   2.577  0.00  0.00    -0.015 A 
ATOM     23  C   UNL     1       1.555  -7.161   2.474  0.00  0.00    +0.010 A 
ATOM     24  C   UNL     1       1.945  -8.476   2.622  0.00  0.00    +0.020 A 
ATOM     25  C   UNL     1       3.272  -8.784   2.871  0.00  0.00    +0.041 A 
ATOM     26  C   UNL     1       4.215  -7.775   2.974  0.00  0.00    +0.020 A 
ATOM     27  C   UNL     1       3.837  -6.457   2.823  0.00  0.00    +0.010 A 
ATOM     28 CL   UNL     1       3.755 -10.441   3.055  0.00  0.00    -0.084 Cl
ENDBRANCH  20  22
BRANCH  19  29
ATOM     29  C   UNL     1       2.638  -4.007   4.792  0.00  0.00    +0.394 C 
ATOM     30  O   UNL     1       2.644  -3.074   5.587  0.00  0.00    -0.240 OA
ATOM     31  O   UNL     1       3.032  -5.113   5.143  0.00  0.00    -0.240 OA
ENDBRANCH  19  29
TORSDOF 2
