REMARK  Name = ZINC67153187
REMARK  7 active torsions:
REMARK  status: ('A' for Active; 'I' for Inactive)
REMARK    1  A    between atoms: C_1  and  C_2
REMARK    2  A    between atoms: C_5  and  C_12
REMARK    3  A    between atoms: C_8  and  C_10
REMARK    4  A    between atoms: C_8  and  C_11
REMARK    5  A    between atoms: C_12  and  C_13
REMARK    6  A    between atoms: N_19  and  C_22
REMARK    7  A    between atoms: C_22  and  C_23
REMARK                            x       y       z     vdW  Elec       q    Type
REMARK                         _______ _______ _______ _____ _____    ______ ____
ROOT
ATOM      1  C   UNL     1      -3.421  -1.754  -0.582  0.00  0.00    +0.216 C 
ATOM      2  O   UNL     1      -2.805  -1.191  -1.462  0.00  0.00    -0.276 OA
ATOM      3  N   UNL     1      -4.654  -2.241  -0.829  0.00  0.00    -0.303 N 
ATOM      4  C   UNL     1      -5.384  -2.916   0.263  0.00  0.00    +0.106 C 
ATOM      5  C   UNL     1      -6.869  -2.510   0.271  0.00  0.00    +0.000 C 
ATOM      6  C   UNL     1      -6.988  -1.033  -0.033  0.00  0.00    -0.077 C 
ATOM      7  N   UNL     1      -7.194  -0.851  -1.469  0.00  0.00    +0.386 N 
ATOM      8  C   UNL     1      -6.009  -0.757  -2.232  0.00  0.00    -0.059 C 
ATOM      9  C   UNL     1      -5.218  -2.077  -2.153  0.00  0.00    +0.089 C 
ATOM     10  H   UNL     1      -7.734  -1.630  -1.814  0.00  0.00    -0.081 HD
ENDROOT
BRANCH   1  11
ATOM     11  C   UNL     1      -2.810  -1.910   0.786  0.00  0.00    +0.099 C 
BRANCH  11  15
ATOM     12  C   UNL     1      -0.276   2.378   0.372  0.00  0.00    +0.007 C 
ATOM     13  C   UNL     1      -0.151   0.869   0.590  0.00  0.00    -0.013 C 
ATOM     14  C   UNL     1      -1.543   0.234   0.579  0.00  0.00    +0.007 C 
ATOM     15  C   UNL     1      -1.417  -1.275   0.797  0.00  0.00    -0.002 C 
ATOM     16  C   UNL     1      -0.746  -1.541   2.146  0.00  0.00    +0.010 C 
ATOM     17  C   UNL     1       0.646  -0.907   2.157  0.00  0.00    -0.034 C 
ATOM     18  C   UNL     1       0.520   0.602   1.939  0.00  0.00    +0.009 C 
ATOM     19  C   UNL     1       1.317  -1.173   3.506  0.00  0.00    +0.011 C 
ATOM     20  C   UNL     1       1.493  -1.515   1.038  0.00  0.00    +0.011 C 
ENDBRANCH  11  15
ENDBRANCH   1  11
BRANCH   7  21
ATOM     21  C   UNL     1      -7.976   0.376  -1.673  0.00  0.00    +0.018 C 
BRANCH  21  22
ATOM     22  C   UNL     1      -9.362   0.186  -1.115  0.00  0.00    +0.194 C 
ATOM     23  O   UNL     1      -9.704  -0.899  -0.695  0.00  0.00    -0.278 OA
ATOM     24  N   UNL     1     -10.223   1.223  -1.082  0.00  0.00    -0.331 N 
ATOM     25  H   UNL     1      -9.950   2.091  -1.418  0.00  0.00    +0.145 HD
ATOM     26  H   UNL     1     -11.116   1.101  -0.723  0.00  0.00    +0.145 HD
ENDBRANCH  21  22
ENDBRANCH   7  21
TORSDOF 4
