REMARK  Name = ZINC36581595
REMARK  16 active torsions:
REMARK  status: ('A' for Active; 'I' for Inactive)
REMARK    1  A    between atoms: C_1  and  C_2
REMARK    2  A    between atoms: C_5  and  S_8
REMARK    3  A    between atoms: S_8  and  C_11
REMARK    4  A    between atoms: C_11  and  N_12
REMARK    5  A    between atoms: C_13  and  C_15
REMARK    6  A    between atoms: C_15  and  C_17
REMARK    7  A    between atoms: C_15  and  N_25
REMARK    8  A    between atoms: C_20  and  C_24
REMARK    9  A    between atoms: C_22  and  C_23
REMARK   10  A    between atoms: N_25  and  C_36
REMARK   11  A    between atoms: C_26  and  C_28
REMARK   12  A    between atoms: C_28  and  C_29
REMARK   13  A    between atoms: C_29  and  C_30
REMARK   14  A    between atoms: C_36  and  C_37
REMARK   15  A    between atoms: C_36  and  C_38
REMARK   16  A    between atoms: C_36  and  C_39
REMARK                            x       y       z     vdW  Elec       q    Type
REMARK                         _______ _______ _______ _____ _____    ______ ____
ROOT
ATOM      1  C   UNL     1       3.485  -4.363   3.233  0.00  0.00    +0.193 C 
ENDROOT
BRANCH   1   2
ATOM      2  C   UNL     1       3.068  -3.075   3.895  0.00  0.00    -0.015 A 
ATOM      3  C   UNL     1       1.769  -2.621   3.766  0.00  0.00    +0.006 A 
ATOM      4  C   UNL     1       1.386  -1.440   4.373  0.00  0.00    +0.004 A 
ATOM      5  C   UNL     1       2.303  -0.712   5.110  0.00  0.00    -0.050 A 
ATOM      6  C   UNL     1       3.602  -1.167   5.239  0.00  0.00    +0.007 A 
ATOM      7  C   UNL     1       3.983  -2.351   4.636  0.00  0.00    -0.045 A 
ATOM      8  C   UNL     1       5.398  -2.849   4.781  0.00  0.00    +0.044 C 
ATOM      9  C   UNL     1       1.886   0.576   5.771  0.00  0.00    +0.044 C 
ENDBRANCH   1   2
BRANCH   1  11
ATOM     10  N   UNL     1       2.255  -4.162   1.096  0.00  0.00    -0.294 N 
ATOM     11  C   UNL     1       2.412  -4.804   2.271  0.00  0.00    +0.239 C 
ATOM     12  O   UNL     1       1.690  -5.736   2.555  0.00  0.00    -0.273 OA
ATOM     13  H   UNL     1       2.787  -3.376   0.898  0.00  0.00    +0.150 HD
BRANCH  10  14
ATOM     14  C   UNL     1       1.279  -4.652   0.119  0.00  0.00    +0.278 C 
BRANCH  14  15
ATOM     15  S   UNL     1      -0.284  -3.756   0.324  0.00  0.00    +0.013 S 
ATOM     16  O   UNL     1      -0.646  -3.710   1.697  0.00  0.00    -0.168 OA
ATOM     17  O   UNL     1      -1.221  -4.175  -0.659  0.00  0.00    -0.168 OA
BRANCH  15  22
ATOM     18  C   UNL     1       1.002   1.960  -1.121  0.00  0.00    +0.044 C 
ATOM     19  C   UNL     1       0.681   0.532  -0.760  0.00  0.00    -0.050 A 
ATOM     20  C   UNL     1       0.256  -0.349  -1.737  0.00  0.00    +0.005 A 
ATOM     21  C   UNL     1      -0.039  -1.658  -1.406  0.00  0.00    +0.027 A 
ATOM     22  C   UNL     1       0.092  -2.087  -0.098  0.00  0.00    +0.090 A 
ATOM     23  C   UNL     1       0.518  -1.206   0.878  0.00  0.00    +0.027 A 
ATOM     24  C   UNL     1       0.817   0.102   0.547  0.00  0.00    +0.005 A 
ENDBRANCH  15  22
ENDBRANCH  14  15
ENDBRANCH  10  14
ENDBRANCH   1  11
BRANCH   1  25
ATOM     25  N   UNL     1       3.681  -5.395   4.253  0.00  0.00    -0.281 N 
ATOM     26  C   UNL     1       2.704  -5.656   5.144  0.00  0.00    +0.217 C 
ATOM     27  O   UNL     1       1.626  -5.112   5.038  0.00  0.00    -0.276 OA
BRANCH  25  28
ATOM     28  C   UNL     1       4.939  -6.145   4.305  0.00  0.00    +0.030 C 
ATOM     29  C   UNL     1       5.932  -5.544   3.308  0.00  0.00    +0.031 C 
ATOM     30  C   UNL     1       5.523  -6.064   5.717  0.00  0.00    +0.031 C 
ATOM     31  C   UNL     1       4.676  -7.608   3.945  0.00  0.00    +0.031 C 
ENDBRANCH  25  28
BRANCH  26  32
ATOM     32  C   UNL     1       2.952  -6.624   6.273  0.00  0.00    +0.096 C 
BRANCH  32  33
ATOM     33  C   UNL     1       1.631  -6.935   6.978  0.00  0.00    +0.013 C 
BRANCH  33  34
ATOM     34  C   UNL     1       1.882  -7.917   8.123  0.00  0.00    -0.011 C 
ATOM     35  C   UNL     1       2.361  -9.254   7.553  0.00  0.00    +0.003 C 
ATOM     36  C   UNL     1       2.613 -10.236   8.698  0.00  0.00    +0.000 C 
ATOM     37  C   UNL     1       1.316 -10.451   9.481  0.00  0.00    +0.000 C 
ATOM     38  C   UNL     1       0.837  -9.114  10.051  0.00  0.00    +0.000 C 
ATOM     39  C   UNL     1       0.585  -8.132   8.905  0.00  0.00    +0.003 C 
ENDBRANCH  33  34
ENDBRANCH  32  33
ENDBRANCH  26  32
ENDBRANCH   1  25
TORSDOF 10
