REMARK  Name = ZINC00651164
REMARK  6 active torsions:
REMARK  status: ('A' for Active; 'I' for Inactive)
REMARK    1  A    between atoms: C_3  and  C_22
REMARK    2  A    between atoms: C_5  and  C_7
REMARK    3  A    between atoms: N_9  and  C_10
REMARK    4  A    between atoms: C_10  and  C_11
REMARK    5  A    between atoms: C_22  and  O_23
REMARK    6  A    between atoms: O_23  and  C_24
REMARK                            x       y       z     vdW  Elec       q    Type
REMARK                         _______ _______ _______ _____ _____    ______ ____
ROOT
ATOM      1  C   UNL     1      -2.215  -5.008   1.615  0.00  0.00    +0.244 C 
ATOM      2  O   UNL     1      -2.556  -5.724   0.693  0.00  0.00    -0.270 OA
ATOM      3  N   UNL     1      -1.524  -3.877   1.370  0.00  0.00    -0.306 N 
ATOM      4  H   UNL     1      -1.252  -3.306   2.105  0.00  0.00    +0.149 HD
ENDROOT
BRANCH   1   9
ATOM      5  C   UNL     1      -2.489  -4.911   5.359  0.00  0.00    +0.001 A 
ATOM      6  C   UNL     1      -3.199  -6.073   5.607  0.00  0.00    +0.007 A 
ATOM      7  C   UNL     1      -3.588  -6.890   4.561  0.00  0.00    -0.010 A 
ATOM      8  C   UNL     1      -3.276  -6.547   3.261  0.00  0.00    +0.020 A 
ATOM      9  C   UNL     1      -2.557  -5.379   3.005  0.00  0.00    +0.037 A 
ATOM     10  C   UNL     1      -2.167  -4.559   4.065  0.00  0.00    +0.013 A 
BRANCH   7  11
ATOM     11  C   UNL     1      -4.361  -8.153   4.840  0.00  0.00    +0.264 C 
BRANCH  11  12
ATOM     12  O   UNL     1      -5.761  -7.869   4.826  0.00  0.00    -0.487 OA
BRANCH  12  13
ATOM     13  C   UNL     1      -6.604  -8.908   5.062  0.00  0.00    +0.122 A 
ATOM     14  C   UNL     1      -7.977  -8.703   5.062  0.00  0.00    +0.046 A 
ATOM     15  C   UNL     1      -8.832  -9.761   5.302  0.00  0.00    +0.005 A 
ATOM     16  C   UNL     1      -8.322 -11.023   5.542  0.00  0.00    +0.015 A 
ATOM     17  C   UNL     1      -6.954 -11.231   5.542  0.00  0.00    +0.021 A 
ATOM     18  C   UNL     1      -6.095 -10.176   5.297  0.00  0.00    +0.061 A 
ATOM     19 BR   UNL     1      -6.261 -12.959   5.869  0.00  0.00    -0.050 Br
ENDBRANCH  12  13
ENDBRANCH  11  12
ENDBRANCH   7  11
ENDBRANCH   1   9
BRANCH   3  20
ATOM     20  C   UNL     1      -1.185  -3.509  -0.007  0.00  0.00    +0.157 C 
BRANCH  20  21
ATOM     21  C   UNL     1      -0.419  -2.211  -0.006  0.00  0.00    +0.034 A 
ATOM     22  C   UNL     1       0.919  -2.107  -0.018  0.00  0.00    +0.032 A 
ATOM     23  C   UNL     1       1.237  -0.677  -0.013  0.00  0.00    +0.001 A 
ATOM     24  C   UNL     1       2.428   0.052  -0.020  0.00  0.00    +0.030 A 
ATOM     25  C   UNL     1       2.387   1.419  -0.012  0.00  0.00    +0.042 A 
ATOM     26  C   UNL     1       1.169   2.088   0.002  0.00  0.00    +0.022 A 
ATOM     27  C   UNL     1      -0.017   1.387   0.010  0.00  0.00    +0.027 A 
ATOM     28  C   UNL     1       0.002  -0.004   0.002  0.00  0.00    +0.047 A 
ATOM     29  N   UNL     1      -0.984  -0.965   0.006  0.00  0.00    -0.357 N 
ATOM     30  H   UNL     1      -1.937  -0.786   0.016  0.00  0.00    +0.166 HD
ATOM     31 CL   UNL     1       3.867   2.325  -0.021  0.00  0.00    -0.084 Cl
ENDBRANCH  20  21
ENDBRANCH   3  20
TORSDOF 6
