REMARK  Name = ZINC39631348
REMARK  11 active torsions:
REMARK  status: ('A' for Active; 'I' for Inactive)
REMARK    1  A    between atoms: C_1  and  C_2
REMARK    2  A    between atoms: C_2  and  C_4
REMARK    3  A    between atoms: C_2  and  N_11
REMARK    4  A    between atoms: C_4  and  C_5
REMARK    5  A    between atoms: C_5  and  C_6
REMARK    6  A    between atoms: C_6  and  C_7
REMARK    7  A    between atoms: C_7  and  C_8
REMARK    8  A    between atoms: C_7  and  C_9
REMARK    9  A    between atoms: C_7  and  O_10
REMARK   10  A    between atoms: C_12  and  C_14
REMARK   11  A    between atoms: C_25  and  C_27
REMARK                            x       y       z     vdW  Elec       q    Type
REMARK                         _______ _______ _______ _____ _____    ______ ____
ROOT
ATOM      1  C   UNL     1      -3.467  -1.166  -1.127  0.00  0.00    +0.100 C 
ATOM      2  C   UNL     1      -4.368  -0.272  -0.245  0.00  0.00    +0.121 C 
ATOM      3  N   UNL     1      -4.986   0.686  -1.192  0.00  0.00    -0.296 N 
ATOM      4  C   UNL     1      -5.285  -0.127  -2.396  0.00  0.00    +0.115 C 
ATOM      5  C   UNL     1      -4.074  -1.071  -2.536  0.00  0.00    -0.004 C 
ATOM      6  C   UNL     1      -4.531  -2.448  -3.009  0.00  0.00    -0.010 C 
ATOM      7  C   UNL     1      -5.077  -2.337  -4.436  0.00  0.00    -0.082 C 
ATOM      8  N   UNL     1      -4.031  -1.814  -5.323  0.00  0.00    +0.379 N 
ATOM      9  C   UNL     1      -3.664  -0.453  -4.917  0.00  0.00    -0.082 C 
ATOM     10  C   UNL     1      -3.058  -0.483  -3.511  0.00  0.00    -0.010 C 
ATOM     11  C   UNL     1      -5.223   1.999  -1.002  0.00  0.00    +0.249 C 
ATOM     12  O   UNL     1      -4.831   2.547   0.010  0.00  0.00    -0.270 OA
ATOM     13  H   UNL     1      -3.219  -2.410  -5.271  0.00  0.00    -0.086 HD
ATOM     14  H   UNL     1      -4.374  -1.800  -6.272  0.00  0.00    -0.086 HD
ENDROOT
BRANCH  11  15
ATOM     15  C   UNL     1      -5.959   2.771  -2.022  0.00  0.00    +0.072 A 
ATOM     16  C   UNL     1      -6.990   2.170  -2.748  0.00  0.00    +0.019 A 
ATOM     17  C   UNL     1      -7.673   2.896  -3.699  0.00  0.00    +0.039 A 
ATOM     18  C   UNL     1      -7.341   4.221  -3.937  0.00  0.00    +0.126 A 
ATOM     19  C   UNL     1      -6.320   4.825  -3.222  0.00  0.00    +0.077 A 
ATOM     20  C   UNL     1      -5.630   4.110  -2.261  0.00  0.00    +0.138 A 
ATOM     21  F   UNL     1      -4.638   4.700  -1.559  0.00  0.00    -0.205 F 
ATOM     22  F   UNL     1      -8.015   4.926  -4.872  0.00  0.00    -0.205 F 
ENDBRANCH  11  15
BRANCH   1  24
ATOM     23  N   UNL     1      -1.021  -1.501  -1.272  0.00  0.00    -0.312 N 
ATOM     24  C   UNL     1      -2.053  -0.646  -1.128  0.00  0.00    +0.218 C 
ATOM     25  O   UNL     1      -1.843   0.542  -1.001  0.00  0.00    -0.275 OA
ATOM     26  H   UNL     1      -1.188  -2.451  -1.373  0.00  0.00    +0.149 HD
BRANCH  23  28
ATOM     27  C   UNL     1       0.852  -0.866   0.168  0.00  0.00    +0.028 C 
ATOM     28  C   UNL     1       0.354  -0.995  -1.273  0.00  0.00    +0.070 C 
BRANCH  28  29
ATOM     29  C   UNL     1       1.254  -1.967  -2.038  0.00  0.00    +0.022 C 
BRANCH  29  30
ATOM     30  C   UNL     1       0.834  -2.002  -3.509  0.00  0.00    +0.005 C 
BRANCH  30  31
ATOM     31  C   UNL     1       1.734  -2.974  -4.274  0.00  0.00    +0.034 C 
BRANCH  31  32
ATOM     32  C   UNL     1       1.313  -3.008  -5.745  0.00  0.00    +0.061 C 
ATOM     33  C   UNL     1       2.129  -4.070  -6.484  0.00  0.00    +0.041 C 
ATOM     34  C   UNL     1      -0.175  -3.349  -5.842  0.00  0.00    +0.041 C 
BRANCH  32  35
ATOM     35  O   UNL     1       1.548  -1.729  -6.338  0.00  0.00    -0.389 OA
ATOM     36  H   UNL     1       2.473  -1.448  -6.312  0.00  0.00    +0.210 HD
ENDBRANCH  32  35
ENDBRANCH  31  32
ENDBRANCH  30  31
ENDBRANCH  29  30
ENDBRANCH  28  29
ENDBRANCH  23  28
ENDBRANCH   1  24
TORSDOF 8
