REMARK  Name = ZINC03654389
REMARK  5 active torsions:
REMARK  status: ('A' for Active; 'I' for Inactive)
REMARK    1  A    between atoms: C_1  and  O_2
REMARK    2  A    between atoms: O_2  and  C_3
REMARK    3  A    between atoms: C_8  and  C_9
REMARK    4  A    between atoms: C_11  and  C_37
REMARK    5  A    between atoms: C_27  and  C_30
REMARK                            x       y       z     vdW  Elec       q    Type
REMARK                         _______ _______ _______ _____ _____    ______ ____
ROOT
ATOM      1  C   UNL     1      -0.018   1.512   0.010  0.00  0.00    +0.101 C 
ATOM      2  C   UNL     1       1.343   2.177   0.001  0.00  0.00    +0.082 C 
ATOM      3  C   UNL     1       2.424   1.407   0.422  0.00  0.00    +0.146 C 
ATOM      4  N   UNL     1       3.627   1.993   0.459  0.00  0.00    -0.215 NA
ATOM      5  C   UNL     1       4.670   1.413   1.018  0.00  0.00    +0.127 C 
ATOM      6  C   UNL     1       4.486   0.104   1.663  0.00  0.00    +0.036 A 
ATOM      7  C   UNL     1       5.529  -0.523   2.344  0.00  0.00    +0.013 A 
ATOM      8  C   UNL     1       5.293  -1.706   3.012  0.00  0.00    +0.001 A 
ATOM      9  C   UNL     1       4.015  -2.240   3.047  0.00  0.00    +0.002 A 
ATOM     10  C   UNL     1       2.975  -1.624   2.377  0.00  0.00    +0.024 A 
ATOM     11  C   UNL     1       3.211  -0.494   1.613  0.00  0.00    +0.050 A 
ATOM     12  N   UNL     1       2.236   0.090   0.810  0.00  0.00    -0.256 N 
ATOM     13  C   UNL     1       1.132  -0.622   0.423  0.00  0.00    +0.025 C 
ATOM     14  C   UNL     1       0.002  -0.004   0.002  0.00  0.00    +0.025 C 
ATOM     15  C   UNL     1      -1.120  -0.706  -0.449  0.00  0.00    +0.162 C 
ATOM     16  O   UNL     1      -2.127  -0.103  -0.768  0.00  0.00    -0.292 OA
ATOM     17  C   UNL     1      -1.102  -2.210  -0.553  0.00  0.00    +0.088 C 
ATOM     18  C   UNL     1       0.348  -2.663  -0.757  0.00  0.00    +0.032 C 
ATOM     19  C   UNL     1       1.184  -2.132   0.413  0.00  0.00    +0.060 C 
ATOM     20  N   UNL     1       5.899   2.022   0.993  0.00  0.00    -0.343 N 
ATOM     21  H   UNL     1       6.663   1.589   1.406  0.00  0.00    +0.144 HD
ATOM     22  H   UNL     1       6.005   2.885   0.563  0.00  0.00    +0.144 HD
ENDROOT
BRANCH   1  28
ATOM     23  C   UNL     1      -1.889   2.743   1.139  0.00  0.00    +0.124 A 
ATOM     24  C   UNL     1      -2.558   3.155   2.283  0.00  0.00    +0.046 A 
ATOM     25  C   UNL     1      -2.078   2.800   3.528  0.00  0.00    +0.004 A 
ATOM     26  C   UNL     1      -0.935   2.030   3.636  0.00  0.00    +0.001 A 
ATOM     27  C   UNL     1      -0.269   1.613   2.498  0.00  0.00    +0.008 A 
ATOM     28  C   UNL     1      -0.745   1.966   1.250  0.00  0.00    +0.007 A 
BRANCH  23  30
ATOM     29  C   UNL     1      -3.538   3.898  -0.125  0.00  0.00    +0.277 C 
ATOM     30  O   UNL     1      -2.355   3.096  -0.087  0.00  0.00    -0.495 OA
ENDBRANCH  23  30
ENDBRANCH   1  28
BRANCH  18  31
ATOM     31  C   UNL     1       0.412  -4.168  -0.781  0.00  0.00    -0.044 A 
ATOM     32  C   UNL     1      -0.032  -4.896   0.307  0.00  0.00    +0.004 A 
ATOM     33  C   UNL     1       0.023  -6.277   0.283  0.00  0.00    +0.000 A 
ATOM     34  C   UNL     1       0.529  -6.930  -0.825  0.00  0.00    +0.000 A 
ATOM     35  C   UNL     1       0.977  -6.202  -1.911  0.00  0.00    +0.000 A 
ATOM     36  C   UNL     1       0.919  -4.821  -1.889  0.00  0.00    +0.004 A 
ENDBRANCH  18  31
BRANCH   2  37
ATOM     37  C   UNL     1       1.507   3.532  -0.422  0.00  0.00    +0.099 C 
ATOM     38  N   UNL     1       1.638   4.610  -0.758  0.00  0.00    -0.191 NA
ENDBRANCH   2  37
TORSDOF 4
