REMARK  Name = ZINC36740764
REMARK  6 active torsions:
REMARK  status: ('A' for Active; 'I' for Inactive)
REMARK    1  A    between atoms: C_1  and  C_2
REMARK    2  A    between atoms: N_11  and  C_15
REMARK    3  A    between atoms: C_15  and  C_16
REMARK    4  A    between atoms: N_18  and  C_19
REMARK    5  A    between atoms: C_20  and  C_28
REMARK    6  A    between atoms: C_28  and  C_30
REMARK                            x       y       z     vdW  Elec       q    Type
REMARK                         _______ _______ _______ _____ _____    ______ ____
ROOT
ATOM      1  C   UNL     1       1.252   0.597   5.505  0.00  0.00    +0.236 C 
ATOM      2  O   UNL     1       1.638  -0.533   5.295  0.00  0.00    -0.274 OA
ATOM      3  N   UNL     1       1.160   1.055   6.769  0.00  0.00    -0.278 N 
ATOM      4  H   UNL     1       0.852   1.959   6.936  0.00  0.00    +0.155 HD
ENDROOT
BRANCH   3   5
ATOM      5  C   UNL     1       1.505   0.233   7.829  0.00  0.00    +0.083 A 
ATOM      6  C   UNL     1       1.576   0.562   9.177  0.00  0.00    +0.054 A 
ATOM      7  C   UNL     1       1.968  -0.492  10.097  0.00  0.00    -0.024 A 
ATOM      8  C   UNL     1       2.217  -1.679   9.503  0.00  0.00    -0.005 A 
ATOM      9  S   UNL     1       1.928  -1.391   7.782  0.00  0.00    -0.077 S 
ATOM     10  C   UNL     1       2.639  -2.950  10.175  0.00  0.00    +0.043 C 
ATOM     11  C   UNL     1       3.113  -2.610  11.595  0.00  0.00    +0.005 C 
ATOM     12  C   UNL     1       2.076  -1.700  12.260  0.00  0.00    +0.005 C 
ATOM     13  C   UNL     1       2.098  -0.318  11.603  0.00  0.00    +0.037 C 
BRANCH   6  14
ATOM     14  C   UNL     1       1.269   1.914   9.650  0.00  0.00    +0.196 C 
ATOM     15  O   UNL     1       0.148   2.182  10.042  0.00  0.00    -0.287 OA
BRANCH  14  16
ATOM     16  C   UNL     1       2.322   2.953   9.653  0.00  0.00    +0.022 A 
ATOM     17  C   UNL     1       3.576   2.682   9.102  0.00  0.00    +0.012 A 
ATOM     18  C   UNL     1       4.553   3.656   9.107  0.00  0.00    +0.001 A 
ATOM     19  C   UNL     1       4.293   4.899   9.658  0.00  0.00    +0.000 A 
ATOM     20  C   UNL     1       3.052   5.173  10.206  0.00  0.00    +0.001 A 
ATOM     21  C   UNL     1       2.064   4.210  10.202  0.00  0.00    +0.012 A 
ENDBRANCH  14  16
ENDBRANCH   6  14
ENDBRANCH   3   5
BRANCH   1  22
ATOM     22  C   UNL     1       0.876   1.491   4.351  0.00  0.00    +0.214 C 
BRANCH  22  32
ATOM     23  C   UNL     1      -0.044   1.499   0.014  0.00  0.00    +0.010 C 
ATOM     24  C   UNL     1       0.000  -0.031   0.005  0.00  0.00    +0.018 C 
ATOM     25  C   UNL     1      -1.428  -0.582   0.014  0.00  0.00    +0.006 C 
ATOM     26  C   UNL     1      -1.383  -2.111   0.026  0.00  0.00    +0.000 C 
ATOM     27  C   UNL     1      -0.653  -2.591   1.282  0.00  0.00    +0.003 C 
ATOM     28  C   UNL     1       0.778  -2.048   1.279  0.00  0.00    +0.035 C 
ATOM     29  C   UNL     1       0.746  -0.524   1.240  0.00  0.00    +0.115 C 
ATOM     30  C   UNL     1       0.107   0.023   2.496  0.00  0.00    +0.247 C 
ATOM     31  O   UNL     1      -1.025  -0.167   2.886  0.00  0.00    -0.273 OA
ATOM     32  N   UNL     1       1.062   0.767   3.091  0.00  0.00    -0.215 N 
ATOM     33  C   UNL     1       2.201   0.761   2.388  0.00  0.00    +0.310 C 
ATOM     34  O   UNL     1       3.205   1.359   2.722  0.00  0.00    -0.252 OA
ATOM     35  N   UNL     1       2.110   0.019   1.268  0.00  0.00    -0.285 N 
ATOM     36  H   UNL     1       2.807  -0.128   0.610  0.00  0.00    +0.151 HD
ENDBRANCH  22  32
ENDBRANCH   1  22
TORSDOF 5
