REMARK  Name = ZINC03651869
REMARK  6 active torsions:
REMARK  status: ('A' for Active; 'I' for Inactive)
REMARK    1  A    between atoms: C_1  and  C_2
REMARK    2  A    between atoms: C_2  and  C_30
REMARK    3  A    between atoms: P_5  and  C_9
REMARK    4  A    between atoms: C_9  and  C_11
REMARK    5  A    between atoms: C_9  and  N_21
REMARK    6  A    between atoms: N_21  and  C_22
REMARK                            x       y       z     vdW  Elec       q    Type
REMARK                         _______ _______ _______ _____ _____    ______ ____
ROOT
ATOM      1  C   UNL     1       0.416  -4.487  -0.010  0.00  0.00    +0.186 C 
ENDROOT
BRANCH   1   2
ATOM      2  C   UNL     1       1.085  -5.182   1.148  0.00  0.00    +0.007 A 
ATOM      3  C   UNL     1       2.311  -5.730   1.151  0.00  0.00    +0.089 A 
ATOM      4  N   UNL     1       2.578  -6.269   2.379  0.00  0.00    -0.360 N 
ATOM      5  H   UNL     1       3.402  -6.720   2.623  0.00  0.00    +0.165 HD
ATOM      6  C   UNL     1       1.504  -6.077   3.219  0.00  0.00    +0.047 A 
ATOM      7  C   UNL     1       0.524  -5.382   2.486  0.00  0.00    +0.005 A 
ATOM      8  C   UNL     1      -0.687  -5.041   3.091  0.00  0.00    +0.010 A 
ATOM      9  C   UNL     1      -0.913  -5.381   4.395  0.00  0.00    +0.001 A 
ATOM     10  C   UNL     1       0.052  -6.063   5.124  0.00  0.00    +0.002 A 
ATOM     11  C   UNL     1       1.250  -6.418   4.543  0.00  0.00    +0.026 A 
ENDBRANCH   1   2
BRANCH   1  16
ATOM     12  C   UNL     1      -0.774   1.377   0.071  0.00  0.00    +0.015 C 
ATOM     13  C   UNL     1      -0.561  -0.138   0.058  0.00  0.00    +0.013 C 
ATOM     14  C   UNL     1       0.104  -0.542  -1.258  0.00  0.00    +0.176 C 
ATOM     15  O   UNL     1       0.228  -1.976  -1.300  0.00  0.00    -0.329 OA
ATOM     16  P   UNL     1       0.940  -2.742  -0.057  0.00  0.00    +0.196 P 
ATOM     17  S   UNL     1       2.794  -2.632  -0.209  0.00  0.00    -0.006 S 
ATOM     18  O   UNL     1       0.441  -1.967   1.282  0.00  0.00    -0.329 OA
ATOM     19  C   UNL     1       0.311  -0.534   1.250  0.00  0.00    +0.176 C 
ATOM     20  C   UNL     1      -1.917  -0.838   0.171  0.00  0.00    +0.015 C 
ENDBRANCH   1  16
BRANCH   1  21
ATOM     21  N   UNL     1       0.799  -5.146  -1.262  0.00  0.00    -0.329 N 
ATOM     22  H   UNL     1       1.722  -5.405  -1.411  0.00  0.00    +0.147 HD
BRANCH  21  23
ATOM     23  C   UNL     1      -0.165  -5.401  -2.240  0.00  0.00    +0.029 A 
ATOM     24  C   UNL     1       0.160  -6.163  -3.356  0.00  0.00    +0.024 A 
ATOM     25  C   UNL     1      -0.795  -6.414  -4.321  0.00  0.00    +0.023 A 
ATOM     26  C   UNL     1      -2.075  -5.907  -4.180  0.00  0.00    +0.059 A 
ATOM     27  C   UNL     1      -2.402  -5.147  -3.070  0.00  0.00    +0.061 A 
ATOM     28  C   UNL     1      -1.452  -4.899  -2.096  0.00  0.00    +0.044 A 
ATOM     29 CL   UNL     1      -4.008  -4.513  -2.896  0.00  0.00    -0.082 Cl
ATOM     30 CL   UNL     1      -3.272  -6.225  -5.396  0.00  0.00    -0.082 Cl
ENDBRANCH  21  23
ENDBRANCH   1  21
TORSDOF 4
