REMARK  Name = ZINC12190573
REMARK  11 active torsions:
REMARK  status: ('A' for Active; 'I' for Inactive)
REMARK    1  A    between atoms: C_1  and  C_2
REMARK    2  A    between atoms: C_5  and  C_35
REMARK    3  A    between atoms: C_6  and  C_8
REMARK    4  A    between atoms: C_13  and  C_16
REMARK    5  A    between atoms: C_16  and  C_27
REMARK    6  A    between atoms: N_19  and  C_23
REMARK    7  A    between atoms: C_23  and  C_24
REMARK    8  A    between atoms: C_24  and  N_71
REMARK    9  A    between atoms: C_25  and  N_71
REMARK   10  A    between atoms: C_26  and  N_71
REMARK   11  A    between atoms: C_27  and  C_28
REMARK                            x       y       z     vdW  Elec       q    Type
REMARK                         _______ _______ _______ _____ _____    ______ ____
ROOT
ATOM      1  C   UNL     1      -1.363  -5.615   2.575  0.00  0.00    +0.119 C 
ATOM      2  C   UNL     1      -2.583  -6.505   2.450  0.00  0.00    +0.247 C 
ATOM      3  O   UNL     1      -2.810  -7.319   1.581  0.00  0.00    -0.273 OA
ATOM      4  N   UNL     1      -3.363  -6.199   3.510  0.00  0.00    -0.226 N 
ATOM      5  C   UNL     1      -2.808  -5.252   4.276  0.00  0.00    +0.309 C 
ATOM      6  O   UNL     1      -3.321  -4.813   5.286  0.00  0.00    -0.252 OA
ATOM      7  N   UNL     1      -1.618  -4.841   3.802  0.00  0.00    -0.284 N 
ATOM      8  H   UNL     1      -1.040  -4.168   4.193  0.00  0.00    +0.151 HD
ENDROOT
BRANCH   1  14
ATOM      9  C   UNL     1      -1.241  -0.807   0.009  0.00  0.00    +0.247 C 
ATOM     10  O   UNL     1      -2.312  -0.237  -0.062  0.00  0.00    -0.270 OA
ATOM     11  N   UNL     1      -1.198  -2.150   0.110  0.00  0.00    -0.297 N 
ATOM     12  C   UNL     1       0.080  -2.845   0.317  0.00  0.00    +0.108 C 
ATOM     13  C   UNL     1      -0.051  -3.751   1.550  0.00  0.00    +0.025 C 
ATOM     14  C   UNL     1      -1.250  -4.684   1.365  0.00  0.00    +0.025 C 
ATOM     15  C   UNL     1      -2.530  -3.854   1.240  0.00  0.00    +0.025 C 
ATOM     16  C   UNL     1      -2.428  -2.948   0.009  0.00  0.00    +0.108 C 
BRANCH   9  22
ATOM     17  C   UNL     1       3.313  -0.018  -1.872  0.00  0.00    +0.044 C 
ATOM     18  C   UNL     1       2.207   0.357  -0.919  0.00  0.00    -0.050 A 
ATOM     19  C   UNL     1       2.367   1.433  -0.065  0.00  0.00    +0.003 A 
ATOM     20  C   UNL     1       1.357   1.784   0.813  0.00  0.00    +0.004 A 
ATOM     21  C   UNL     1       0.182   1.060   0.842  0.00  0.00    -0.038 A 
ATOM     22  C   UNL     1       0.015  -0.027  -0.017  0.00  0.00    +0.040 A 
ATOM     23  C   UNL     1       1.038  -0.375  -0.901  0.00  0.00    +0.016 A 
ATOM     24  C   UNL     1      -0.920   1.447   1.794  0.00  0.00    +0.044 C 
ENDBRANCH   9  22
ENDBRANCH   1  14
BRANCH   4  25
ATOM     25  C   UNL     1      -4.658  -6.827   3.787  0.00  0.00    +0.099 C 
BRANCH  25  26
ATOM     26  C   UNL     1      -5.769  -6.027   3.104  0.00  0.00    -0.060 C 
BRANCH  26  29
ATOM     27  C   UNL     1      -7.400  -6.568   4.810  0.00  0.00    -0.097 C 
ATOM     28  C   UNL     1      -8.127  -6.062   2.557  0.00  0.00    -0.097 C 
ATOM     29  N   UNL     1      -7.065  -6.684   3.375  0.00  0.00    +0.377 N 
ATOM     30  H   UNL     1      -6.993  -7.678   3.128  0.00  0.00    -0.083 HD
ENDBRANCH  26  29
ENDBRANCH  25  26
ENDBRANCH   4  25
BRANCH   1  31
ATOM     31  C   UNL     1      -0.094  -6.457   2.723  0.00  0.00    +0.070 C 
BRANCH  31  32
ATOM     32  C   UNL     1      -0.231  -7.364   3.919  0.00  0.00    -0.042 A 
ATOM     33  C   UNL     1      -0.774  -8.627   3.771  0.00  0.00    +0.004 A 
ATOM     34  C   UNL     1      -0.900  -9.459   4.867  0.00  0.00    +0.003 A 
ATOM     35  C   UNL     1      -0.482  -9.030   6.113  0.00  0.00    +0.038 A 
ATOM     36  C   UNL     1       0.062  -7.766   6.263  0.00  0.00    +0.124 A 
ATOM     37  C   UNL     1       0.193  -6.935   5.163  0.00  0.00    +0.042 A 
ATOM     38  F   UNL     1       0.471  -7.346   7.480  0.00  0.00    -0.205 F 
ENDBRANCH  31  32
ENDBRANCH   1  31
TORSDOF 7
