REMARK  Name = ZINC06752715
REMARK  8 active torsions:
REMARK  status: ('A' for Active; 'I' for Inactive)
REMARK    1  A    between atoms: C_1  and  C_2
REMARK    2  A    between atoms: C_2  and  O_28
REMARK    3  A    between atoms: C_6  and  O_10
REMARK    4  A    between atoms: C_11  and  C_21
REMARK    5  A    between atoms: C_13  and  C_15
REMARK    6  A    between atoms: C_15  and  O_17
REMARK    7  A    between atoms: O_17  and  C_18
REMARK    8  A    between atoms: C_18  and  C_19
REMARK                            x       y       z     vdW  Elec       q    Type
REMARK                         _______ _______ _______ _____ _____    ______ ____
ROOT
ATOM      1  C   UNL     1       4.667  -0.590  -0.776  0.00  0.00    +0.042 C 
ATOM      2  C   UNL     1       4.710   0.891  -1.161  0.00  0.00    +0.082 C 
ATOM      3  C   UNL     1       5.473   1.676  -0.087  0.00  0.00    +0.090 C 
ATOM      4  C   UNL     1       4.630   1.714   1.163  0.00  0.00    +0.046 A 
ATOM      5  C   UNL     1       3.303   1.433   1.195  0.00  0.00    +0.044 A 
ATOM      6  C   UNL     1       2.865   1.568   2.515  0.00  0.00    +0.235 A 
ATOM      7  N   UNL     1       3.896   1.920   3.249  0.00  0.00    -0.136 NA
ATOM      8  N   UNL     1       5.019   2.017   2.413  0.00  0.00    -0.278 N 
ATOM      9  H   UNL     1       5.944   2.267   2.698  0.00  0.00    +0.189 HD
ATOM     10  C   UNL     1       2.490   1.047  -0.016  0.00  0.00    +0.072 C 
ATOM     11  C   UNL     1       3.282   1.431  -1.272  0.00  0.00    +0.141 C 
ENDROOT
BRANCH  10  12
ATOM     12  C   UNL     1       1.175   1.783   0.000  0.00  0.00    -0.038 A 
ATOM     13  C   UNL     1      -0.013   1.076   0.008  0.00  0.00    +0.004 A 
ATOM     14  C   UNL     1      -1.219   1.750   0.017  0.00  0.00    +0.001 A 
ATOM     15  C   UNL     1      -1.238   3.133   0.030  0.00  0.00    +0.015 A 
ATOM     16  C   UNL     1      -0.050   3.841   0.022  0.00  0.00    +0.018 A 
ATOM     17  C   UNL     1       1.157   3.165   0.007  0.00  0.00    +0.019 A 
ATOM     18 BR   UNL     1      -0.076   5.731   0.032  0.00  0.00    -0.050 Br
ENDBRANCH  10  12
BRANCH   6  19
ATOM     19  O   UNL     1       1.596   1.370   2.961  0.00  0.00    -0.491 OA
ATOM     20  H   UNL     1       1.560   1.534   3.947  0.00  0.00    +0.294 HD
ENDBRANCH   6  19
BRANCH  11  21
ATOM     21  C   UNL     1       2.614   0.840  -2.486  0.00  0.00    +0.314 C 
ATOM     22  O   UNL     1       3.218   0.066  -3.191  0.00  0.00    -0.250 OA
BRANCH  21  23
ATOM     23  O   UNL     1       1.349   1.174  -2.786  0.00  0.00    -0.460 OA
BRANCH  23  24
ATOM     24  C   UNL     1       0.770   0.566  -3.970  0.00  0.00    +0.259 C 
BRANCH  24  25
ATOM     25  C   UNL     1      -0.645   1.055  -4.145  0.00  0.00    +0.006 C 
ATOM     26  C   UNL     1      -1.066   1.432  -5.327  0.00  0.00    +0.007 C 
ENDBRANCH  24  25
ENDBRANCH  23  24
ENDBRANCH  21  23
ENDBRANCH  11  21
BRANCH   2  27
ATOM     27  O   UNL     1       5.373   1.036  -2.418  0.00  0.00    -0.388 OA
ATOM     28  H   UNL     1       6.285   0.714  -2.422  0.00  0.00    +0.210 HD
ENDBRANCH   2  27
TORSDOF 7
