REMARK  Name = ZINC29914803
REMARK  11 active torsions:
REMARK  status: ('A' for Active; 'I' for Inactive)
REMARK    1  A    between atoms: C_1  and  C_2
REMARK    2  A    between atoms: C_2  and  C_3
REMARK    3  A    between atoms: C_3  and  C_4
REMARK    4  A    between atoms: C_4  and  C_6
REMARK    5  A    between atoms: C_4  and  C_20
REMARK    6  A    between atoms: C_6  and  N_7
REMARK    7  A    between atoms: C_8  and  C_10
REMARK    8  A    between atoms: C_10  and  S_11
REMARK    9  A    between atoms: S_11  and  C_12
REMARK   10  A    between atoms: C_14  and  C_19
REMARK   11  A    between atoms: C_16  and  N_18
REMARK                            x       y       z     vdW  Elec       q    Type
REMARK                         _______ _______ _______ _____ _____    ______ ____
ROOT
ATOM      1  N   UNL     1       7.236   1.194   0.020  0.00  0.00    -0.314 N 
ATOM      2  C   UNL     1       6.130   0.426   0.072  0.00  0.00    +0.223 C 
ATOM      3  O   UNL     1       6.231  -0.780   0.156  0.00  0.00    -0.275 OA
ATOM      4  H   UNL     1       7.144   2.287  -0.057  0.00  0.00    +0.149 HD
ENDROOT
BRANCH   1   5
ATOM      5  C   UNL     1       8.562   0.572   0.065  0.00  0.00    +0.112 C 
BRANCH   5   6
ATOM      6  C   UNL     1       9.636   1.647  -0.108  0.00  0.00    +0.038 C 
BRANCH   6   7
ATOM      7  C   UNL     1      10.999   1.031   0.076  0.00  0.00    -0.024 A 
ATOM      8  C   UNL     1      11.413   0.009  -0.757  0.00  0.00    +0.007 A 
ATOM      9  C   UNL     1      12.663  -0.557  -0.588  0.00  0.00    +0.020 A 
ATOM     10  C   UNL     1      13.500  -0.101   0.415  0.00  0.00    +0.042 A 
ATOM     11  C   UNL     1      13.086   0.922   1.249  0.00  0.00    +0.040 A 
ATOM     12  C   UNL     1      11.837   1.492   1.076  0.00  0.00    +0.046 A 
ATOM     13 CL   UNL     1      11.319   2.781   2.117  0.00  0.00    -0.083 Cl
ATOM     14 CL   UNL     1      15.069  -0.812   0.626  0.00  0.00    -0.083 Cl
ENDBRANCH   6   7
BRANCH   6  15
ATOM     15  C   UNL     1       9.534   2.249  -1.511  0.00  0.00    +0.009 C 
BRANCH  15  17
ATOM     16  C   UNL     1      10.329   4.095  -2.996  0.00  0.00    +0.004 C 
ATOM     17  C   UNL     1      10.520   3.413  -1.639  0.00  0.00    -0.003 C 
ENDBRANCH  15  17
ENDBRANCH   6  15
ENDBRANCH   5   6
ENDBRANCH   1   5
BRANCH   2  18
ATOM     18  C   UNL     1       4.766   1.065   0.025  0.00  0.00    +0.173 C 
BRANCH  18  19
ATOM     19  S   UNL     1       3.494  -0.219   0.113  0.00  0.00    -0.077 S 
BRANCH  19  20
ATOM     20  C   UNL     1       2.044   0.780   0.042  0.00  0.00    +0.191 A 
ATOM     21  N   UNL     1       0.855   0.197   0.081  0.00  0.00    -0.227 NA
ATOM     22  C   UNL     1      -0.258   0.915   0.029  0.00  0.00    +0.044 A 
ATOM     23  C   UNL     1      -0.170   2.291  -0.068  0.00  0.00    +0.066 A 
ATOM     24  C   UNL     1       1.097   2.877  -0.107  0.00  0.00    +0.121 A 
ATOM     25  N   UNL     1       2.171   2.096  -0.050  0.00  0.00    -0.207 NA
ATOM     26  C   UNL     1      -1.603   0.239   0.073  0.00  0.00    +0.066 C 
BRANCH  24  27
ATOM     27  N   UNL     1       1.232   4.252  -0.203  0.00  0.00    -0.343 N 
ATOM     28  H   UNL     1       2.234   4.706  -0.233  0.00  0.00    +0.144 HD
ATOM     29  H   UNL     1       0.337   4.891  -0.250  0.00  0.00    +0.144 HD
ENDBRANCH  24  27
ENDBRANCH  19  20
ENDBRANCH  18  19
ENDBRANCH   2  18
TORSDOF 9
