REMARK  Name = ZINC39686054
REMARK  9 active torsions:
REMARK  status: ('A' for Active; 'I' for Inactive)
REMARK    1  A    between atoms: C_1  and  C_2
REMARK    2  A    between atoms: C_2  and  C_3
REMARK    3  A    between atoms: C_3  and  C_5
REMARK    4  A    between atoms: C_3  and  C_11
REMARK    5  A    between atoms: C_15  and  C_24
REMARK    6  A    between atoms: N_26  and  C_27
REMARK    7  A    between atoms: C_33  and  C_35
REMARK    8  A    between atoms: C_35  and  C_36
REMARK    9  A    between atoms: C_35  and  C_37
REMARK                            x       y       z     vdW  Elec       q    Type
REMARK                         _______ _______ _______ _____ _____    ______ ____
ROOT
ATOM      1  C   UNL     1      -3.825  -3.702   1.080  0.00  0.00    +0.223 C 
ATOM      2  O   UNL     1      -4.542  -4.514   0.534  0.00  0.00    -0.275 OA
ATOM      3  N   UNL     1      -3.023  -4.084   2.093  0.00  0.00    -0.300 N 
ATOM      4  C   UNL     1      -2.091  -3.243   2.881  0.00  0.00    +0.121 C 
ATOM      5  C   UNL     1      -2.231  -3.757   4.331  0.00  0.00    +0.100 C 
ATOM      6  C   UNL     1      -2.743  -5.200   4.188  0.00  0.00    -0.004 C 
ATOM      7  C   UNL     1      -2.879  -5.439   2.677  0.00  0.00    +0.115 C 
ATOM      8  C   UNL     1      -1.741  -6.179   4.791  0.00  0.00    -0.010 C 
ATOM      9  C   UNL     1      -2.299  -7.601   4.688  0.00  0.00    -0.082 C 
ATOM     10  N   UNL     1      -3.579  -7.680   5.402  0.00  0.00    +0.379 N 
ATOM     11  C   UNL     1      -4.565  -6.803   4.758  0.00  0.00    -0.082 C 
ATOM     12  C   UNL     1      -4.103  -5.347   4.864  0.00  0.00    -0.010 C 
ATOM     13  H   UNL     1      -3.914  -8.631   5.385  0.00  0.00    -0.086 HD
ATOM     14  H   UNL     1      -3.447  -7.389   6.359  0.00  0.00    -0.086 HD
ENDROOT
BRANCH   5  15
ATOM     15  C   UNL     1      -0.894  -3.739   5.025  0.00  0.00    +0.218 C 
ATOM     16  O   UNL     1       0.126  -3.872   4.382  0.00  0.00    -0.275 OA
ATOM     17  N   UNL     1      -0.831  -3.575   6.362  0.00  0.00    -0.312 N 
ATOM     18  H   UNL     1      -1.646  -3.468   6.876  0.00  0.00    +0.149 HD
BRANCH  17  19
ATOM     19  C   UNL     1       0.469  -3.557   7.037  0.00  0.00    +0.076 C 
ATOM     20  C   UNL     1       0.907  -4.992   7.338  0.00  0.00    +0.041 C 
ATOM     21  C   UNL     1       2.282  -4.972   8.013  0.00  0.00    +0.109 C 
ATOM     22  N   UNL     1       2.216  -4.101   9.194  0.00  0.00    -0.301 N 
ATOM     23  C   UNL     1       1.723  -2.726   9.031  0.00  0.00    +0.109 C 
ATOM     24  C   UNL     1       0.354  -2.772   8.345  0.00  0.00    +0.041 C 
ATOM     25  C   UNL     1       2.601  -4.553  10.404  0.00  0.00    +0.218 C 
ATOM     26  O   UNL     1       2.473  -3.850  11.383  0.00  0.00    -0.275 OA
BRANCH  25  27
ATOM     27  C   UNL     1       3.191  -5.933  10.539  0.00  0.00    +0.069 C 
ATOM     28  C   UNL     1       4.667  -5.899  10.139  0.00  0.00    +0.017 C 
ATOM     29  C   UNL     1       3.067  -6.401  11.991  0.00  0.00    +0.017 C 
ENDBRANCH  25  27
ENDBRANCH  17  19
ENDBRANCH   5  15
BRANCH   1  30
ATOM     30  C   UNL     1      -3.832  -2.265   0.625  0.00  0.00    +0.105 C 
BRANCH  30  31
ATOM     31  C   UNL     1      -4.807  -2.103  -0.513  0.00  0.00    -0.036 A 
ATOM     32  C   UNL     1      -4.636  -2.827  -1.678  0.00  0.00    +0.004 A 
ATOM     33  C   UNL     1      -5.530  -2.678  -2.722  0.00  0.00    +0.000 A 
ATOM     34  C   UNL     1      -6.596  -1.806  -2.600  0.00  0.00    +0.000 A 
ATOM     35  C   UNL     1      -6.767  -1.083  -1.434  0.00  0.00    +0.000 A 
ATOM     36  C   UNL     1      -5.876  -1.235  -0.389  0.00  0.00    +0.004 A 
ENDBRANCH  30  31
BRANCH  30  38
ATOM     37  C   UNL     1      -2.406  -0.382  -0.190  0.00  0.00    +0.005 C 
ATOM     38  C   UNL     1      -2.430  -1.873   0.155  0.00  0.00    +0.014 C 
ENDBRANCH  30  38
ENDBRANCH   1  30
TORSDOF 6
