REMARK  Name = ZINC08439864
REMARK  12 active torsions:
REMARK  status: ('A' for Active; 'I' for Inactive)
REMARK    1  A    between atoms: C_1  and  C_2
REMARK    2  A    between atoms: C_3  and  C_32
REMARK    3  A    between atoms: C_4  and  C_20
REMARK    4  A    between atoms: C_10  and  C_15
REMARK    5  A    between atoms: C_22  and  O_30
REMARK    6  A    between atoms: C_23  and  O_28
REMARK    7  A    between atoms: C_25  and  O_26
REMARK    8  A    between atoms: O_26  and  C_27
REMARK    9  A    between atoms: O_28  and  C_29
REMARK   10  A    between atoms: O_30  and  C_31
REMARK   11  A    between atoms: C_32  and  O_34
REMARK   12  A    between atoms: O_34  and  C_35
REMARK                            x       y       z     vdW  Elec       q    Type
REMARK                         _______ _______ _______ _____ _____    ______ ____
ROOT
ATOM      1  C   UNL     1      -8.191   2.918   3.101  0.00  0.00    +0.061 C 
ATOM      2  C   UNL     1      -7.365   1.657   3.091  0.00  0.00    +0.031 C 
ATOM      3  C   UNL     1      -7.099   1.043   1.925  0.00  0.00    +0.154 C 
ATOM      4  C   UNL     1      -6.271  -0.209   1.876  0.00  0.00    +0.077 C 
ATOM      5  C   UNL     1      -6.194  -0.859   3.235  0.00  0.00    +0.025 C 
ATOM      6  C   UNL     1      -6.495  -0.161   4.351  0.00  0.00    +0.049 C 
ATOM      7  N   UNL     1      -6.892   1.146   4.267  0.00  0.00    -0.260 NA
ATOM      8  C   UNL     1      -6.402  -0.800   5.714  0.00  0.00    +0.065 C 
ATOM      9  C   UNL     1      -6.705  -2.293   5.605  0.00  0.00    +0.039 C 
ATOM     10  C   UNL     1      -5.710  -2.924   4.625  0.00  0.00    +0.088 C 
ATOM     11  C   UNL     1      -5.802  -2.207   3.305  0.00  0.00    +0.162 C 
ATOM     12  O   UNL     1      -5.533  -2.804   2.282  0.00  0.00    -0.292 OA
ENDROOT
BRANCH   4  13
ATOM     13  C   UNL     1      -4.879   0.129   1.410  0.00  0.00    +0.007 A 
ATOM     14  C   UNL     1      -4.103   1.014   2.136  0.00  0.00    +0.057 A 
ATOM     15  C   UNL     1      -2.823   1.326   1.709  0.00  0.00    +0.162 A 
ATOM     16  C   UNL     1      -2.317   0.748   0.548  0.00  0.00    +0.165 A 
ATOM     17  C   UNL     1      -3.097  -0.134  -0.181  0.00  0.00    +0.095 A 
ATOM     18  C   UNL     1      -4.377  -0.448   0.253  0.00  0.00    +0.128 A 
BRANCH  18  19
ATOM     19  O   UNL     1      -5.142  -1.317  -0.460  0.00  0.00    -0.495 OA
ATOM     20  C   UNL     1      -4.562  -1.874  -1.641  0.00  0.00    +0.277 C 
ENDBRANCH  18  19
BRANCH  16  21
ATOM     21  O   UNL     1      -1.061   1.054   0.127  0.00  0.00    -0.491 OA
ATOM     22  C   UNL     1      -0.607   0.424  -1.073  0.00  0.00    +0.277 C 
ENDBRANCH  16  21
BRANCH  15  23
ATOM     23  O   UNL     1      -2.060   2.197   2.424  0.00  0.00    -0.491 OA
ATOM     24  C   UNL     1      -2.643   2.752   3.605  0.00  0.00    +0.277 C 
ENDBRANCH  15  23
ENDBRANCH   4  13
BRANCH   9  25
ATOM     25  C   UNL     1      -6.561  -2.940   6.959  0.00  0.00    -0.006 A 
ATOM     26  C   UNL     1      -7.483  -3.620   7.683  0.00  0.00    +0.011 A 
ATOM     27  C   UNL     1      -7.123  -4.133   8.915  0.00  0.00    +0.008 A 
ATOM     28  C   UNL     1      -5.858  -3.942   9.362  0.00  0.00    +0.045 A 
ATOM     29  S   UNL     1      -5.128  -3.017   8.021  0.00  0.00    -0.101 S 
ENDBRANCH   9  25
BRANCH   3  30
ATOM     30  C   UNL     1      -7.607   1.587   0.723  0.00  0.00    +0.317 C 
ATOM     31  O   UNL     1      -8.376   2.530   0.758  0.00  0.00    -0.250 OA
BRANCH  30  32
ATOM     32  O   UNL     1      -7.238   1.062  -0.464  0.00  0.00    -0.461 OA
BRANCH  32  33
ATOM     33  C   UNL     1      -7.789   1.662  -1.639  0.00  0.00    +0.176 C 
ATOM     34  C   UNL     1      -9.086   0.933  -2.045  0.00  0.00    +0.044 C 
ATOM     35  C   UNL     1      -9.048   0.926  -3.595  0.00  0.00    +0.004 C 
ATOM     36  C   UNL     1      -7.547   0.694  -3.899  0.00  0.00    +0.004 C 
ATOM     37  C   UNL     1      -6.811   1.511  -2.816  0.00  0.00    +0.044 C 
ENDBRANCH  32  33
ENDBRANCH  30  32
ENDBRANCH   3  30
TORSDOF 8
