REMARK  Name = ZINC49171942
REMARK  11 active torsions:
REMARK  status: ('A' for Active; 'I' for Inactive)
REMARK    1  A    between atoms: C_1  and  C_2
REMARK    2  A    between atoms: C_4  and  C_7
REMARK    3  A    between atoms: C_7  and  N_8
REMARK    4  A    between atoms: C_17  and  C_33
REMARK    5  A    between atoms: C_20  and  C_23
REMARK    6  A    between atoms: N_25  and  C_26
REMARK    7  A    between atoms: C_26  and  C_27
REMARK    8  A    between atoms: N_31  and  C_32
REMARK    9  A    between atoms: C_33  and  C_34
REMARK   10  A    between atoms: C_34  and  C_35
REMARK   11  A    between atoms: C_34  and  C_36
REMARK                            x       y       z     vdW  Elec       q    Type
REMARK                         _______ _______ _______ _____ _____    ______ ____
ROOT
ATOM      1  N   UNL     1      -1.142  -4.222  -1.148  0.00  0.00    -0.340 N 
ATOM      2  C   UNL     1      -1.770  -4.203  -2.375  0.00  0.00    +0.091 A 
ATOM      3  C   UNL     1      -1.187  -5.065  -3.195  0.00  0.00    -0.020 A 
ATOM      4  C   UNL     1      -0.065  -5.658  -2.448  0.00  0.00    +0.008 A 
ATOM      5  C   UNL     1      -0.128  -5.151  -1.149  0.00  0.00    +0.050 A 
ATOM      6  C   UNL     1       0.761  -5.686  -0.221  0.00  0.00    +0.026 A 
ATOM      7  C   UNL     1       1.663  -6.650  -0.625  0.00  0.00    +0.002 A 
ATOM      8  C   UNL     1       1.742  -7.084  -1.946  0.00  0.00    +0.006 A 
ATOM      9  C   UNL     1       0.894  -6.554  -2.875  0.00  0.00    -0.021 A 
ATOM     10  C   UNL     1       1.097  -6.796  -4.359  0.00  0.00    +0.085 C 
ATOM     11  N   UNL     1       1.024  -5.497  -5.049  0.00  0.00    -0.299 NA
ATOM     12  C   UNL     1      -0.308  -5.070  -5.499  0.00  0.00    +0.145 C 
ATOM     13  C   UNL     1      -1.464  -5.493  -4.614  0.00  0.00    +0.065 C 
ATOM     14  H   UNL     1       1.472  -4.774  -4.506  0.00  0.00    +0.123 HD
ENDROOT
BRANCH  12  15
ATOM     15  C   UNL     1      -0.316  -3.566  -5.592  0.00  0.00    +0.231 C 
ATOM     16  O   UNL     1       0.513  -2.917  -4.989  0.00  0.00    -0.274 OA
ATOM     17  N   UNL     1      -1.243  -2.941  -6.345  0.00  0.00    -0.308 N 
ATOM     18  H   UNL     1      -1.905  -3.460  -6.828  0.00  0.00    +0.149 HD
BRANCH  17  19
ATOM     19  C   UNL     1      -1.250  -1.479  -6.436  0.00  0.00    +0.159 C 
BRANCH  19  20
ATOM     20  C   UNL     1      -2.377  -1.037  -7.333  0.00  0.00    +0.053 A 
ATOM     21  C   UNL     1      -3.609  -0.656  -6.945  0.00  0.00    +0.106 A 
ATOM     22  N   UNL     1      -4.310  -0.340  -8.044  0.00  0.00    -0.352 N 
ATOM     23  C   UNL     1      -3.560  -0.510  -9.098  0.00  0.00    +0.173 A 
ATOM     24  N   UNL     1      -2.343  -0.939  -8.698  0.00  0.00    -0.337 N 
ATOM     25  C   UNL     1      -1.201  -1.245  -9.563  0.00  0.00    +0.150 C 
ATOM     26  H   UNL     1      -5.231  -0.033  -8.054  0.00  0.00    +0.166 HD
ENDBRANCH  19  20
ENDBRANCH  17  19
ENDBRANCH  12  15
BRANCH   1  27
ATOM     27  C   UNL     1      -1.500  -3.372  -0.010  0.00  0.00    +0.180 C 
BRANCH  27  31
ATOM     28  C   UNL     1      -0.018   1.503   0.010  0.00  0.00    +0.089 C 
ATOM     29  C   UNL     1       0.002  -0.004   0.002  0.00  0.00    +0.135 A 
ATOM     30  C   UNL     1      -1.077  -0.810   0.003  0.00  0.00    +0.072 A 
ATOM     31  C   UNL     1      -0.627  -2.143  -0.007  0.00  0.00    +0.103 A 
ATOM     32  N   UNL     1       0.676  -2.130  -0.013  0.00  0.00    -0.081 NA
ATOM     33  O   UNL     1       1.098  -0.778  -0.013  0.00  0.00    -0.360 OA
ENDBRANCH  27  31
ENDBRANCH   1  27
BRANCH  10  34
ATOM     34  C   UNL     1       2.469  -7.431  -4.595  0.00  0.00    +0.026 C 
BRANCH  34  35
ATOM     35  C   UNL     1       2.618  -7.788  -6.075  0.00  0.00    -0.015 C 
ATOM     36  C   UNL     1       2.616  -6.506  -6.911  0.00  0.00    +0.007 C 
ATOM     37  C   UNL     1       3.936  -8.534  -6.290  0.00  0.00    +0.007 C 
ENDBRANCH  34  35
ENDBRANCH  10  34
TORSDOF 7
