REMARK  Name = ZINC23192015
REMARK  7 active torsions:
REMARK  status: ('A' for Active; 'I' for Inactive)
REMARK    1  A    between atoms: C_1  and  C_2
REMARK    2  A    between atoms: C_2  and  N_3
REMARK    3  A    between atoms: C_6  and  C_8
REMARK    4  A    between atoms: C_17  and  N_21
REMARK    5  A    between atoms: N_21  and  C_22
REMARK    6  A    between atoms: C_22  and  C_23
REMARK    7  A    between atoms: C_23  and  N_30
REMARK                            x       y       z     vdW  Elec       q    Type
REMARK                         _______ _______ _______ _____ _____    ______ ____
ROOT
ATOM      1  N   UNL     1      -2.345  -1.401  -1.135  0.00  0.00    -0.268 N 
ATOM      2  C   UNL     1      -2.814  -1.513   0.118  0.00  0.00    +0.043 A 
ATOM      3  C   UNL     1      -4.162  -1.372   0.057  0.00  0.00    +0.004 A 
ATOM      4  C   UNL     1      -4.468  -1.174  -1.300  0.00  0.00    +0.151 A 
ATOM      5  N   UNL     1      -3.319  -1.198  -1.954  0.00  0.00    -0.166 NA
ATOM      6  C   UNL     1      -5.081  -1.427   1.246  0.00  0.00    +0.023 C 
ATOM      7  C   UNL     1      -4.237  -1.255   2.516  0.00  0.00    -0.067 C 
ATOM      8  C   UNL     1      -3.044  -2.213   2.471  0.00  0.00    -0.009 C 
ATOM      9  C   UNL     1      -2.052  -1.752   1.396  0.00  0.00    +0.054 C 
ENDROOT
BRANCH   4  10
ATOM     10  C   UNL     1      -5.810  -0.971  -1.881  0.00  0.00    +0.267 C 
ATOM     11  O   UNL     1      -6.798  -1.073  -1.179  0.00  0.00    -0.268 OA
ATOM     12  N   UNL     1      -5.941  -0.673  -3.189  0.00  0.00    -0.295 N 
ATOM     13  C   UNL     1      -4.758  -0.672  -4.051  0.00  0.00    +0.119 C 
ATOM     14  C   UNL     1      -4.880  -1.798  -5.085  0.00  0.00    +0.088 C 
ATOM     15  S   UNL     1      -6.418  -1.559  -6.026  0.00  0.00    -0.158 S 
ATOM     16  C   UNL     1      -7.683  -1.442  -4.725  0.00  0.00    +0.088 C 
ATOM     17  C   UNL     1      -7.264  -0.360  -3.731  0.00  0.00    +0.119 C 
ENDBRANCH   4  10
BRANCH   7  18
ATOM     18  N   UNL     1      -5.061  -1.553   3.695  0.00  0.00    +0.382 N 
ATOM     19  H   UNL     1      -5.889  -0.977   3.681  0.00  0.00    -0.085 HD
ATOM     20  H   UNL     1      -5.328  -2.526   3.682  0.00  0.00    -0.085 HD
BRANCH  18  21
ATOM     21  C   UNL     1      -4.291  -1.273   4.914  0.00  0.00    -0.060 C 
BRANCH  21  22
ATOM     22  C   UNL     1      -5.112  -1.677   6.140  0.00  0.00    +0.007 C 
ATOM     23  C   UNL     1      -4.712  -0.829   7.318  0.00  0.00    +0.020 C 
ATOM     24  C   UNL     1      -3.272  -0.293   7.196  0.00  0.00    +0.002 C 
ATOM     25  C   UNL     1      -2.285  -1.348   6.660  0.00  0.00    +0.000 C 
ATOM     26  C   UNL     1      -2.513  -2.708   7.262  0.00  0.00    +0.000 C 
ATOM     27  C   UNL     1      -3.436  -3.511   6.322  0.00  0.00    +0.002 C 
ATOM     28  C   UNL     1      -4.838  -3.155   6.484  0.00  0.00    +0.020 C 
BRANCH  22  29
ATOM     29  N   UNL     1      -6.542  -1.493   5.859  0.00  0.00    -0.294 NA
ATOM     30  C   UNL     1      -6.854  -0.076   5.621  0.00  0.00    +0.113 C 
ATOM     31  C   UNL     1      -8.339   0.063   5.273  0.00  0.00    +0.175 C 
ATOM     32  O   UNL     1      -9.125  -0.495   6.330  0.00  0.00    -0.377 OA
ATOM     33  C   UNL     1      -8.847  -1.874   6.588  0.00  0.00    +0.175 C 
ATOM     34  C   UNL     1      -7.367  -2.032   6.949  0.00  0.00    +0.113 C 
ENDBRANCH  22  29
ENDBRANCH  21  22
ENDBRANCH  18  21
ENDBRANCH   7  18
BRANCH   1  36
ATOM     35  C   UNL     1      -0.302  -0.098  -1.461  0.00  0.00    +0.029 C 
ATOM     36  C   UNL     1      -0.933  -1.490  -1.515  0.00  0.00    +0.140 C 
ENDBRANCH   1  36
TORSDOF 6
