REMARK  Name = ZINC04200793
REMARK  17 active torsions:
REMARK  status: ('A' for Active; 'I' for Inactive)
REMARK    1  A    between atoms: C_1  and  C_2
REMARK    2  A    between atoms: C_2  and  C_3
REMARK    3  A    between atoms: C_3  and  N_4
REMARK    4  A    between atoms: N_7  and  C_8
REMARK    5  A    between atoms: C_11  and  C_31
REMARK    6  A    between atoms: C_11  and  O_40
REMARK    7  A    between atoms: C_13  and  O_24
REMARK    8  A    between atoms: C_15  and  O_17
REMARK    9  A    between atoms: O_17  and  C_18
REMARK   10  A    between atoms: N_20  and  C_21
REMARK   11  A    between atoms: C_21  and  C_22
REMARK   12  A    between atoms: O_24  and  C_25
REMARK   13  A    between atoms: N_27  and  C_28
REMARK   14  A    between atoms: C_28  and  C_29
REMARK   15  A    between atoms: N_33  and  C_34
REMARK   16  A    between atoms: C_34  and  C_36
REMARK   17  A    between atoms: C_34  and  C_37
REMARK                            x       y       z     vdW  Elec       q    Type
REMARK                         _______ _______ _______ _____ _____    ______ ____
ROOT
ATOM      1  C   UNL     1       5.926   1.898   0.677  0.00  0.00    +0.122 C 
ATOM      2  C   UNL     1       6.336   2.189  -0.768  0.00  0.00    +0.070 C 
ATOM      3  C   UNL     1       5.210   2.948  -1.474  0.00  0.00    +0.147 C 
ATOM      4  C   UNL     1       3.939   2.097  -1.467  0.00  0.00    +0.093 C 
ATOM      5  C   UNL     1       3.529   1.806  -0.022  0.00  0.00    +0.224 C 
ATOM      6  C   UNL     1       4.654   1.047   0.684  0.00  0.00    +0.239 C 
ENDROOT
BRANCH   1  10
ATOM      7  N   UNL     1       9.014   1.181   2.538  0.00  0.00    -0.299 N 
ATOM      8  C   UNL     1       8.023   1.849   1.916  0.00  0.00    +0.300 C 
ATOM      9  O   UNL     1       8.049   3.063   1.862  0.00  0.00    -0.253 OA
ATOM     10  N   UNL     1       7.003   1.171   1.353  0.00  0.00    -0.293 N 
ATOM     11  H   UNL     1       8.994   0.212   2.581  0.00  0.00    +0.150 HD
ATOM     12  H   UNL     1       6.982   0.202   1.397  0.00  0.00    +0.151 HD
BRANCH   7  13
ATOM     13  C   UNL     1      10.123   1.918   3.150  0.00  0.00    +0.105 C 
BRANCH  13  15
ATOM     14  C   UNL     1      12.262   1.699   4.423  0.00  0.00    +0.005 C 
ATOM     15  C   UNL     1      11.104   0.929   3.784  0.00  0.00    +0.015 C 
ENDBRANCH  13  15
ENDBRANCH   7  13
ENDBRANCH   1  10
BRANCH   3  16
ATOM     16  C   UNL     1       5.614   3.235  -2.898  0.00  0.00    +0.246 C 
ATOM     17  O   UNL     1       6.431   2.528  -3.450  0.00  0.00    -0.273 OA
ATOM     18  N   UNL     1       5.069   4.276  -3.556  0.00  0.00    -0.302 N 
ATOM     19  H   UNL     1       4.416   4.841  -3.114  0.00  0.00    +0.150 HD
BRANCH  18  20
ATOM     20  C   UNL     1       5.461   4.555  -4.940  0.00  0.00    +0.156 C 
ATOM     21  C   UNL     1       6.733   5.406  -4.947  0.00  0.00    +0.038 C 
BRANCH  20  22
ATOM     22  C   UNL     1       4.353   5.302  -5.636  0.00  0.00    +0.231 C 
ATOM     23  O   UNL     1       3.335   5.575  -5.035  0.00  0.00    -0.274 OA
ATOM     24  N   UNL     1       4.493   5.668  -6.925  0.00  0.00    -0.328 N 
ATOM     25  H   UNL     1       5.307   5.449  -7.406  0.00  0.00    +0.145 HD
ATOM     26  H   UNL     1       3.779   6.149  -7.373  0.00  0.00    +0.145 HD
ENDBRANCH  20  22
ENDBRANCH  18  20
ENDBRANCH   3  16
BRANCH   3  27
ATOM     27  O   UNL     1       4.964   4.179  -0.792  0.00  0.00    -0.379 OA
ATOM     28  H   UNL     1       4.261   4.713  -1.186  0.00  0.00    +0.211 HD
ENDBRANCH   3  27
BRANCH   6  29
ATOM     29  O   UNL     1       4.265   0.770   2.056  0.00  0.00    -0.441 OA
BRANCH  29  30
ATOM     30  C   UNL     1       3.617  -0.387   2.286  0.00  0.00    +0.401 C 
ATOM     31  O   UNL     1       3.383  -1.146   1.366  0.00  0.00    -0.226 OA
ATOM     32  N   UNL     1       3.228  -0.705   3.536  0.00  0.00    -0.278 N 
ATOM     33  H   UNL     1       3.414  -0.099   4.271  0.00  0.00    +0.152 HD
BRANCH  32  34
ATOM     34  C   UNL     1       2.523  -1.964   3.787  0.00  0.00    +0.134 C 
BRANCH  34  35
ATOM     35  C   UNL     1       2.202  -2.077   5.255  0.00  0.00    -0.016 C 
ATOM     36  C   UNL     1       0.966  -2.276   5.642  0.00  0.00    +0.005 C 
ENDBRANCH  34  35
ENDBRANCH  32  34
ENDBRANCH  29  30
ENDBRANCH   6  29
BRANCH   5  37
ATOM     37  O   UNL     1       2.322   0.998  -0.015  0.00  0.00    -0.443 OA
BRANCH  37  38
ATOM     38  C   UNL     1       1.147   1.655   0.000  0.00  0.00    +0.401 C 
ATOM     39  O   UNL     1       1.130   2.870   0.007  0.00  0.00    -0.226 OA
ATOM     40  N   UNL     1      -0.011   0.966   0.007  0.00  0.00    -0.278 N 
ATOM     41  H   UNL     1       0.002  -0.004   0.002  0.00  0.00    +0.152 HD
BRANCH  40  42
ATOM     42  C   UNL     1      -1.290   1.681   0.017  0.00  0.00    +0.134 C 
BRANCH  42  43
ATOM     43  C   UNL     1      -2.422   0.686   0.017  0.00  0.00    -0.016 C 
ATOM     44  C   UNL     1      -3.339   0.738   0.951  0.00  0.00    +0.005 C 
ENDBRANCH  42  43
ENDBRANCH  40  42
ENDBRANCH  37  38
ENDBRANCH   5  37
TORSDOF 15
