REMARK  Name = ZINC09325624
REMARK  10 active torsions:
REMARK  status: ('A' for Active; 'I' for Inactive)
REMARK    1  A    between atoms: C_1  and  C_2
REMARK    2  A    between atoms: C_2  and  O_3
REMARK    3  A    between atoms: O_3  and  C_4
REMARK    4  A    between atoms: C_7  and  C_9
REMARK    5  A    between atoms: C_13  and  N_14
REMARK    6  A    between atoms: C_15  and  C_17
REMARK    7  A    between atoms: C_26  and  O_27
REMARK    8  A    between atoms: O_27  and  C_28
REMARK    9  A    between atoms: C_33  and  O_35
REMARK   10  A    between atoms: O_35  and  C_36
REMARK                            x       y       z     vdW  Elec       q    Type
REMARK                         _______ _______ _______ _____ _____    ______ ____
ROOT
ATOM      1  C   UNL     1       1.060   2.259   0.004  0.00  0.00    +0.069 A 
ATOM      2  C   UNL     1       0.766   3.683   0.016  0.00  0.00    -0.020 A 
ATOM      3  C   UNL     1      -0.548   3.996   0.028  0.00  0.00    +0.013 A 
ATOM      4  S   UNL     1      -1.389   2.439   0.021  0.00  0.00    -0.076 S 
ATOM      5  C   UNL     1      -0.017   1.381   0.010  0.00  0.00    +0.085 A 
ATOM      6  C   UNL     1      -1.143   5.372   0.036  0.00  0.00    +0.153 C 
ATOM      7  N   UNL     1      -0.039   6.323   0.268  0.00  0.00    -0.262 N 
ATOM      8  C   UNL     1       1.224   6.085  -0.448  0.00  0.00    +0.116 C 
ATOM      9  C   UNL     1       1.838   4.765   0.022  0.00  0.00    +0.056 C 
ATOM     10  C   UNL     1      -0.182   7.370   1.105  0.00  0.00    +0.403 C 
ATOM     11  O   UNL     1       0.743   8.139   1.279  0.00  0.00    -0.226 OA
ENDROOT
BRANCH   1  15
ATOM     12  C   UNL     1       4.357   1.083   1.129  0.00  0.00    +0.407 C 
ATOM     13  O   UNL     1       4.918   0.886   0.070  0.00  0.00    -0.226 OA
ATOM     14  N   UNL     1       3.087   1.535   1.145  0.00  0.00    -0.217 N 
ATOM     15  C   UNL     1       2.440   1.768  -0.014  0.00  0.00    +0.255 C 
ATOM     16  O   UNL     1       3.002   1.571  -1.075  0.00  0.00    -0.270 OA
ATOM     17  H   UNL     1       2.639   1.692   1.991  0.00  0.00    +0.161 HD
BRANCH  12  18
ATOM     18  O   UNL     1       5.003   0.851   2.286  0.00  0.00    -0.450 OA
BRANCH  18  20
ATOM     19  C   UNL     1       6.935   0.161   3.599  0.00  0.00    +0.048 C 
ATOM     20  C   UNL     1       6.369   0.365   2.193  0.00  0.00    +0.230 C 
ENDBRANCH  18  20
ENDBRANCH  12  18
ENDBRANCH   1  15
BRANCH   5  21
ATOM     21  N   UNL     1       0.002  -0.004   0.002  0.00  0.00    -0.275 N 
ATOM     22  C   UNL     1      -1.156  -0.694   0.009  0.00  0.00    +0.252 C 
ATOM     23  O   UNL     1      -2.217  -0.100   0.023  0.00  0.00    -0.270 OA
ATOM     24  H   UNL     1       0.849  -0.478  -0.009  0.00  0.00    +0.156 HD
BRANCH  22  25
ATOM     25  C   UNL     1      -1.136  -2.169   0.001  0.00  0.00    +0.079 A 
ATOM     26  C   UNL     1       0.076  -2.841  -0.014  0.00  0.00    +0.025 A 
ATOM     27  C   UNL     1       0.089  -4.243  -0.021  0.00  0.00    -0.017 A 
ATOM     28  C   UNL     1       1.300  -4.958  -0.035  0.00  0.00    +0.008 A 
ATOM     29  C   UNL     1       1.280  -6.318  -0.042  0.00  0.00    +0.001 A 
ATOM     30  C   UNL     1       0.074  -7.018  -0.033  0.00  0.00    +0.001 A 
ATOM     31  C   UNL     1      -1.117  -6.361  -0.019  0.00  0.00    +0.008 A 
ATOM     32  C   UNL     1      -1.139  -4.955  -0.013  0.00  0.00    -0.014 A 
ATOM     33  C   UNL     1      -2.354  -4.250   0.002  0.00  0.00    +0.055 A 
ATOM     34  C   UNL     1      -2.351  -2.886   0.015  0.00  0.00    +0.133 A 
BRANCH  34  35
ATOM     35  O   UNL     1      -3.529  -2.212   0.035  0.00  0.00    -0.494 OA
ATOM     36  C   UNL     1      -4.724  -2.995   0.048  0.00  0.00    +0.277 C 
ENDBRANCH  34  35
ENDBRANCH  22  25
ENDBRANCH   5  21
BRANCH  10  37
ATOM     37  O   UNL     1      -1.349   7.564   1.747  0.00  0.00    -0.454 OA
ATOM     38  C   UNL     1      -1.431   8.712   2.632  0.00  0.00    +0.282 C 
ENDBRANCH  10  37
TORSDOF 7
