REMARK  Name = ZINC11912971
REMARK  8 active torsions:
REMARK  status: ('A' for Active; 'I' for Inactive)
REMARK    1  A    between atoms: C_1  and  C_2
REMARK    2  A    between atoms: C_7  and  C_8
REMARK    3  A    between atoms: C_8  and  N_64
REMARK    4  A    between atoms: C_11  and  C_14
REMARK    5  A    between atoms: C_14  and  C_28
REMARK    6  A    between atoms: N_17  and  C_21
REMARK    7  A    between atoms: C_21  and  C_22
REMARK    8  A    between atoms: C_22  and  C_23
REMARK                            x       y       z     vdW  Elec       q    Type
REMARK                         _______ _______ _______ _____ _____    ______ ____
ROOT
ATOM      1  C   UNL     1       3.045   8.580   1.563  0.00  0.00    +0.157 C 
ATOM      2  C   UNL     1       3.114   7.067   1.627  0.00  0.00    +0.253 C 
ATOM      3  O   UNL     1       4.112   6.380   1.649  0.00  0.00    -0.272 OA
ATOM      4  N   UNL     1       1.834   6.645   1.650  0.00  0.00    -0.224 N 
ATOM      5  C   UNL     1       0.976   7.671   1.618  0.00  0.00    +0.310 C 
ATOM      6  O   UNL     1      -0.233   7.541   1.635  0.00  0.00    -0.252 OA
ATOM      7  N   UNL     1       1.599   8.862   1.566  0.00  0.00    -0.280 N 
ATOM      8  H   UNL     1       1.179   9.735   1.537  0.00  0.00    +0.152 HD
ENDROOT
BRANCH   1  11
ATOM      9  C   UNL     1       4.158  11.329   4.018  0.00  0.00    -0.078 C 
ATOM     10  C   UNL     1       3.538  10.721   2.758  0.00  0.00    -0.012 C 
ATOM     11  C   UNL     1       3.716   9.200   2.791  0.00  0.00    +0.024 C 
ATOM     12  C   UNL     1       3.070   8.646   4.063  0.00  0.00    -0.012 C 
ATOM     13  C   UNL     1       3.704   9.314   5.285  0.00  0.00    -0.078 C 
ATOM     14  N   UNL     1       3.476  10.773   5.205  0.00  0.00    +0.382 N 
ATOM     15  H   UNL     1       2.468  10.949   5.123  0.00  0.00    -0.081 HD
BRANCH  14  16
ATOM     16  C   UNL     1       3.979  11.429   6.430  0.00  0.00    -0.043 C 
BRANCH  16  23
ATOM     17  C   UNL     1       1.387  12.703   6.535  0.00  0.00    +0.044 C 
ATOM     18  C   UNL     1       1.795  11.733   7.614  0.00  0.00    -0.049 A 
ATOM     19  C   UNL     1       0.928  11.453   8.654  0.00  0.00    +0.003 A 
ATOM     20  C   UNL     1       1.302  10.563   9.644  0.00  0.00    +0.000 A 
ATOM     21  C   UNL     1       2.542   9.954   9.594  0.00  0.00    +0.000 A 
ATOM     22  C   UNL     1       3.406  10.230   8.551  0.00  0.00    +0.002 A 
ATOM     23  C   UNL     1       3.034  11.124   7.564  0.00  0.00    -0.061 A 
ENDBRANCH  16  23
ENDBRANCH  14  16
ENDBRANCH   1  11
BRANCH   1  24
ATOM     24  C   UNL     1       3.682   9.092   0.297  0.00  0.00    +0.074 A 
ATOM     25  C   UNL     1       3.179   8.697  -0.928  0.00  0.00    +0.026 A 
ATOM     26  C   UNL     1       3.773   9.174  -2.087  0.00  0.00    +0.003 A 
ATOM     27  C   UNL     1       4.854  10.033  -1.969  0.00  0.00    +0.020 A 
ATOM     28  C   UNL     1       5.302  10.384  -0.710  0.00  0.00    +0.111 A 
ATOM     29  N   UNL     1       4.710   9.915   0.371  0.00  0.00    -0.257 NA
ENDBRANCH   1  24
BRANCH   4  30
ATOM     30  C   UNL     1       1.433   5.237   1.709  0.00  0.00    +0.123 C 
BRANCH  30  31
ATOM     31  C   UNL     1       1.279   4.691   0.288  0.00  0.00    +0.062 C 
BRANCH  31  32
ATOM     32  C   UNL     1       0.866   3.243   0.349  0.00  0.00    -0.009 A 
ATOM     33  C   UNL     1      -0.380   2.711   0.382  0.00  0.00    +0.011 A 
ATOM     34  C   UNL     1      -0.522   1.337   0.431  0.00  0.00    +0.008 A 
ATOM     35  C   UNL     1       0.590   0.562   0.457  0.00  0.00    +0.045 A 
ATOM     36  S   UNL     1       1.892   1.782   0.396  0.00  0.00    -0.102 S 
ENDBRANCH  31  32
ENDBRANCH  30  31
ENDBRANCH   4  30
TORSDOF 7
