REMARK  Name = ZINC25521453
REMARK  12 active torsions:
REMARK  status: ('A' for Active; 'I' for Inactive)
REMARK    1  A    between atoms: C_1  and  C_2
REMARK    2  A    between atoms: C_5  and  C_8
REMARK    3  A    between atoms: N_14  and  C_15
REMARK    4  A    between atoms: C_15  and  C_16
REMARK    5  A    between atoms: C_16  and  C_17
REMARK    6  A    between atoms: N_19  and  C_20
REMARK    7  A    between atoms: C_20  and  C_21
REMARK    8  A    between atoms: C_26  and  C_27
REMARK    9  A    between atoms: C_30  and  C_33
REMARK   10  A    between atoms: C_33  and  N_34
REMARK   11  A    between atoms: N_34  and  C_35
REMARK   12  A    between atoms: N_34  and  C_36
REMARK                            x       y       z     vdW  Elec       q    Type
REMARK                         _______ _______ _______ _____ _____    ______ ____
ROOT
ATOM      1  C   UNL     1       1.494   4.640   2.459  0.00  0.00    +0.215 C 
ATOM      2  O   UNL     1       1.688   4.121   3.538  0.00  0.00    -0.276 OA
ATOM      3  N   UNL     1       0.413   4.296   1.731  0.00  0.00    -0.311 N 
ATOM      4  H   UNL     1       0.237   4.766   0.753  0.00  0.00    +0.149 HD
ENDROOT
BRANCH   1   5
ATOM      5  C   UNL     1       2.461   5.669   1.933  0.00  0.00    +0.117 C 
BRANCH   5   6
ATOM      6  C   UNL     1       3.589   5.874   2.945  0.00  0.00    +0.135 C 
BRANCH   6  13
ATOM      7  C   UNL     1       5.694   6.610   1.741  0.00  0.00    +0.163 A 
ATOM      8  N   UNL     1       6.266   7.743   1.444  0.00  0.00    -0.153 NA
ATOM      9  N   UNL     1       5.473   8.777   1.958  0.00  0.00    -0.254 N 
ATOM     10  H   UNL     1       5.779   9.825   1.823  0.00  0.00    +0.191 HD
ATOM     11  C   UNL     1       4.408   8.210   2.562  0.00  0.00    +0.176 A 
ATOM     12  S   UNL     1       3.134   9.038   3.351  0.00  0.00    -0.011 S 
ATOM     13  N   UNL     1       4.529   6.874   2.433  0.00  0.00    -0.303 N 
BRANCH   7  18
ATOM     14  C   UNL     1       7.682   1.383   0.378  0.00  0.00    +0.044 C 
ATOM     15  C   UNL     1       7.162   2.751   0.735  0.00  0.00    -0.050 A 
ATOM     16  C   UNL     1       8.028   3.829   0.774  0.00  0.00    +0.004 A 
ATOM     17  C   UNL     1       7.558   5.085   1.100  0.00  0.00    +0.012 A 
ATOM     18  C   UNL     1       6.205   5.266   1.390  0.00  0.00    +0.019 A 
ATOM     19  C   UNL     1       5.338   4.174   1.355  0.00  0.00    +0.012 A 
ATOM     20  C   UNL     1       5.820   2.925   1.022  0.00  0.00    +0.004 A 
ENDBRANCH   7  18
ENDBRANCH   6  13
ENDBRANCH   5   6
ENDBRANCH   1   5
BRANCH   3  21
ATOM     21  C   UNL     1      -0.527   3.296   2.243  0.00  0.00    +0.140 C 
BRANCH  21  22
ATOM     22  C   UNL     1      -1.577   3.012   1.200  0.00  0.00    -0.023 A 
ATOM     23  C   UNL     1      -2.830   3.580   1.308  0.00  0.00    +0.006 A 
ATOM     24  C   UNL     1      -3.796   3.316   0.354  0.00  0.00    +0.000 A 
ATOM     25  C   UNL     1      -3.511   2.488  -0.716  0.00  0.00    +0.001 A 
ATOM     26  C   UNL     1      -2.259   1.919  -0.837  0.00  0.00    +0.009 A 
ATOM     27  C   UNL     1      -1.282   2.181   0.121  0.00  0.00    -0.013 A 
BRANCH  27  28
ATOM     28  C   UNL     1       0.065   1.572  -0.004  0.00  0.00    -0.018 A 
ATOM     29  C   UNL     1       0.817   1.767  -1.161  0.00  0.00    +0.009 A 
ATOM     30  C   UNL     1       2.067   1.194  -1.274  0.00  0.00    +0.002 A 
ATOM     31  C   UNL     1       2.574   0.426  -0.241  0.00  0.00    -0.064 A 
ATOM     32  C   UNL     1       1.833   0.229   0.910  0.00  0.00    +0.002 A 
ATOM     33  C   UNL     1       0.581   0.798   1.034  0.00  0.00    +0.009 A 
BRANCH  31  34
ATOM     34  C   UNL     1       3.940  -0.198  -0.370  0.00  0.00    -0.044 C 
BRANCH  34  35
ATOM     35  N   UNL     1       3.813  -1.532  -0.973  0.00  0.00    +0.379 N 
ATOM     36  C   UNL     1       5.130  -2.074  -1.333  0.00  0.00    -0.096 C 
ATOM     37  C   UNL     1       3.094  -2.448  -0.078  0.00  0.00    -0.096 C 
ATOM     38  H   UNL     1       3.225  -1.431  -1.897  0.00  0.00    -0.082 HD
ENDBRANCH  34  35
ENDBRANCH  31  34
ENDBRANCH  27  28
ENDBRANCH  21  22
ENDBRANCH   3  21
TORSDOF 9
