REMARK  Name = ZINC04544411
REMARK  6 active torsions:
REMARK  status: ('A' for Active; 'I' for Inactive)
REMARK    1  A    between atoms: C_1  and  C_2
REMARK    2  A    between atoms: C_8  and  N_10
REMARK    3  A    between atoms: C_11  and  C_13
REMARK    4  A    between atoms: C_13  and  C_23
REMARK    5  A    between atoms: C_14  and  C_15
REMARK    6  A    between atoms: C_20  and  O_21
REMARK                            x       y       z     vdW  Elec       q    Type
REMARK                         _______ _______ _______ _____ _____    ______ ____
ROOT
ATOM      1  C   UNL     1      -0.015   1.425  -0.044  0.00  0.00    +0.114 C 
ATOM      2  C   UNL     1       1.167   2.133   0.002  0.00  0.00    +0.035 C 
ENDROOT
BRANCH   2   3
ATOM      3  C   UNL     1       2.442   1.422   0.097  0.00  0.00    +0.019 A 
ATOM      4  C   UNL     1       2.597   0.166  -0.507  0.00  0.00    +0.031 A 
ATOM      5  C   UNL     1       3.803  -0.493  -0.418  0.00  0.00    +0.042 A 
ATOM      6  C   UNL     1       4.862   0.074   0.276  0.00  0.00    +0.023 A 
ATOM      7  C   UNL     1       4.723   1.308   0.881  0.00  0.00    +0.047 A 
ATOM      8  C   UNL     1       3.520   1.991   0.799  0.00  0.00    +0.124 A 
ATOM      9 CL   UNL     1       3.997  -2.045  -1.171  0.00  0.00    -0.084 Cl
BRANCH   8  10
ATOM     10  O   UNL     1       3.383   3.203   1.393  0.00  0.00    -0.506 OA
ATOM     11  H   UNL     1       3.068   3.160   2.306  0.00  0.00    +0.292 HD
ENDBRANCH   8  10
ENDBRANCH   2   3
BRANCH   1  13
ATOM     12  N   UNL     1      -2.438   1.434  -0.346  0.00  0.00    -0.308 N 
ATOM     13  C   UNL     1      -1.283   2.127  -0.295  0.00  0.00    +0.255 C 
ATOM     14  O   UNL     1      -1.290   3.332  -0.457  0.00  0.00    -0.269 OA
ATOM     15  H   UNL     1      -2.433   0.472  -0.217  0.00  0.00    +0.149 HD
BRANCH  12  22
ATOM     16  C   UNL     1      -4.656   1.155   1.496  0.00  0.00    +0.009 C 
ATOM     17  C   UNL     1      -4.858   1.319  -0.012  0.00  0.00    +0.006 C 
ATOM     18  C   UNL     1      -6.177   2.049  -0.273  0.00  0.00    +0.005 C 
ATOM     19  C   UNL     1      -6.380   2.213  -1.781  0.00  0.00    +0.000 C 
ATOM     20  C   UNL     1      -5.223   3.026  -2.365  0.00  0.00    +0.002 C 
ATOM     21  C   UNL     1      -3.904   2.296  -2.104  0.00  0.00    +0.022 C 
ATOM     22  C   UNL     1      -3.701   2.132  -0.596  0.00  0.00    +0.076 C 
ENDBRANCH  12  22
ENDBRANCH   1  13
BRANCH   1  23
ATOM     23  C   UNL     1      -0.007   0.006   0.146  0.00  0.00    +0.104 C 
ATOM     24  N   UNL     1      -0.001  -1.120   0.297  0.00  0.00    -0.191 NA
ENDBRANCH   1  23
TORSDOF 5
