REMARK  Name = ZINC07784572
REMARK  3 active torsions:
REMARK  status: ('A' for Active; 'I' for Inactive)
REMARK    1  A    between atoms: N_9  and  C_21
REMARK    2  A    between atoms: C_10  and  C_13
REMARK    3  A    between atoms: C_16  and  C_19
REMARK                            x       y       z     vdW  Elec       q    Type
REMARK                         _______ _______ _______ _____ _____    ______ ____
ROOT
ATOM      1  C   UNL     1       3.577  -6.302  -0.098  0.00  0.00    +0.001 A 
ATOM      2  C   UNL     1       2.441  -6.944   0.369  0.00  0.00    +0.002 A 
ATOM      3  C   UNL     1       1.304  -6.222   0.678  0.00  0.00    +0.024 A 
ATOM      4  C   UNL     1       1.300  -4.846   0.519  0.00  0.00    +0.041 A 
ATOM      5  C   UNL     1       2.449  -4.193   0.038  0.00  0.00    +0.058 A 
ATOM      6  C   UNL     1       3.589  -4.933  -0.266  0.00  0.00    +0.015 A 
ATOM      7  C   UNL     1       2.407  -2.731  -0.143  0.00  0.00    +0.254 C 
ATOM      8  O   UNL     1       3.424  -2.114  -0.396  0.00  0.00    -0.270 OA
ATOM      9  N   UNL     1       1.230  -2.083  -0.020  0.00  0.00    -0.244 N 
ATOM     10  C   UNL     1      -0.029  -2.819   0.099  0.00  0.00    +0.198 C 
ATOM     11  N   UNL     1       0.183  -4.077   0.825  0.00  0.00    -0.321 N 
ATOM     12  H   UNL     1      -0.445  -4.366   1.505  0.00  0.00    +0.148 HD
ENDROOT
BRANCH   9  13
ATOM     13  C   UNL     1       1.213  -0.683  -0.013  0.00  0.00    +0.042 A 
ATOM     14  C   UNL     1       0.671  -0.001   1.068  0.00  0.00    +0.027 A 
ATOM     15  C   UNL     1       0.653   1.380   1.077  0.00  0.00    +0.051 A 
ATOM     16  C   UNL     1       1.177   2.089   0.007  0.00  0.00    +0.166 A 
ATOM     17  C   UNL     1       1.721   1.408  -1.079  0.00  0.00    +0.168 A 
ATOM     18  C   UNL     1       1.738   0.023  -1.087  0.00  0.00    +0.073 A 
ATOM     19  O   UNL     1       2.164   2.322  -1.990  0.00  0.00    -0.453 OA
ATOM     20  C   UNL     1       1.518   3.560  -1.639  0.00  0.00    +0.466 C 
ATOM     21  O   UNL     1       1.279   3.431  -0.225  0.00  0.00    -0.453 OA
ENDBRANCH   9  13
BRANCH  10  22
ATOM     22  C   UNL     1      -0.563  -3.121  -1.277  0.00  0.00    -0.009 A 
ATOM     23  C   UNL     1      -0.295  -2.257  -2.324  0.00  0.00    +0.008 A 
ATOM     24  C   UNL     1      -0.777  -2.530  -3.588  0.00  0.00    +0.019 A 
ATOM     25  C   UNL     1      -1.545  -3.675  -3.806  0.00  0.00    +0.052 A 
ATOM     26  C   UNL     1      -1.816  -4.540  -2.744  0.00  0.00    +0.019 A 
ATOM     27  C   UNL     1      -1.323  -4.258  -1.487  0.00  0.00    +0.008 A 
BRANCH  25  28
ATOM     28  C   UNL     1      -2.053  -3.962  -5.114  0.00  0.00    +0.099 C 
ATOM     29  N   UNL     1      -2.456  -4.190  -6.152  0.00  0.00    -0.191 NA
ENDBRANCH  25  28
ENDBRANCH  10  22
TORSDOF 3
