REMARK  Name = ZINC40688204
REMARK  8 active torsions:
REMARK  status: ('A' for Active; 'I' for Inactive)
REMARK    1  A    between atoms: C_1  and  C_2
REMARK    2  A    between atoms: C_2  and  C_3
REMARK    3  A    between atoms: C_8  and  N_9
REMARK    4  A    between atoms: C_11  and  N_35
REMARK    5  A    between atoms: C_12  and  N_16
REMARK    6  A    between atoms: N_19  and  C_22
REMARK    7  A    between atoms: C_22  and  C_23
REMARK    8  A    between atoms: C_22  and  C_29
REMARK                            x       y       z     vdW  Elec       q    Type
REMARK                         _______ _______ _______ _____ _____    ______ ____
ROOT
ATOM      1  N   UNL     1       4.943   1.338  -2.091  0.00  0.00    -0.298 N 
ATOM      2  C   UNL     1       5.178   0.442  -1.054  0.00  0.00    +0.149 A 
ATOM      3  C   UNL     1       5.880   0.843   0.084  0.00  0.00    +0.106 A 
ATOM      4  C   UNL     1       6.088  -0.096   1.095  0.00  0.00    +0.147 A 
ATOM      5  N   UNL     1       5.614  -1.330   0.937  0.00  0.00    -0.219 NA
ATOM      6  C   UNL     1       4.956  -1.668  -0.154  0.00  0.00    +0.225 A 
ATOM      7  N   UNL     1       4.733  -0.810  -1.129  0.00  0.00    -0.219 NA
ATOM      8  H   UNL     1       5.183   2.272  -1.989  0.00  0.00    +0.154 HD
ENDROOT
BRANCH   1  14
ATOM      9  C   UNL     1       3.625   1.771  -4.068  0.00  0.00    -0.026 A 
ATOM     10  C   UNL     1       3.056   1.329  -5.246  0.00  0.00    +0.005 A 
ATOM     11  C   UNL     1       3.213   0.013  -5.640  0.00  0.00    +0.000 A 
ATOM     12  C   UNL     1       3.939  -0.866  -4.857  0.00  0.00    +0.002 A 
ATOM     13  C   UNL     1       4.511  -0.430  -3.678  0.00  0.00    +0.023 A 
ATOM     14  C   UNL     1       4.360   0.893  -3.281  0.00  0.00    +0.036 A 
BRANCH   9  16
ATOM     15  C   UNL     1       4.659   4.024  -4.108  0.00  0.00    +0.009 C 
ATOM     16  C   UNL     1       3.455   3.205  -3.639  0.00  0.00    +0.033 C 
ENDBRANCH   9  16
ENDBRANCH   1  14
BRANCH   4  17
ATOM     17  N   UNL     1       6.781   0.251   2.249  0.00  0.00    -0.311 N 
ATOM     18  C   UNL     1       6.087   0.869   3.389  0.00  0.00    +0.122 C 
ATOM     19  C   UNL     1       6.438   0.083   4.657  0.00  0.00    +0.104 C 
ATOM     20  N   UNL     1       7.898   0.001   4.789  0.00  0.00    -0.289 NA
ATOM     21  C   UNL     1       8.494  -0.743   3.671  0.00  0.00    +0.104 C 
ATOM     22  C   UNL     1       8.226   0.004   2.365  0.00  0.00    +0.122 C 
BRANCH  20  23
ATOM     23  C   UNL     1       8.277  -0.594   6.078  0.00  0.00    +0.117 C 
BRANCH  23  24
ATOM     24  C   UNL     1       9.779  -0.662   6.178  0.00  0.00    -0.026 A 
ATOM     25  C   UNL     1      10.551   0.388   5.716  0.00  0.00    +0.005 A 
ATOM     26  C   UNL     1      11.929   0.326   5.808  0.00  0.00    +0.000 A 
ATOM     27  C   UNL     1      12.535  -0.786   6.361  0.00  0.00    +0.000 A 
ATOM     28  C   UNL     1      11.764  -1.836   6.823  0.00  0.00    +0.000 A 
ATOM     29  C   UNL     1      10.385  -1.772   6.735  0.00  0.00    +0.005 A 
ENDBRANCH  23  24
BRANCH  23  30
ATOM     30  C   UNL     1       7.737   0.254   7.201  0.00  0.00    -0.026 A 
ATOM     31  C   UNL     1       7.766   1.633   7.101  0.00  0.00    +0.005 A 
ATOM     32  C   UNL     1       7.271   2.410   8.131  0.00  0.00    +0.000 A 
ATOM     33  C   UNL     1       6.746   1.810   9.260  0.00  0.00    +0.000 A 
ATOM     34  C   UNL     1       6.716   0.431   9.359  0.00  0.00    +0.000 A 
ATOM     35  C   UNL     1       7.207  -0.347   8.327  0.00  0.00    +0.005 A 
ENDBRANCH  23  30
ENDBRANCH  20  23
ENDBRANCH   4  17
BRANCH   3  36
ATOM     36  N   UNL     1       6.363   2.156   0.208  0.00  0.00    -0.353 N 
ATOM     37  H   UNL     1       6.141   2.820  -0.464  0.00  0.00    +0.143 HD
ATOM     38  H   UNL     1       6.918   2.399   0.965  0.00  0.00    +0.143 HD
ENDBRANCH   3  36
TORSDOF 7
