REMARK  Name = ZINC08868756
REMARK  11 active torsions:
REMARK  status: ('A' for Active; 'I' for Inactive)
REMARK    1  A    between atoms: C_1  and  C_2
REMARK    2  A    between atoms: C_5  and  S_8
REMARK    3  A    between atoms: S_8  and  N_11
REMARK    4  A    between atoms: C_15  and  C_17
REMARK    5  A    between atoms: N_19  and  C_20
REMARK    6  A    between atoms: C_21  and  C_31
REMARK    7  A    between atoms: C_28  and  C_29
REMARK    8  A    between atoms: C_28  and  C_30
REMARK    9  A    between atoms: C_28  and  N_65
REMARK   10  A    between atoms: C_31  and  O_33
REMARK   11  A    between atoms: O_33  and  C_34
REMARK                            x       y       z     vdW  Elec       q    Type
REMARK                         _______ _______ _______ _____ _____    ______ ____
ROOT
ATOM      1  C   UNL     1      -2.299   1.834   8.096  0.00  0.00    +0.236 C 
ATOM      2  O   UNL     1      -1.232   1.483   7.640  0.00  0.00    -0.274 OA
ATOM      3  N   UNL     1      -3.388   1.884   7.303  0.00  0.00    -0.278 N 
ATOM      4  H   UNL     1      -4.241   2.165   7.668  0.00  0.00    +0.155 HD
ENDROOT
BRANCH   3   5
ATOM      5  C   UNL     1      -3.287   1.534   5.965  0.00  0.00    +0.086 A 
ATOM      6  C   UNL     1      -4.286   1.521   4.999  0.00  0.00    +0.091 A 
ATOM      7  C   UNL     1      -3.913   1.110   3.658  0.00  0.00    -0.025 A 
ATOM      8  C   UNL     1      -2.612   0.777   3.497  0.00  0.00    -0.021 A 
ATOM      9  S   UNL     1      -1.886   1.006   5.093  0.00  0.00    -0.079 S 
ATOM     10  C   UNL     1      -1.963   0.319   2.228  0.00  0.00    -0.035 C 
ATOM     11  C   UNL     1      -4.044   0.999   1.190  0.00  0.00    -0.073 C 
ATOM     12  C   UNL     1      -4.873   1.038   2.477  0.00  0.00    +0.018 C 
ATOM     13  N   UNL     1      -3.038  -0.079   1.287  0.00  0.00    +0.384 N 
ATOM     14  H   UNL     1      -3.493  -0.929   1.639  0.00  0.00    -0.081 HD
BRANCH  13  15
ATOM     15  C   UNL     1      -2.464  -0.357  -0.047  0.00  0.00    -0.074 C 
ATOM     16  C   UNL     1      -1.410  -1.459   0.083  0.00  0.00    -0.014 C 
ATOM     17  C   UNL     1      -1.816   0.903  -0.624  0.00  0.00    -0.014 C 
ENDBRANCH  13  15
BRANCH   6  18
ATOM     18  C   UNL     1      -5.661   1.909   5.321  0.00  0.00    +0.342 C 
ATOM     19  O   UNL     1      -6.456   1.070   5.699  0.00  0.00    -0.245 OA
BRANCH  18  20
ATOM     20  O   UNL     1      -6.045   3.196   5.198  0.00  0.00    -0.464 OA
ATOM     21  C   UNL     1      -7.423   3.507   5.534  0.00  0.00    +0.280 C 
ENDBRANCH  18  20
ENDBRANCH   6  18
ENDBRANCH   3   5
BRANCH   1  26
ATOM     22  N   UNL     1      -1.529   1.363  10.371  0.00  0.00    -0.165 NA
ATOM     23  C   UNL     1      -0.954   2.183  11.450  0.00  0.00    +0.110 C 
ATOM     24  C   UNL     1      -1.490   3.619  11.270  0.00  0.00    +0.019 C 
ATOM     25  C   UNL     1      -1.886   3.657   9.770  0.00  0.00    +0.031 C 
ATOM     26  C   UNL     1      -2.409   2.215   9.550  0.00  0.00    +0.166 C 
BRANCH  22  27
ATOM     27  S   UNL     1      -1.237  -0.247  10.120  0.00  0.00    +0.062 S 
ATOM     28  O   UNL     1      -1.655  -0.534   8.792  0.00  0.00    -0.153 OA
ATOM     29  O   UNL     1       0.087  -0.495  10.572  0.00  0.00    -0.153 OA
BRANCH  27  34
ATOM     30  C   UNL     1      -4.914  -3.320  13.786  0.00  0.00    +0.044 C 
ATOM     31  C   UNL     1      -3.995  -2.554  12.870  0.00  0.00    -0.050 A 
ATOM     32  C   UNL     1      -4.449  -2.126  11.636  0.00  0.00    +0.005 A 
ATOM     33  C   UNL     1      -3.606  -1.422  10.796  0.00  0.00    +0.029 A 
ATOM     34  C   UNL     1      -2.311  -1.145  11.190  0.00  0.00    +0.106 A 
ATOM     35  C   UNL     1      -1.855  -1.577  12.422  0.00  0.00    +0.029 A 
ATOM     36  C   UNL     1      -2.699  -2.277  13.264  0.00  0.00    +0.005 A 
ENDBRANCH  27  34
ENDBRANCH  22  27
ENDBRANCH   1  26
TORSDOF 7
