REMARK  Name = ZINC10684477
REMARK  6 active torsions:
REMARK  status: ('A' for Active; 'I' for Inactive)
REMARK    1  A    between atoms: C_9  and  C_12
REMARK    2  A    between atoms: C_15  and  C_17
REMARK    3  A    between atoms: C_17  and  O_18
REMARK    4  A    between atoms: O_18  and  C_19
REMARK    5  A    between atoms: C_19  and  C_21
REMARK    6  A    between atoms: C_24  and  C_26
REMARK                            x       y       z     vdW  Elec       q    Type
REMARK                         _______ _______ _______ _____ _____    ______ ____
ROOT
ATOM      1  C   UNL     1       1.300   1.708   2.405  0.00  0.00    +0.002 A 
ATOM      2  C   UNL     1       1.810   2.461   1.363  0.00  0.00    +0.004 A 
ATOM      3  C   UNL     1       1.022   2.759   0.267  0.00  0.00    +0.047 A 
ATOM      4  C   UNL     1      -0.286   2.301   0.208  0.00  0.00    +0.143 A 
ATOM      5  C   UNL     1      -0.798   1.545   1.259  0.00  0.00    +0.078 A 
ATOM      6  C   UNL     1      -0.003   1.249   2.355  0.00  0.00    +0.027 A 
ATOM      7  N   UNL     1      -2.124   1.084   1.205  0.00  0.00    -0.261 N 
ATOM      8  C   UNL     1      -2.825   1.156  -0.092  0.00  0.00    +0.168 C 
ATOM      9  C   UNL     1      -2.472   2.507  -0.731  0.00  0.00    +0.276 C 
ATOM     10  O   UNL     1      -1.053   2.595  -0.875  0.00  0.00    -0.476 OA
ATOM     11  C   UNL     1      -2.737   0.594   2.301  0.00  0.00    +0.258 C 
ATOM     12  O   UNL     1      -2.120   0.473   3.338  0.00  0.00    -0.272 OA
ENDROOT
BRANCH   9  13
ATOM     13  C   UNL     1      -3.126   2.611  -2.085  0.00  0.00    +0.253 C 
ATOM     14  O   UNL     1      -2.442   2.662  -3.085  0.00  0.00    -0.272 OA
ATOM     15  N   UNL     1      -4.469   2.648  -2.184  0.00  0.00    -0.326 N 
ATOM     16  H   UNL     1      -5.016   2.608  -1.383  0.00  0.00    +0.145 HD
ATOM     17  H   UNL     1      -4.889   2.715  -3.055  0.00  0.00    +0.145 HD
ENDBRANCH   9  13
BRANCH  11  18
ATOM     18  C   UNL     1      -4.189   0.195   2.237  0.00  0.00    +0.328 C 
BRANCH  18  19
ATOM     19  O   UNL     1      -4.637  -0.182   3.541  0.00  0.00    -0.450 OA
BRANCH  19  20
ATOM     20  C   UNL     1      -5.924  -0.569   3.658  0.00  0.00    +0.375 C 
ATOM     21  O   UNL     1      -6.646  -0.585   2.679  0.00  0.00    -0.241 OA
BRANCH  20  22
ATOM     22  C   UNL     1      -6.452  -0.969   4.963  0.00  0.00    +0.212 A 
ATOM     23  C   UNL     1      -7.741  -1.383   5.222  0.00  0.00    +0.057 A 
ATOM     24  C   UNL     1      -7.806  -1.665   6.590  0.00  0.00    +0.051 A 
ATOM     25  C   UNL     1      -6.569  -1.415   7.111  0.00  0.00    +0.137 A 
ATOM     26  O   UNL     1      -5.760  -1.002   6.122  0.00  0.00    -0.448 OA
BRANCH  25  27
ATOM     27  C   UNL     1      -6.182  -1.578   8.527  0.00  0.00    +0.037 A 
ATOM     28  C   UNL     1      -6.963  -1.012   9.537  0.00  0.00    +0.013 A 
ATOM     29  C   UNL     1      -6.601  -1.173  10.858  0.00  0.00    +0.002 A 
ATOM     30  C   UNL     1      -5.459  -1.884  11.185  0.00  0.00    +0.021 A 
ATOM     31  C   UNL     1      -4.676  -2.443  10.190  0.00  0.00    +0.060 A 
ATOM     32  C   UNL     1      -5.031  -2.295   8.862  0.00  0.00    +0.070 A 
ATOM     33 CL   UNL     1      -4.049  -2.998   7.615  0.00  0.00    -0.081 Cl
ATOM     34 CL   UNL     1      -3.246  -3.333  10.611  0.00  0.00    -0.082 Cl
ENDBRANCH  25  27
ENDBRANCH  20  22
ENDBRANCH  19  20
ENDBRANCH  18  19
ENDBRANCH  11  18
TORSDOF 6
