REMARK  Name = ZINC36595212
REMARK  17 active torsions:
REMARK  status: ('A' for Active; 'I' for Inactive)
REMARK    1  A    between atoms: C_1  and  C_2
REMARK    2  A    between atoms: C_3  and  C_4
REMARK    3  A    between atoms: C_4  and  C_6
REMARK    4  A    between atoms: C_4  and  N_17
REMARK    5  A    between atoms: N_8  and  C_9
REMARK    6  A    between atoms: C_9  and  C_10
REMARK    7  A    between atoms: C_9  and  C_11
REMARK    8  A    between atoms: C_9  and  C_12
REMARK    9  A    between atoms: C_12  and  C_13
REMARK   10  A    between atoms: C_13  and  C_14
REMARK   11  A    between atoms: C_13  and  C_15
REMARK   12  A    between atoms: C_13  and  C_16
REMARK   13  A    between atoms: N_17  and  C_18
REMARK   14  A    between atoms: C_18  and  C_19
REMARK   15  A    between atoms: C_22  and  C_24
REMARK   16  A    between atoms: C_25  and  C_27
REMARK   17  A    between atoms: C_27  and  C_28
REMARK                            x       y       z     vdW  Elec       q    Type
REMARK                         _______ _______ _______ _____ _____    ______ ____
ROOT
ATOM      1  N   UNL     1       0.636  -1.701   0.812  0.00  0.00    -0.279 N 
ATOM      2  C   UNL     1       0.086  -0.531   0.433  0.00  0.00    +0.221 C 
ATOM      3  O   UNL     1       0.082   0.412   1.196  0.00  0.00    -0.275 OA
ENDROOT
BRANCH   1   4
ATOM      4  C   UNL     1       1.230  -1.835   2.145  0.00  0.00    +0.185 C 
BRANCH   4   5
ATOM      5  C   UNL     1       0.215  -1.445   3.188  0.00  0.00    +0.238 C 
ATOM      6  O   UNL     1      -0.895  -1.091   2.851  0.00  0.00    -0.273 OA
ATOM      7  N   UNL     1       0.540  -1.490   4.495  0.00  0.00    -0.308 N 
ATOM      8  H   UNL     1       1.428  -1.773   4.764  0.00  0.00    +0.149 HD
BRANCH   7   9
ATOM      9  C   UNL     1      -0.447  -1.111   5.509  0.00  0.00    +0.030 C 
ATOM     10  C   UNL     1      -0.872   0.342   5.289  0.00  0.00    +0.031 C 
ATOM     11  C   UNL     1      -1.670  -2.023   5.396  0.00  0.00    +0.031 C 
BRANCH   9  12
ATOM     12  C   UNL     1       0.171  -1.256   6.901  0.00  0.00    +0.031 C 
BRANCH  12  13
ATOM     13  C   UNL     1       1.281  -2.309   6.860  0.00  0.00    -0.036 C 
ATOM     14  C   UNL     1       2.537  -1.701   6.232  0.00  0.00    +0.010 C 
ATOM     15  C   UNL     1       1.596  -2.774   8.283  0.00  0.00    +0.010 C 
ATOM     16  C   UNL     1       0.819  -3.504   6.023  0.00  0.00    +0.010 C 
ENDBRANCH  12  13
ENDBRANCH   9  12
ENDBRANCH   7   9
ENDBRANCH   4   5
BRANCH   4  19
ATOM     17  C   UNL     1       4.119   0.545   1.285  0.00  0.00    +0.035 C 
ATOM     18  C   UNL     1       2.887  -0.318   1.188  0.00  0.00    -0.032 C 
ATOM     19  C   UNL     1       2.432  -0.932   2.252  0.00  0.00    +0.000 C 
ENDBRANCH   4  19
ENDBRANCH   1   4
BRANCH   1  20
ATOM     20  C   UNL     1       0.641  -2.841  -0.109  0.00  0.00    +0.183 C 
BRANCH  20  21
ATOM     21  C   UNL     1      -0.537  -3.732   0.187  0.00  0.00    +0.122 A 
ATOM     22  C   UNL     1      -1.727  -3.697  -0.439  0.00  0.00    +0.046 A 
ATOM     23  C   UNL     1      -2.531  -4.698   0.153  0.00  0.00    +0.045 A 
ATOM     24  C   UNL     1      -1.784  -5.285   1.106  0.00  0.00    +0.102 A 
ATOM     25  O   UNL     1      -0.576  -4.699   1.118  0.00  0.00    -0.463 OA
ATOM     26  C   UNL     1      -2.227  -6.411   2.003  0.00  0.00    +0.086 C 
ENDBRANCH  20  21
ENDBRANCH   1  20
BRANCH   2  27
ATOM     27  C   UNL     1      -0.525  -0.394  -0.938  0.00  0.00    +0.131 C 
BRANCH  27  28
ATOM     28  C   UNL     1      -1.066   1.002  -1.109  0.00  0.00    -0.039 A 
ATOM     29  C   UNL     1      -2.369   1.287  -0.747  0.00  0.00    +0.005 A 
ATOM     30  C   UNL     1      -2.866   2.567  -0.904  0.00  0.00    +0.015 A 
ATOM     31  C   UNL     1      -2.059   3.563  -1.423  0.00  0.00    +0.018 A 
ATOM     32  C   UNL     1      -0.755   3.278  -1.785  0.00  0.00    +0.015 A 
ATOM     33  C   UNL     1      -0.257   1.998  -1.623  0.00  0.00    +0.005 A 
ATOM     34 BR   UNL     1      -2.739   5.315  -1.638  0.00  0.00    -0.050 Br
ENDBRANCH  27  28
ENDBRANCH   2  27
TORSDOF 10
