REMARK  Name = ZINC20683026
REMARK  10 active torsions:
REMARK  status: ('A' for Active; 'I' for Inactive)
REMARK    1  A    between atoms: C_1  and  N_2
REMARK    2  A    between atoms: N_5  and  S_8
REMARK    3  A    between atoms: S_8  and  C_11
REMARK    4  A    between atoms: C_24  and  C_27
REMARK    5  A    between atoms: C_29  and  O_37
REMARK    6  A    between atoms: C_30  and  O_35
REMARK    7  A    between atoms: C_31  and  O_33
REMARK    8  A    between atoms: O_33  and  C_34
REMARK    9  A    between atoms: O_35  and  C_36
REMARK   10  A    between atoms: O_37  and  C_38
REMARK                            x       y       z     vdW  Elec       q    Type
REMARK                         _______ _______ _______ _____ _____    ______ ____
ROOT
ATOM      1  C   UNL     1       1.964   2.918   0.451  0.00  0.00    +0.106 A 
ATOM      2  C   UNL     1       1.014   1.918   0.357  0.00  0.00    +0.030 A 
ATOM      3  C   UNL     1      -0.322   2.240   0.232  0.00  0.00    +0.025 A 
ATOM      4  C   UNL     1      -0.724   3.570   0.212  0.00  0.00    +0.031 A 
ATOM      5  C   UNL     1       0.244   4.577   0.298  0.00  0.00    -0.018 A 
ATOM      6  C   UNL     1       1.576   4.245   0.418  0.00  0.00    +0.034 A 
ATOM      7  C   UNL     1      -0.222   5.980   0.240  0.00  0.00    +0.049 C 
ATOM      8  C   UNL     1       0.544   7.088   0.865  0.00  0.00    -0.023 C 
ATOM      9  C   UNL     1      -0.311   8.021   1.267  0.00  0.00    -0.030 C 
ATOM     10  C   UNL     1      -1.745   7.581   0.965  0.00  0.00    +0.033 C 
ATOM     11  C   UNL     1      -1.604   6.053   0.957  0.00  0.00    +0.029 C 
ATOM     12  C   UNL     1      -2.561   5.274   0.073  0.00  0.00    +0.105 C 
ATOM     13  N   UNL     1      -2.088   3.872   0.114  0.00  0.00    -0.336 N 
ATOM     14  H   UNL     1      -2.812   3.046   0.067  0.00  0.00    +0.147 HD
ENDROOT
BRANCH  12  15
ATOM     15  C   UNL     1      -2.511   5.799  -1.339  0.00  0.00    -0.020 A 
ATOM     16  C   UNL     1      -3.341   6.837  -1.717  0.00  0.00    +0.055 A 
ATOM     17  C   UNL     1      -3.295   7.327  -3.014  0.00  0.00    +0.165 A 
ATOM     18  C   UNL     1      -2.420   6.765  -3.936  0.00  0.00    +0.204 A 
ATOM     19  C   UNL     1      -1.591   5.718  -3.553  0.00  0.00    +0.165 A 
ATOM     20  C   UNL     1      -1.639   5.237  -2.253  0.00  0.00    +0.055 A 
BRANCH  19  21
ATOM     21  O   UNL     1      -0.734   5.164  -4.452  0.00  0.00    -0.491 OA
ATOM     22  C   UNL     1       0.088   4.091  -3.988  0.00  0.00    +0.277 C 
ENDBRANCH  19  21
BRANCH  18  23
ATOM     23  O   UNL     1      -2.376   7.239  -5.211  0.00  0.00    -0.488 OA
ATOM     24  C   UNL     1      -3.253   6.629  -6.160  0.00  0.00    +0.277 C 
ENDBRANCH  18  23
BRANCH  17  25
ATOM     25  O   UNL     1      -4.108   8.352  -3.384  0.00  0.00    -0.491 OA
ATOM     26  C   UNL     1      -4.981   8.881  -2.384  0.00  0.00    +0.277 C 
ENDBRANCH  17  25
ENDBRANCH  12  15
BRANCH   1  27
ATOM     27  S   UNL     1       3.669   2.502   0.612  0.00  0.00    +0.061 S 
ATOM     28  O   UNL     1       4.302   3.615   1.229  0.00  0.00    -0.153 OA
ATOM     29  O   UNL     1       3.717   1.195   1.166  0.00  0.00    -0.153 OA
BRANCH  27  34
ATOM     30  C   UNL     1       3.939   2.586  -5.096  0.00  0.00    -0.096 C 
ATOM     31  N   UNL     1       4.383   2.442  -3.703  0.00  0.00    +0.380 N 
ATOM     32  C   UNL     1       4.235   3.707  -2.970  0.00  0.00    -0.062 C 
ATOM     33  C   UNL     1       4.873   3.568  -1.584  0.00  0.00    +0.091 C 
ATOM     34  N   UNL     1       4.292   2.392  -0.918  0.00  0.00    -0.180 NA
ATOM     35  C   UNL     1       4.286   1.113  -1.645  0.00  0.00    +0.091 C 
ATOM     36  C   UNL     1       3.666   1.350  -3.032  0.00  0.00    -0.062 C 
ATOM     37  H   UNL     1       5.452   2.184  -3.712  0.00  0.00    -0.082 HD
ENDBRANCH  27  34
ENDBRANCH   1  27
TORSDOF 6
