REMARK  Name = ZINC04426997
REMARK  11 active torsions:
REMARK  status: ('A' for Active; 'I' for Inactive)
REMARK    1  A    between atoms: C_1  and  C_2
REMARK    2  A    between atoms: C_2  and  C_3
REMARK    3  A    between atoms: C_2  and  C_4
REMARK    4  A    between atoms: C_2  and  C_5
REMARK    5  A    between atoms: C_8  and  C_11
REMARK    6  A    between atoms: C_14  and  C_25
REMARK    7  A    between atoms: C_20  and  N_24
REMARK    8  A    between atoms: C_21  and  C_22
REMARK    9  A    between atoms: C_25  and  C_26
REMARK   10  A    between atoms: C_25  and  C_27
REMARK   11  A    between atoms: C_25  and  C_28
REMARK                            x       y       z     vdW  Elec       q    Type
REMARK                         _______ _______ _______ _____ _____    ______ ____
ROOT
ATOM      1  C   UNL     1       2.903  -2.030  -5.077  0.00  0.00    +0.101 C 
ATOM      2  C   UNL     1       4.107  -2.674  -4.439  0.00  0.00    +0.050 A 
ATOM      3  C   UNL     1       4.193  -3.805  -3.722  0.00  0.00    +0.049 A 
ATOM      4  N   UNL     1       5.488  -3.965  -3.362  0.00  0.00    -0.277 N 
ATOM      5  H   UNL     1       5.847  -4.697  -2.837  0.00  0.00    +0.189 HD
ATOM      6  N   UNL     1       6.221  -2.887  -3.882  0.00  0.00    -0.135 NA
ATOM      7  C   UNL     1       5.399  -2.112  -4.528  0.00  0.00    +0.245 A 
ATOM      8  O   UNL     1       5.636  -0.954  -5.200  0.00  0.00    -0.421 OA
ATOM      9  C   UNL     1       4.660  -0.493  -6.008  0.00  0.00    +0.201 C 
ATOM     10  C   UNL     1       3.387  -0.944  -6.005  0.00  0.00    +0.098 C 
ENDROOT
BRANCH   1  14
ATOM     11  C   UNL     1       0.402  -0.339  -2.055  0.00  0.00    -0.042 A 
ATOM     12  C   UNL     1      -0.164  -0.980  -3.141  0.00  0.00    +0.004 A 
ATOM     13  C   UNL     1       0.646  -1.527  -4.119  0.00  0.00    +0.005 A 
ATOM     14  C   UNL     1       2.021  -1.433  -4.011  0.00  0.00    -0.035 A 
ATOM     15  C   UNL     1       2.586  -0.790  -2.926  0.00  0.00    +0.005 A 
ATOM     16  C   UNL     1       1.777  -0.240  -1.950  0.00  0.00    +0.004 A 
BRANCH  11  18
ATOM     17  C   UNL     1      -0.225   1.763  -0.899  0.00  0.00    +0.015 C 
ATOM     18  C   UNL     1      -0.481   0.258  -0.989  0.00  0.00    -0.013 C 
ATOM     19  C   UNL     1      -0.165  -0.395   0.358  0.00  0.00    +0.015 C 
ATOM     20  C   UNL     1      -1.948   0.010  -1.344  0.00  0.00    +0.015 C 
ENDBRANCH  11  18
ENDBRANCH   1  14
BRANCH   3  21
ATOM     21  C   UNL     1       3.054  -4.731  -3.380  0.00  0.00    +0.004 C 
ATOM     22  C   UNL     1       3.602  -5.976  -2.679  0.00  0.00    +0.017 C 
ATOM     23  C   UNL     1       2.075  -4.011  -2.450  0.00  0.00    +0.017 C 
ATOM     24  C   UNL     1       2.330  -5.144  -4.662  0.00  0.00    +0.017 C 
ENDBRANCH   3  21
BRANCH   9  25
ATOM     25  N   UNL     1       4.982   0.503  -6.895  0.00  0.00    -0.328 N 
ATOM     26  H   UNL     1       5.886   0.852  -6.926  0.00  0.00    +0.145 HD
ATOM     27  H   UNL     1       4.305   0.859  -7.492  0.00  0.00    +0.145 HD
ENDBRANCH   9  25
BRANCH  10  28
ATOM     28  C   UNL     1       2.454  -0.365  -6.924  0.00  0.00    +0.101 C 
ATOM     29  N   UNL     1       1.714   0.093  -7.654  0.00  0.00    -0.191 NA
ENDBRANCH  10  28
TORSDOF 5
