REMARK  Name = ZINC67500152
REMARK  10 active torsions:
REMARK  status: ('A' for Active; 'I' for Inactive)
REMARK    1  A    between atoms: C_1  and  C_2
REMARK    2  A    between atoms: C_2  and  C_3
REMARK    3  A    between atoms: C_3  and  C_4
REMARK    4  A    between atoms: N_6  and  C_7
REMARK    5  A    between atoms: C_11  and  N_14
REMARK    6  A    between atoms: C_12  and  C_13
REMARK    7  A    between atoms: C_15  and  C_17
REMARK    8  A    between atoms: C_17  and  N_18
REMARK    9  A    between atoms: C_21  and  C_25
REMARK   10  A    between atoms: C_21  and  C_26
REMARK                            x       y       z     vdW  Elec       q    Type
REMARK                         _______ _______ _______ _____ _____    ______ ____
ROOT
ATOM      1  N   UNL     1       2.894  -6.705  -4.154  0.00  0.00    -0.284 N 
ATOM      2  C   UNL     1       2.910  -8.053  -4.171  0.00  0.00    +0.235 C 
ATOM      3  O   UNL     1       2.391  -8.677  -3.270  0.00  0.00    -0.274 OA
ATOM      4  H   UNL     1       3.368  -6.206  -4.838  0.00  0.00    +0.155 HD
ENDROOT
BRANCH   1   9
ATOM      5  C   UNL     1       0.858  -4.160  -2.443  0.00  0.00    +0.038 A 
ATOM      6  C   UNL     1       0.806  -4.689  -1.159  0.00  0.00    +0.024 A 
ATOM      7  C   UNL     1       1.444  -5.881  -0.876  0.00  0.00    +0.004 A 
ATOM      8  C   UNL     1       2.136  -6.550  -1.866  0.00  0.00    +0.024 A 
ATOM      9  C   UNL     1       2.192  -6.027  -3.152  0.00  0.00    +0.038 A 
ATOM     10  C   UNL     1       1.547  -4.833  -3.442  0.00  0.00    -0.008 A 
ATOM     11  C   UNL     1       1.601  -4.265  -4.837  0.00  0.00    +0.047 C 
BRANCH   5  14
ATOM     12  C   UNL     1      -0.837  -2.556  -1.982  0.00  0.00    +0.217 C 
ATOM     13  O   UNL     1      -1.283  -3.289  -1.125  0.00  0.00    -0.275 OA
ATOM     14  N   UNL     1       0.211  -2.953  -2.730  0.00  0.00    -0.285 N 
ATOM     15  H   UNL     1       0.516  -2.402  -3.468  0.00  0.00    +0.155 HD
BRANCH  12  16
ATOM     16  C   UNL     1      -1.455  -1.200  -2.209  0.00  0.00    +0.096 C 
BRANCH  16  18
ATOM     17  C   UNL     1      -3.245   0.377  -1.466  0.00  0.00    +0.004 C 
ATOM     18  C   UNL     1      -2.618  -1.000  -1.235  0.00  0.00    +0.006 C 
ENDBRANCH  16  18
ENDBRANCH  12  16
ENDBRANCH   5  14
ENDBRANCH   1   9
BRANCH   2  19
ATOM     19  C   UNL     1       3.574  -8.784  -5.309  0.00  0.00    +0.214 C 
BRANCH  19  20
ATOM     20  N   UNL     1       3.458 -10.229  -5.096  0.00  0.00    -0.215 N 
ATOM     21  C   UNL     1       4.359 -10.969  -4.422  0.00  0.00    +0.247 C 
ATOM     22  O   UNL     1       5.381 -10.581  -3.897  0.00  0.00    -0.273 OA
ATOM     23  C   UNL     1       3.830 -12.389  -4.455  0.00  0.00    +0.113 C 
ATOM     24  N   UNL     1       2.574 -12.273  -5.215  0.00  0.00    -0.285 N 
ATOM     25  C   UNL     1       2.440 -10.975  -5.541  0.00  0.00    +0.310 C 
ATOM     26  O   UNL     1       1.502 -10.530  -6.173  0.00  0.00    -0.252 OA
ATOM     27  C   UNL     1       3.556 -12.895  -3.037  0.00  0.00    +0.042 C 
ATOM     28  H   UNL     1       1.960 -12.992  -5.435  0.00  0.00    +0.151 HD
BRANCH  23  29
ATOM     29  C   UNL     1       4.812 -13.314  -5.176  0.00  0.00    +0.021 C 
ATOM     30  C   UNL     1       4.383 -13.882  -6.531  0.00  0.00    +0.006 C 
ATOM     31  C   UNL     1       4.432 -14.790  -5.301  0.00  0.00    +0.006 C 
ENDBRANCH  23  29
ENDBRANCH  19  20
ENDBRANCH   2  19
TORSDOF 7
