REMARK  Name = ZINC09471427
REMARK  11 active torsions:
REMARK  status: ('A' for Active; 'I' for Inactive)
REMARK    1  A    between atoms: C_1  and  C_2
REMARK    2  A    between atoms: C_2  and  C_3
REMARK    3  A    between atoms: C_3  and  C_4
REMARK    4  A    between atoms: C_4  and  C_5
REMARK    5  A    between atoms: C_5  and  C_6
REMARK    6  A    between atoms: C_18  and  C_20
REMARK    7  A    between atoms: C_29  and  C_32
REMARK    8  A    between atoms: C_35  and  C_38
REMARK    9  A    between atoms: C_38  and  C_39
REMARK   10  A    between atoms: C_38  and  C_40
REMARK   11  A    between atoms: C_38  and  C_41
REMARK                            x       y       z     vdW  Elec       q    Type
REMARK                         _______ _______ _______ _____ _____    ______ ____
ROOT
ATOM      1  C   UNL     1      -0.442   5.742   0.975  0.00  0.00    +0.221 C 
ATOM      2  O   UNL     1      -0.545   6.950   0.991  0.00  0.00    -0.275 OA
ATOM      3  N   UNL     1       0.067   5.123  -0.109  0.00  0.00    -0.258 N 
ATOM      4  C   UNL     1       0.180   3.732  -0.118  0.00  0.00    +0.058 A 
ATOM      5  C   UNL     1      -0.937   2.913  -0.093  0.00  0.00    +0.025 A 
ATOM      6  C   UNL     1      -0.776   1.541  -0.171  0.00  0.00    +0.002 A 
ATOM      7  C   UNL     1       0.488   0.988  -0.262  0.00  0.00    +0.002 A 
ATOM      8  C   UNL     1       1.608   1.803  -0.269  0.00  0.00    +0.025 A 
ATOM      9  C   UNL     1       1.448   3.175  -0.180  0.00  0.00    +0.053 A 
ATOM     10  N   UNL     1       2.529   4.042  -0.081  0.00  0.00    -0.316 N 
ATOM     11  C   UNL     1       2.847   4.996  -0.993  0.00  0.00    +0.017 C 
ATOM     12  C   UNL     1       1.968   5.854  -1.539  0.00  0.00    +0.037 C 
ATOM     13  C   UNL     1       0.488   5.911  -1.248  0.00  0.00    +0.147 C 
ATOM     14  C   UNL     1       2.404   6.816  -2.481  0.00  0.00    +0.163 C 
ATOM     15  O   UNL     1       1.593   7.592  -2.945  0.00  0.00    -0.292 OA
ATOM     16  C   UNL     1       3.833   6.909  -2.928  0.00  0.00    +0.088 C 
ATOM     17  C   UNL     1       4.469   5.518  -2.817  0.00  0.00    +0.032 C 
ATOM     18  C   UNL     1       4.317   5.053  -1.369  0.00  0.00    +0.059 C 
ATOM     19  H   UNL     1       3.100   3.959   0.699  0.00  0.00    +0.152 HD
ENDROOT
BRANCH  13  20
ATOM     20  C   UNL     1      -0.254   5.424  -2.466  0.00  0.00    -0.019 A 
ATOM     21  C   UNL     1      -0.150   4.104  -2.879  0.00  0.00    +0.025 A 
ATOM     22  C   UNL     1      -0.849   3.692  -3.998  0.00  0.00    +0.111 A 
ATOM     23  N   UNL     1      -1.598   4.539  -4.675  0.00  0.00    -0.263 NA
ATOM     24  C   UNL     1      -1.715   5.802  -4.315  0.00  0.00    +0.111 A 
ATOM     25  C   UNL     1      -1.051   6.285  -3.204  0.00  0.00    +0.025 A 
ENDBRANCH  13  20
BRANCH  17  26
ATOM     26  C   UNL     1       5.930   5.594  -3.178  0.00  0.00    -0.043 A 
ATOM     27  C   UNL     1       6.772   6.437  -2.477  0.00  0.00    +0.004 A 
ATOM     28  C   UNL     1       8.114   6.503  -2.805  0.00  0.00    +0.004 A 
ATOM     29  C   UNL     1       8.610   5.735  -3.842  0.00  0.00    -0.042 A 
ATOM     30  C   UNL     1       7.767   4.896  -4.546  0.00  0.00    +0.004 A 
ATOM     31  C   UNL     1       6.427   4.826  -4.215  0.00  0.00    +0.004 A 
BRANCH  29  32
ATOM     32  C   UNL     1      10.071   5.812  -4.203  0.00  0.00    -0.013 C 
ATOM     33  C   UNL     1      10.214   6.277  -5.654  0.00  0.00    +0.015 C 
ATOM     34  C   UNL     1      10.774   6.806  -3.277  0.00  0.00    +0.015 C 
ATOM     35  C   UNL     1      10.708   4.430  -4.046  0.00  0.00    +0.015 C 
ENDBRANCH  29  32
ENDBRANCH  17  26
BRANCH   1  36
ATOM     36  C   UNL     1      -0.884   4.931   2.166  0.00  0.00    +0.096 C 
BRANCH  36  37
ATOM     37  C   UNL     1      -1.419   5.869   3.251  0.00  0.00    +0.009 C 
BRANCH  37  38
ATOM     38  C   UNL     1      -1.868   5.047   4.460  0.00  0.00    +0.000 C 
BRANCH  38  40
ATOM     39  C   UNL     1      -2.851   5.162   6.754  0.00  0.00    +0.004 C 
ATOM     40  C   UNL     1      -2.402   5.984   5.544  0.00  0.00    -0.003 C 
ENDBRANCH  38  40
ENDBRANCH  37  38
ENDBRANCH  36  37
ENDBRANCH   1  36
TORSDOF 7
