REMARK  Name = ZINC20609450
REMARK  11 active torsions:
REMARK  status: ('A' for Active; 'I' for Inactive)
REMARK    1  A    between atoms: C_1  and  C_2
REMARK    2  A    between atoms: C_2  and  O_3
REMARK    3  A    between atoms: O_3  and  C_4
REMARK    4  A    between atoms: C_4  and  C_6
REMARK    5  A    between atoms: C_7  and  N_28
REMARK    6  A    between atoms: C_16  and  C_22
REMARK    7  A    between atoms: C_17  and  C_21
REMARK    8  A    between atoms: C_22  and  O_24
REMARK    9  A    between atoms: O_24  and  C_25
REMARK   10  A    between atoms: C_25  and  C_26
REMARK   11  A    between atoms: C_25  and  C_27
REMARK                            x       y       z     vdW  Elec       q    Type
REMARK                         _______ _______ _______ _____ _____    ______ ____
ROOT
ATOM      1  C   UNL     1      -0.007   1.396   0.014  0.00  0.00    +0.098 C 
ATOM      2  C   UNL     1       1.177   2.090  -0.019  0.00  0.00    +0.097 C 
ATOM      3  N   UNL     1       1.185   3.459  -0.025  0.00  0.00    -0.302 N 
ATOM      4  C   UNL     1       0.030   4.169  -0.365  0.00  0.00    +0.037 A 
ATOM      5  C   UNL     1       0.124   5.508  -0.725  0.00  0.00    +0.023 A 
ATOM      6  C   UNL     1      -1.012   6.212  -1.066  0.00  0.00    +0.002 A 
ATOM      7  C   UNL     1      -2.245   5.585  -1.049  0.00  0.00    +0.000 A 
ATOM      8  C   UNL     1      -2.342   4.255  -0.689  0.00  0.00    +0.007 A 
ATOM      9  C   UNL     1      -1.208   3.541  -0.345  0.00  0.00    -0.000 A 
ATOM     10  C   UNL     1      -1.329   2.099   0.048  0.00  0.00    +0.164 C 
ATOM     11  C   UNL     1      -1.951   1.988   1.423  0.00  0.00    +0.100 C 
ATOM     12  C   UNL     1      -3.102   1.318   1.248  0.00  0.00    +0.117 C 
ATOM     13  O   UNL     1      -3.314   0.982  -0.031  0.00  0.00    -0.429 OA
ATOM     14  C   UNL     1      -2.326   1.393  -0.845  0.00  0.00    +0.332 C 
ATOM     15  O   UNL     1      -2.251   1.232  -2.040  0.00  0.00    -0.249 OA
ATOM     16  C   UNL     1      -4.052   0.981   2.368  0.00  0.00    +0.087 C 
ATOM     17  H   UNL     1       2.103   4.005   0.238  0.00  0.00    +0.153 HD
ENDROOT
BRANCH   2  18
ATOM     18  N   UNL     1       2.364   1.404  -0.046  0.00  0.00    -0.346 N 
ATOM     19  H   UNL     1       3.316   1.954  -0.073  0.00  0.00    +0.143 HD
ATOM     20  H   UNL     1       2.364   0.304  -0.041  0.00  0.00    +0.143 HD
ENDBRANCH   2  18
BRANCH   1  21
ATOM     21  C   UNL     1       0.021  -0.004   0.011  0.00  0.00    +0.340 C 
ATOM     22  O   UNL     1      -0.138  -0.619   1.050  0.00  0.00    -0.245 OA
BRANCH  21  23
ATOM     23  O   UNL     1       0.225  -0.672  -1.145  0.00  0.00    -0.462 OA
BRANCH  23  25
ATOM     24  C   UNL     1       0.483  -2.676  -2.471  0.00  0.00    +0.048 C 
ATOM     25  C   UNL     1       0.242  -2.100  -1.075  0.00  0.00    +0.229 C 
ENDBRANCH  23  25
ENDBRANCH  21  23
ENDBRANCH   1  21
BRANCH  11  26
ATOM     26  C   UNL     1      -1.427   2.486   2.642  0.00  0.00    +0.340 C 
ATOM     27  O   UNL     1      -2.040   2.322   3.680  0.00  0.00    -0.245 OA
BRANCH  26  28
ATOM     28  O   UNL     1      -0.249   3.143   2.652  0.00  0.00    -0.459 OA
BRANCH  28  29
ATOM     29  C   UNL     1       0.219   3.618   3.916  0.00  0.00    +0.171 C 
ATOM     30  C   UNL     1       1.079   2.540   4.580  0.00  0.00    +0.052 C 
ATOM     31  C   UNL     1       1.056   4.881   3.708  0.00  0.00    +0.052 C 
ENDBRANCH  28  29
ENDBRANCH  26  28
ENDBRANCH  11  26
TORSDOF 7
