REMARK  Name = ZINC63827966
REMARK  9 active torsions:
REMARK  status: ('A' for Active; 'I' for Inactive)
REMARK    1  A    between atoms: C_1  and  C_2
REMARK    2  A    between atoms: C_4  and  C_9
REMARK    3  A    between atoms: C_5  and  C_8
REMARK    4  A    between atoms: C_9  and  O_10
REMARK    5  A    between atoms: O_10  and  C_11
REMARK    6  A    between atoms: C_14  and  C_17
REMARK    7  A    between atoms: N_19  and  C_20
REMARK    8  A    between atoms: C_20  and  C_21
REMARK    9  A    between atoms: C_21  and  C_22
REMARK                            x       y       z     vdW  Elec       q    Type
REMARK                         _______ _______ _______ _____ _____    ______ ____
ROOT
ATOM      1  C   UNL     1       0.323  -1.068  -4.786  0.00  0.00    +0.121 A 
ATOM      2  C   UNL     1      -0.871  -0.433  -5.106  0.00  0.00    +0.046 A 
ATOM      3  C   UNL     1      -1.308  -0.400  -6.411  0.00  0.00    +0.016 A 
ATOM      4  C   UNL     1      -0.548  -1.006  -7.415  0.00  0.00    +0.037 A 
ATOM      5  C   UNL     1       0.652  -1.643  -7.090  0.00  0.00    +0.016 A 
ATOM      6  C   UNL     1       1.084  -1.667  -5.782  0.00  0.00    +0.046 A 
ENDROOT
BRANCH   4   7
ATOM      7  C   UNL     1      -1.012  -0.973  -8.816  0.00  0.00    +0.244 C 
ATOM      8  O   UNL     1      -2.057  -0.418  -9.098  0.00  0.00    -0.270 OA
ATOM      9  N   UNL     1      -0.278  -1.558  -9.783  0.00  0.00    -0.311 N 
ATOM     10  H   UNL     1       0.555  -2.001  -9.559  0.00  0.00    +0.149 HD
BRANCH   9  11
ATOM     11  C   UNL     1      -0.739  -1.526 -11.173  0.00  0.00    +0.109 C 
BRANCH  11  12
ATOM     12  C   UNL     1       0.270  -2.256 -12.062  0.00  0.00    +0.052 C 
BRANCH  12  13
ATOM     13  C   UNL     1      -0.204  -2.223 -13.492  0.00  0.00    -0.040 C 
ATOM     14  C   UNL     1       0.153  -1.333 -14.447  0.00  0.00    -0.001 A 
ATOM     15  C   UNL     1       1.053  -0.174 -14.439  0.00  0.00    +0.010 A 
ATOM     16  C   UNL     1       1.211   0.542 -15.576  0.00  0.00    +0.001 A 
ATOM     17  C   UNL     1       0.537   0.206 -16.758  0.00  0.00    +0.002 A 
ATOM     18  C   UNL     1      -0.307  -0.845 -16.843  0.00  0.00    +0.026 A 
ATOM     19  C   UNL     1      -0.547  -1.667 -15.708  0.00  0.00    +0.043 A 
ATOM     20  N   UNL     1      -1.306  -2.723 -15.540  0.00  0.00    -0.380 N 
ATOM     21  C   UNL     1      -1.170  -3.181 -14.153  0.00  0.00    +0.144 C 
ATOM     22  H   UNL     1      -1.863  -3.134 -16.220  0.00  0.00    +0.160 HD
ENDBRANCH  12  13
ENDBRANCH  11  12
ENDBRANCH   9  11
ENDBRANCH   4   7
BRANCH   1  23
ATOM     23  O   UNL     1       0.750  -1.098  -3.498  0.00  0.00    -0.488 OA
BRANCH  23  24
ATOM     24  C   UNL     1      -0.081  -0.463  -2.524  0.00  0.00    +0.264 C 
BRANCH  24  27
ATOM     25  C   UNL     1      -0.293  -2.772  -0.274  0.00  0.00    +0.045 C 
ATOM     26  C   UNL     1       0.939  -1.890  -0.483  0.00  0.00    +0.176 C 
ATOM     27  C   UNL     1       0.549  -0.597  -1.162  0.00  0.00    +0.019 C 
ATOM     28  C   UNL     1       0.859   0.391  -0.349  0.00  0.00    +0.041 C 
ATOM     29  N   UNL     1       1.423  -0.084   0.821  0.00  0.00    -0.269 N 
ATOM     30  O   UNL     1       1.494  -1.500   0.782  0.00  0.00    -0.267 OA
ATOM     31  C   UNL     1       0.630   1.849  -0.654  0.00  0.00    +0.065 C 
ATOM     32  H   UNL     1       1.726   0.469   1.559  0.00  0.00    +0.194 HD
ENDBRANCH  24  27
ENDBRANCH  23  24
ENDBRANCH   1  23
TORSDOF 7
