REMARK  Name = ZINC05345378
REMARK  8 active torsions:
REMARK  status: ('A' for Active; 'I' for Inactive)
REMARK    1  A    between atoms: C_1  and  C_2
REMARK    2  A    between atoms: C_2  and  C_3
REMARK    3  A    between atoms: C_3  and  C_4
REMARK    4  A    between atoms: C_4  and  N_5
REMARK    5  A    between atoms: C_10  and  C_27
REMARK    6  A    between atoms: C_27  and  C_28
REMARK    7  A    between atoms: C_28  and  C_29
REMARK    8  A    between atoms: C_28  and  C_30
REMARK                            x       y       z     vdW  Elec       q    Type
REMARK                         _______ _______ _______ _____ _____    ______ ____
ROOT
ATOM      1  N   UNL     1       0.101  -1.091  -3.028  0.00  0.00    -0.242 N 
ATOM      2  C   UNL     1       0.688  -0.148  -2.281  0.00  0.00    +0.224 C 
ATOM      3  O   UNL     1       1.626  -0.330  -1.536  0.00  0.00    -0.275 OA
ATOM      4  C   UNL     1       0.001   1.180  -2.513  0.00  0.00    +0.073 C 
ATOM      5  C   UNL     1      -0.753   1.593  -1.232  0.00  0.00    -0.057 C 
ATOM      6  C   UNL     1      -2.426   1.059  -2.772  0.00  0.00    +0.050 C 
ATOM      7  C   UNL     1      -1.117   0.829  -3.537  0.00  0.00    +0.088 C 
ATOM      8  C   UNL     1      -0.921  -0.652  -3.773  0.00  0.00    +0.225 C 
ATOM      9  O   UNL     1      -1.586  -1.336  -4.521  0.00  0.00    -0.275 OA
ATOM     10  C   UNL     1      -3.019   2.403  -3.086  0.00  0.00    -0.026 A 
ATOM     11  C   UNL     1      -2.563   3.695  -2.952  0.00  0.00    +0.024 A 
ATOM     12  C   UNL     1      -3.363   4.756  -3.340  0.00  0.00    +0.041 A 
ATOM     13  C   UNL     1      -4.622   4.513  -3.862  0.00  0.00    +0.022 A 
ATOM     14  C   UNL     1      -5.083   3.220  -3.998  0.00  0.00    +0.025 A 
ATOM     15  C   UNL     1      -4.283   2.147  -3.610  0.00  0.00    +0.036 A 
ATOM     16  N   UNL     1      -4.521   0.771  -3.647  0.00  0.00    -0.286 N 
ATOM     17  C   UNL     1      -3.479   0.062  -3.171  0.00  0.00    +0.211 C 
ATOM     18  O   UNL     1      -3.404  -1.145  -3.083  0.00  0.00    -0.277 OA
ATOM     19 CL   UNL     1      -2.790   6.386  -3.173  0.00  0.00    -0.084 Cl
ATOM     20  H   UNL     1      -5.342   0.372  -3.976  0.00  0.00    +0.155 HD
ATOM     21  N   UNL     1      -2.064   0.955  -1.369  0.00  0.00    +0.394 N 
ATOM     22  H   UNL     1      -2.757   1.440  -0.787  0.00  0.00    -0.083 HD
ATOM     23  H   UNL     1      -2.011  -0.031  -1.088  0.00  0.00    -0.083 HD
ENDROOT
BRANCH   1  24
ATOM     24  C   UNL     1       0.540  -2.488  -3.031  0.00  0.00    +0.116 C 
BRANCH  24  25
ATOM     25  C   UNL     1       1.605  -2.686  -4.112  0.00  0.00    +0.019 C 
BRANCH  25  27
ATOM     26  C   UNL     1       3.129  -4.343  -5.195  0.00  0.00    +0.004 C 
ATOM     27  C   UNL     1       2.064  -4.145  -4.114  0.00  0.00    -0.002 C 
ENDBRANCH  25  27
ENDBRANCH  24  25
ENDBRANCH   1  24
BRANCH   5  28
ATOM     28  C   UNL     1      -0.013   1.086   0.008  0.00  0.00    -0.012 C 
BRANCH  28  29
ATOM     29  C   UNL     1      -0.729   1.579   1.267  0.00  0.00    -0.019 C 
ATOM     30  C   UNL     1      -2.121   0.950   1.341  0.00  0.00    +0.007 C 
ATOM     31  C   UNL     1       0.079   1.179   2.503  0.00  0.00    +0.007 C 
ENDBRANCH  28  29
ENDBRANCH   5  28
TORSDOF 5
