REMARK  Name = ZINC40477989
REMARK  6 active torsions:
REMARK  status: ('A' for Active; 'I' for Inactive)
REMARK    1  A    between atoms: C_1  and  C_2
REMARK    2  A    between atoms: C_5  and  N_9
REMARK    3  A    between atoms: C_10  and  C_12
REMARK    4  A    between atoms: C_12  and  N_13
REMARK    5  A    between atoms: N_22  and  C_23
REMARK    6  A    between atoms: C_23  and  C_24
REMARK                            x       y       z     vdW  Elec       q    Type
REMARK                         _______ _______ _______ _____ _____    ______ ____
ROOT
ATOM      1  N   UNL     1      -0.234  -6.825  -2.571  0.00  0.00    -0.288 N 
ATOM      2  C   UNL     1      -1.452  -6.969  -3.150  0.00  0.00    +0.205 A 
ATOM      3  N   UNL     1      -1.607  -7.391  -4.371  0.00  0.00    -0.216 NA
ATOM      4  C   UNL     1      -0.563  -7.717  -5.146  0.00  0.00    +0.186 A 
ATOM      5  C   UNL     1       0.736  -7.602  -4.637  0.00  0.00    +0.196 A 
ATOM      6  C   UNL     1       0.891  -7.120  -3.262  0.00  0.00    +0.284 A 
ATOM      7  O   UNL     1       1.993  -6.992  -2.758  0.00  0.00    -0.265 OA
ATOM      8  N   UNL     1       1.594  -7.983  -5.594  0.00  0.00    -0.122 NA
ATOM      9  N   UNL     1       0.947  -8.324  -6.654  0.00  0.00    -0.063 NA
ATOM     10  N   UNL     1      -0.429  -8.174  -6.423  0.00  0.00    -0.222 N 
ENDROOT
BRANCH   1  11
ATOM     11  C   UNL     1      -0.136  -6.343  -1.191  0.00  0.00    +0.222 C 
BRANCH  11  13
ATOM     12  N   UNL     1       0.057  -4.171  -0.023  0.00  0.00    -0.283 N 
ATOM     13  C   UNL     1      -0.042  -4.839  -1.190  0.00  0.00    +0.237 C 
ATOM     14  O   UNL     1      -0.055  -4.230  -2.238  0.00  0.00    -0.274 OA
ATOM     15  H   UNL     1       0.149  -4.660   0.809  0.00  0.00    +0.155 HD
BRANCH  12  20
ATOM     16  C   UNL     1      -0.064   1.502   0.016  0.00  0.00    +0.044 C 
ATOM     17  C   UNL     1      -0.031  -0.005   0.006  0.00  0.00    -0.049 A 
ATOM     18  C   UNL     1      -0.622  -0.701  -1.033  0.00  0.00    +0.005 A 
ATOM     19  C   UNL     1      -0.594  -2.082  -1.045  0.00  0.00    +0.025 A 
ATOM     20  C   UNL     1       0.028  -2.772  -0.014  0.00  0.00    +0.052 A 
ATOM     21  C   UNL     1       0.621  -2.070   1.029  0.00  0.00    +0.062 A 
ATOM     22  C   UNL     1       0.595  -0.688   1.032  0.00  0.00    +0.025 A 
ATOM     23 CL   UNL     1       1.401  -2.928   2.321  0.00  0.00    -0.082 Cl
ENDBRANCH  12  20
ENDBRANCH  11  13
ENDBRANCH   1  11
BRANCH  10  24
ATOM     24  C   UNL     1      -1.511  -8.453  -7.370  0.00  0.00    +0.182 C 
BRANCH  24  25
ATOM     25  C   UNL     1      -1.815  -7.211  -8.167  0.00  0.00    -0.026 A 
ATOM     26  C   UNL     1      -2.755  -6.308  -7.707  0.00  0.00    +0.007 A 
ATOM     27  C   UNL     1      -3.034  -5.168  -8.437  0.00  0.00    +0.020 A 
ATOM     28  C   UNL     1      -2.372  -4.931  -9.629  0.00  0.00    +0.041 A 
ATOM     29  C   UNL     1      -1.431  -5.835 -10.088  0.00  0.00    +0.020 A 
ATOM     30  C   UNL     1      -1.149  -6.971  -9.354  0.00  0.00    +0.007 A 
ATOM     31 CL   UNL     1      -2.723  -3.500 -10.547  0.00  0.00    -0.084 Cl
ENDBRANCH  24  25
ENDBRANCH  10  24
TORSDOF 5
