REMARK  Name = ZINC64370200
REMARK  2 active torsions:
REMARK  status: ('A' for Active; 'I' for Inactive)
REMARK    1  A    between atoms: C_1  and  C_2
REMARK    2  A    between atoms: C_2  and  C_4
REMARK                            x       y       z     vdW  Elec       q    Type
REMARK                         _______ _______ _______ _____ _____    ______ ____
ROOT
ATOM      1  C   UNL     1       0.731  -0.503   1.223  0.00  0.00    -0.014 A 
ATOM      2  C   UNL     1       0.207  -0.275   2.482  0.00  0.00    +0.009 A 
ATOM      3  C   UNL     1       0.874  -0.733   3.602  0.00  0.00    +0.039 A 
ATOM      4  C   UNL     1       2.068  -1.420   3.463  0.00  0.00    +0.123 A 
ATOM      5  C   UNL     1       2.592  -1.648   2.202  0.00  0.00    +0.039 A 
ATOM      6  C   UNL     1       1.920  -1.194   1.083  0.00  0.00    +0.009 A 
ATOM      7  F   UNL     1       2.721  -1.868   4.558  0.00  0.00    -0.205 F 
ENDROOT
BRANCH   1   9
ATOM      8  C   UNL     1      -0.019   1.526   0.010  0.00  0.00    +0.049 C 
ATOM      9  C   UNL     1       0.002  -0.004   0.002  0.00  0.00    +0.193 C 
ATOM     10  F   UNL     1      -1.310  -0.488   0.012  0.00  0.00    -0.241 F 
ENDBRANCH   1   9
TORSDOF 1
