REMARK  Name = ZINC02713068
REMARK  11 active torsions:
REMARK  status: ('A' for Active; 'I' for Inactive)
REMARK    1  A    between atoms: C_1  and  C_2
REMARK    2  A    between atoms: C_6  and  C_7
REMARK    3  A    between atoms: C_7  and  C_8
REMARK    4  A    between atoms: C_8  and  N_9
REMARK    5  A    between atoms: C_10  and  C_12
REMARK    6  A    between atoms: C_12  and  C_13
REMARK    7  A    between atoms: C_13  and  C_14
REMARK    8  A    between atoms: C_14  and  C_15
REMARK    9  A    between atoms: C_15  and  N_16
REMARK   10  A    between atoms: C_23  and  O_29
REMARK   11  A    between atoms: O_29  and  C_30
REMARK                            x       y       z     vdW  Elec       q    Type
REMARK                         _______ _______ _______ _____ _____    ______ ____
ROOT
ATOM      1  N   UNL     1       6.912  -8.496   5.383  0.00  0.00    -0.287 N 
ATOM      2  C   UNL     1       6.262  -9.676   5.388  0.00  0.00    +0.279 A 
ATOM      3  O   UNL     1       5.045  -9.707   5.405  0.00  0.00    -0.265 OA
ATOM      4  C   UNL     1       7.009 -10.883   5.370  0.00  0.00    +0.129 A 
ATOM      5  C   UNL     1       8.389 -10.805   5.357  0.00  0.00    +0.079 A 
ATOM      6  C   UNL     1       8.890 -12.179   5.345  0.00  0.00    +0.027 A 
ATOM      7  C   UNL     1      10.172 -12.738   5.330  0.00  0.00    +0.057 A 
ATOM      8  C   UNL     1      10.320 -14.110   5.321  0.00  0.00    +0.121 A 
ATOM      9  C   UNL     1       9.199 -14.936   5.328  0.00  0.00    +0.047 A 
ATOM     10  C   UNL     1       7.932 -14.399   5.343  0.00  0.00    +0.030 A 
ATOM     11  C   UNL     1       7.760 -13.017   5.352  0.00  0.00    +0.049 A 
ATOM     12  N   UNL     1       6.637 -12.217   5.367  0.00  0.00    -0.349 N 
ATOM     13  H   UNL     1       5.723 -12.541   5.374  0.00  0.00    +0.166 HD
ATOM     14  N   UNL     1       9.001  -9.564   5.357  0.00  0.00    -0.333 N 
ATOM     15  H   UNL     1       9.969  -9.502   5.349  0.00  0.00    +0.168 HD
ATOM     16  C   UNL     1       8.255  -8.443   5.370  0.00  0.00    +0.161 A 
ATOM     17  S   UNL     1       9.035  -6.918   5.370  0.00  0.00    -0.013 S 
ENDROOT
BRANCH   8  18
ATOM     18  O   UNL     1      11.565 -14.657   5.306  0.00  0.00    -0.495 OA
ATOM     19  C   UNL     1      11.646 -16.084   5.298  0.00  0.00    +0.277 C 
ENDBRANCH   8  18
BRANCH   1  20
ATOM     20  C   UNL     1       6.142  -7.249   5.397  0.00  0.00    +0.127 C 
BRANCH  20  21
ATOM     21  C   UNL     1       5.860  -6.807   3.960  0.00  0.00    +0.022 C 
BRANCH  21  22
ATOM     22  C   UNL     1       5.056  -5.506   3.975  0.00  0.00    +0.011 C 
BRANCH  22  23
ATOM     23  C   UNL     1       4.774  -5.064   2.538  0.00  0.00    +0.096 C 
BRANCH  23  25
ATOM     24  N   UNL     1       3.617  -3.202   1.392  0.00  0.00    -0.315 N 
ATOM     25  C   UNL     1       3.982  -3.782   2.552  0.00  0.00    +0.213 C 
ATOM     26  O   UNL     1       3.674  -3.272   3.609  0.00  0.00    -0.276 OA
ATOM     27  H   UNL     1       3.863  -3.610   0.547  0.00  0.00    +0.149 HD
BRANCH  24  28
ATOM     28  C   UNL     1       2.847  -1.956   1.406  0.00  0.00    +0.109 C 
BRANCH  28  29
ATOM     29  C   UNL     1       2.564  -1.514  -0.031  0.00  0.00    +0.061 C 
BRANCH  29  35
ATOM     30  C   UNL     1       3.698   1.341  -0.026  0.00  0.00    +0.044 C 
ATOM     31  C   UNL     1       2.220   1.048  -0.013  0.00  0.00    -0.040 A 
ATOM     32  C   UNL     1       1.300   2.079   0.001  0.00  0.00    +0.011 A 
ATOM     33  C   UNL     1      -0.022   1.781   0.012  0.00  0.00    +0.046 A 
ATOM     34  S   UNL     1       0.002  -0.004   0.002  0.00  0.00    -0.101 S 
ATOM     35  C   UNL     1       1.773  -0.232  -0.016  0.00  0.00    -0.006 A 
ENDBRANCH  29  35
ENDBRANCH  28  29
ENDBRANCH  24  28
ENDBRANCH  23  25
ENDBRANCH  22  23
ENDBRANCH  21  22
ENDBRANCH  20  21
ENDBRANCH   1  20
TORSDOF 9
