REMARK  Name = ZINC35708139
REMARK  12 active torsions:
REMARK  status: ('A' for Active; 'I' for Inactive)
REMARK    1  A    between atoms: C_1  and  C_2
REMARK    2  A    between atoms: C_2  and  C_3
REMARK    3  A    between atoms: C_3  and  C_4
REMARK    4  A    between atoms: C_4  and  N_5
REMARK    5  A    between atoms: N_5  and  C_6
REMARK    6  A    between atoms: C_6  and  C_7
REMARK    7  A    between atoms: C_21  and  C_23
REMARK    8  A    between atoms: N_32  and  C_33
REMARK    9  A    between atoms: C_33  and  C_34
REMARK   10  A    between atoms: C_34  and  O_36
REMARK   11  A    between atoms: O_36  and  C_37
REMARK   12  A    between atoms: C_37  and  C_38
REMARK                            x       y       z     vdW  Elec       q    Type
REMARK                         _______ _______ _______ _____ _____    ______ ____
ROOT
ATOM      1  C   UNL     1      -3.234  -4.235  -1.694  0.00  0.00    +0.238 C 
ATOM      2  O   UNL     1      -2.474  -4.942  -1.066  0.00  0.00    -0.273 OA
ATOM      3  N   UNL     1      -3.861  -4.721  -2.783  0.00  0.00    -0.255 N 
ATOM      4  C   UNL     1      -3.713  -6.070  -3.133  0.00  0.00    +0.061 A 
ATOM      5  C   UNL     1      -2.552  -6.756  -2.814  0.00  0.00    +0.025 A 
ATOM      6  C   UNL     1      -2.423  -8.089  -3.155  0.00  0.00    +0.002 A 
ATOM      7  C   UNL     1      -3.447  -8.746  -3.814  0.00  0.00    +0.002 A 
ATOM      8  C   UNL     1      -4.609  -8.069  -4.142  0.00  0.00    +0.028 A 
ATOM      9  C   UNL     1      -4.742  -6.735  -3.808  0.00  0.00    +0.068 A 
ATOM     10  N   UNL     1      -5.888  -6.000  -4.142  0.00  0.00    -0.316 N 
ATOM     11  C   UNL     1      -7.101  -6.421  -4.575  0.00  0.00    +0.092 A 
ATOM     12  C   UNL     1      -7.884  -5.334  -4.757  0.00  0.00    +0.020 A 
ATOM     13  C   UNL     1      -7.118  -4.196  -4.421  0.00  0.00    +0.025 A 
ATOM     14  C   UNL     1      -5.906  -4.625  -4.052  0.00  0.00    +0.049 A 
ATOM     15  C   UNL     1      -4.706  -3.834  -3.602  0.00  0.00    +0.159 C 
ENDROOT
BRANCH  15  16
ATOM     16  C   UNL     1      -3.932  -3.359  -4.804  0.00  0.00    -0.021 A 
ATOM     17  C   UNL     1      -3.103  -4.233  -5.482  0.00  0.00    +0.008 A 
ATOM     18  C   UNL     1      -2.393  -3.799  -6.585  0.00  0.00    +0.038 A 
ATOM     19  C   UNL     1      -2.514  -2.487  -7.012  0.00  0.00    +0.123 A 
ATOM     20  C   UNL     1      -3.345  -1.613  -6.333  0.00  0.00    +0.038 A 
ATOM     21  C   UNL     1      -4.057  -2.051  -5.233  0.00  0.00    +0.008 A 
ATOM     22  F   UNL     1      -1.820  -2.061  -8.091  0.00  0.00    -0.205 F 
ENDBRANCH  15  16
BRANCH   1  23
ATOM     23  C   UNL     1      -3.478  -2.814  -1.255  0.00  0.00    +0.205 C 
BRANCH  23  24
ATOM     24  N   UNL     1      -2.780  -2.567   0.009  0.00  0.00    -0.277 N 
ATOM     25  C   UNL     1      -3.406  -2.797   1.180  0.00  0.00    +0.303 C 
ATOM     26  O   UNL     1      -4.549  -3.210   1.188  0.00  0.00    -0.253 OA
ATOM     27  N   UNL     1      -2.764  -2.570   2.344  0.00  0.00    -0.289 N 
ATOM     28  H   UNL     1      -1.852  -2.240   2.338  0.00  0.00    +0.151 HD
BRANCH  24  29
ATOM     29  C   UNL     1      -1.402  -2.069   0.000  0.00  0.00    +0.110 C 
BRANCH  29  30
ATOM     30  C   UNL     1      -1.412  -0.539   0.002  0.00  0.00    +0.019 C 
BRANCH  30  32
ATOM     31  C   UNL     1       0.017   1.510  -0.005  0.00  0.00    +0.004 C 
ATOM     32  C   UNL     1       0.027  -0.020  -0.007  0.00  0.00    -0.002 C 
ENDBRANCH  30  32
ENDBRANCH  29  30
ENDBRANCH  24  29
BRANCH  27  33
ATOM     33  C   UNL     1      -3.444  -2.820   3.617  0.00  0.00    +0.226 C 
BRANCH  33  34
ATOM     34  C   UNL     1      -2.515  -2.489   4.756  0.00  0.00    +0.324 C 
ATOM     35  O   UNL     1      -1.400  -2.085   4.528  0.00  0.00    -0.249 OA
BRANCH  34  36
ATOM     36  O   UNL     1      -2.928  -2.642   6.024  0.00  0.00    -0.464 OA
BRANCH  36  37
ATOM     37  C   UNL     1      -1.995  -2.309   7.054  0.00  0.00    +0.229 C 
ATOM     38  C   UNL     1      -2.639  -2.547   8.422  0.00  0.00    +0.048 C 
ENDBRANCH  36  37
ENDBRANCH  34  36
ENDBRANCH  33  34
ENDBRANCH  27  33
ENDBRANCH  23  24
ENDBRANCH   1  23
TORSDOF 10
