REMARK  Name = ZINC39883928
REMARK  8 active torsions:
REMARK  status: ('A' for Active; 'I' for Inactive)
REMARK    1  A    between atoms: C_1  and  C_2
REMARK    2  A    between atoms: C_6  and  C_12
REMARK    3  A    between atoms: C_10  and  C_11
REMARK    4  A    between atoms: C_12  and  C_13
REMARK    5  A    between atoms: N_15  and  C_16
REMARK    6  A    between atoms: C_17  and  C_27
REMARK    7  A    between atoms: C_22  and  C_26
REMARK    8  A    between atoms: N_29  and  C_30
REMARK                            x       y       z     vdW  Elec       q    Type
REMARK                         _______ _______ _______ _____ _____    ______ ____
ROOT
ATOM      1  C   UNL     1       3.048  -6.914  -2.322  0.00  0.00    +0.084 A 
ATOM      2  C   UNL     1       3.494  -7.894  -3.195  0.00  0.00    +0.069 A 
ATOM      3  C   UNL     1       4.924  -7.966  -3.438  0.00  0.00    -0.023 A 
ATOM      4  C   UNL     1       5.646  -7.045  -2.764  0.00  0.00    -0.004 A 
ATOM      5  S   UNL     1       4.449  -6.118  -1.849  0.00  0.00    -0.077 S 
ATOM      6  C   UNL     1       7.132  -6.864  -2.801  0.00  0.00    +0.046 C 
ATOM      7  C   UNL     1       7.755  -8.120  -3.427  0.00  0.00    -0.009 C 
ATOM      8  C   UNL     1       6.993  -8.466  -4.710  0.00  0.00    +0.008 C 
ATOM      9  C   UNL     1       5.592  -8.973  -4.363  0.00  0.00    +0.037 C 
ATOM     10  C   UNL     1       9.225  -7.853  -3.757  0.00  0.00    +0.008 C 
ENDROOT
BRANCH   1  13
ATOM     11  C   UNL     1       1.489  -5.643  -1.072  0.00  0.00    +0.222 C 
ATOM     12  O   UNL     1       2.400  -4.971  -0.638  0.00  0.00    -0.275 OA
ATOM     13  N   UNL     1       1.744  -6.648  -1.933  0.00  0.00    -0.279 N 
ATOM     14  H   UNL     1       1.015  -7.185  -2.281  0.00  0.00    +0.155 HD
BRANCH  11  15
ATOM     15  C   UNL     1       0.071  -5.354  -0.650  0.00  0.00    +0.135 C 
BRANCH  15  21
ATOM     16  C   UNL     1      -0.018   1.503   0.010  0.00  0.00    +0.044 C 
ATOM     17  C   UNL     1       0.002  -0.004   0.002  0.00  0.00    -0.044 A 
ATOM     18  C   UNL     1       0.006  -0.684  -1.207  0.00  0.00    +0.004 A 
ATOM     19  C   UNL     1       0.024  -2.051  -1.233  0.00  0.00    +0.012 A 
ATOM     20  C   UNL     1       0.039  -2.764  -0.035  0.00  0.00    +0.024 A 
ATOM     21  C   UNL     1       0.060  -4.191   0.309  0.00  0.00    +0.007 A 
ATOM     22  C   UNL     1       0.068  -4.252   1.648  0.00  0.00    +0.200 A 
ATOM     23  O   UNL     1       0.054  -3.012   2.168  0.00  0.00    -0.462 OA
ATOM     24  C   UNL     1       0.036  -2.082   1.192  0.00  0.00    +0.138 A 
ATOM     25  C   UNL     1       0.023  -0.693   1.196  0.00  0.00    -0.005 A 
ATOM     26  C   UNL     1       0.025   0.060   2.502  0.00  0.00    +0.048 C 
ENDBRANCH  15  21
ENDBRANCH  11  15
ENDBRANCH   1  13
BRANCH   2  27
ATOM     27  C   UNL     1       2.561  -8.820  -3.845  0.00  0.00    +0.247 C 
ATOM     28  O   UNL     1       2.070  -8.534  -4.921  0.00  0.00    -0.270 OA
ATOM     29  N   UNL     1       2.246  -9.988  -3.250  0.00  0.00    -0.307 N 
ATOM     30  H   UNL     1       2.637 -10.216  -2.392  0.00  0.00    +0.149 HD
BRANCH  29  31
ATOM     31  C   UNL     1       1.314 -10.913  -3.899  0.00  0.00    +0.096 C 
ATOM     32  C   UNL     1       2.085 -11.804  -4.888  0.00  0.00    +0.046 C 
ATOM     33  C   UNL     1       1.148 -12.968  -5.322  0.00  0.00    +0.168 C 
ATOM     34  S   UNL     1       0.347 -13.375  -3.713  0.00  0.00    -0.029 S 
ATOM     35  O   UNL     1       1.092 -14.401  -3.073  0.00  0.00    -0.174 OA
ATOM     36  O   UNL     1      -1.047 -13.549  -3.922  0.00  0.00    -0.174 OA
ATOM     37  C   UNL     1       0.628 -11.790  -2.825  0.00  0.00    +0.188 C 
ENDBRANCH  29  31
ENDBRANCH   2  27
TORSDOF 5
