REMARK  Name = ZINC09545407
REMARK  4 active torsions:
REMARK  status: ('A' for Active; 'I' for Inactive)
REMARK    1  A    between atoms: C_6  and  C_7
REMARK    2  A    between atoms: N_8  and  N_9
REMARK    3  A    between atoms: C_10  and  C_12
REMARK    4  A    between atoms: C_14  and  N_19
REMARK                            x       y       z     vdW  Elec       q    Type
REMARK                         _______ _______ _______ _____ _____    ______ ____
ROOT
ATOM      1  N   UNL     1       3.585   6.613   0.002  0.00  0.00    -0.202 N 
ATOM      2  C   UNL     1       3.561   7.961   0.010  0.00  0.00    +0.281 C 
ATOM      3  O   UNL     1       2.497   8.550   0.024  0.00  0.00    -0.267 OA
ATOM      4  H   UNL     1       4.433   6.143  -0.009  0.00  0.00    +0.178 HD
ENDROOT
BRANCH   2   5
ATOM      5  C   UNL     1       4.829   8.723   0.001  0.00  0.00    +0.125 A 
ATOM      6  C   UNL     1       4.797  10.115   0.003  0.00  0.00    +0.091 A 
ATOM      7  C   UNL     1       6.001  10.819   0.001  0.00  0.00    +0.067 A 
ATOM      8  C   UNL     1       7.191  10.094  -0.015  0.00  0.00    +0.098 A 
ATOM      9  C   UNL     1       7.141   8.709  -0.022  0.00  0.00    +0.128 A 
ATOM     10 CL   UNL     1       8.620   7.800  -0.041  0.00  0.00    -0.062 Cl
ATOM     11 CL   UNL     1       8.720  10.916  -0.026  0.00  0.00    -0.079 Cl
ATOM     12 CL   UNL     1       3.281  10.961   0.016  0.00  0.00    -0.079 Cl
ATOM     13  N   UNL     1       5.988   7.992  -0.014  0.00  0.00    -0.339 N 
ATOM     14  H   UNL     1       5.985   6.966  -0.019  0.00  0.00    +0.167 HD
BRANCH   7  15
ATOM     15  N   UNL     1       6.014  12.212   0.008  0.00  0.00    -0.356 N 
ATOM     16  H   UNL     1       6.858  12.690   0.002  0.00  0.00    +0.142 HD
ATOM     17  H   UNL     1       5.178  12.705   0.019  0.00  0.00    +0.142 HD
ENDBRANCH   7  15
ENDBRANCH   2   5
BRANCH   1  19
ATOM     18  C   UNL     1       2.407   4.593   0.003  0.00  0.00    +0.138 C 
ATOM     19  N   UNL     1       2.384   5.891   0.010  0.00  0.00    -0.187 NA
BRANCH  18  25
ATOM     20  C   UNL     1      -0.080   4.508   0.027  0.00  0.00    +0.011 A 
ATOM     21  C   UNL     1      -1.259   3.791   0.034  0.00  0.00    +0.022 A 
ATOM     22  C   UNL     1      -1.232   2.407   0.021  0.00  0.00    +0.059 A 
ATOM     23  C   UNL     1      -0.021   1.732   0.012  0.00  0.00    +0.060 A 
ATOM     24  C   UNL     1       1.165   2.437   0.004  0.00  0.00    +0.031 A 
ATOM     25  C   UNL     1       1.143   3.834   0.012  0.00  0.00    -0.004 A 
ATOM     26 CL   UNL     1       0.002  -0.004   0.002  0.00  0.00    -0.082 Cl
ATOM     27 CL   UNL     1      -2.720   1.514   0.023  0.00  0.00    -0.082 Cl
ENDBRANCH  18  25
ENDBRANCH   1  19
TORSDOF 4
