REMARK  Name = ZINC09152087
REMARK  9 active torsions:
REMARK  status: ('A' for Active; 'I' for Inactive)
REMARK    1  A    between atoms: C_1  and  C_2
REMARK    2  A    between atoms: C_2  and  C_3
REMARK    3  A    between atoms: C_3  and  C_5
REMARK    4  A    between atoms: C_3  and  S_15
REMARK    5  A    between atoms: N_7  and  C_8
REMARK    6  A    between atoms: S_15  and  C_16
REMARK    7  A    between atoms: C_19  and  S_23
REMARK    8  A    between atoms: C_20  and  N_22
REMARK    9  A    between atoms: S_23  and  C_26
REMARK                            x       y       z     vdW  Elec       q    Type
REMARK                         _______ _______ _______ _____ _____    ______ ____
ROOT
ATOM      1  C   UNL     1       3.431  -5.896   0.538  0.00  0.00    +0.191 A 
ATOM      2  N   UNL     1       2.593  -6.900   0.754  0.00  0.00    -0.228 NA
ATOM      3  C   UNL     1       2.982  -8.157   0.598  0.00  0.00    +0.144 A 
ATOM      4  C   UNL     1       4.284  -8.419   0.215  0.00  0.00    +0.151 A 
ATOM      5  C   UNL     1       5.145  -7.341  -0.000  0.00  0.00    +0.146 A 
ATOM      6  N   UNL     1       4.687  -6.105   0.170  0.00  0.00    -0.205 NA
ENDROOT
BRANCH   5   7
ATOM      7  N   UNL     1       6.458  -7.557  -0.385  0.00  0.00    -0.342 N 
ATOM      8  H   UNL     1       7.078  -6.812  -0.434  0.00  0.00    +0.144 HD
ATOM      9  H   UNL     1       6.758  -8.453  -0.605  0.00  0.00    +0.144 HD
ENDBRANCH   5   7
BRANCH   4  10
ATOM     10  S   UNL     1       4.844 -10.076   0.002  0.00  0.00    +0.030 S 
ATOM     11  O   UNL     1       3.747 -10.920   0.326  0.00  0.00    -0.164 OA
ATOM     12  O   UNL     1       5.497 -10.125  -1.259  0.00  0.00    -0.164 OA
BRANCH  10  13
ATOM     13  C   UNL     1       6.081 -10.368   1.222  0.00  0.00    +0.094 A 
ATOM     14  C   UNL     1       7.418 -10.250   0.891  0.00  0.00    +0.027 A 
ATOM     15  C   UNL     1       8.389 -10.475   1.849  0.00  0.00    +0.002 A 
ATOM     16  C   UNL     1       8.023 -10.828   3.135  0.00  0.00    +0.000 A 
ATOM     17  C   UNL     1       6.686 -10.951   3.464  0.00  0.00    +0.002 A 
ATOM     18  C   UNL     1       5.715 -10.722   2.507  0.00  0.00    +0.027 A 
ENDBRANCH  10  13
ENDBRANCH   4  10
BRANCH   1  19
ATOM     19  S   UNL     1       2.863  -4.242   0.752  0.00  0.00    -0.073 S 
BRANCH  19  20
ATOM     20  C   UNL     1       1.160  -4.560   1.278  0.00  0.00    +0.140 C 
BRANCH  20  21
ATOM     21  C   UNL     1       0.378  -3.273   1.252  0.00  0.00    +0.231 C 
ATOM     22  O   UNL     1       0.960  -2.209   1.273  0.00  0.00    -0.274 OA
ATOM     23  N   UNL     1      -0.969  -3.304   1.206  0.00  0.00    -0.285 N 
ATOM     24  H   UNL     1      -1.437  -4.152   1.254  0.00  0.00    +0.155 HD
BRANCH  23  25
ATOM     25  C   UNL     1      -1.693  -2.111   1.090  0.00  0.00    +0.034 A 
ATOM     26  C   UNL     1      -2.864  -2.078   0.344  0.00  0.00    +0.026 A 
ATOM     27  C   UNL     1      -3.576  -0.900   0.231  0.00  0.00    +0.040 A 
ATOM     28  C   UNL     1      -3.124   0.247   0.859  0.00  0.00    +0.124 A 
ATOM     29  C   UNL     1      -1.956   0.217   1.603  0.00  0.00    +0.040 A 
ATOM     30  C   UNL     1      -1.241  -0.959   1.720  0.00  0.00    +0.026 A 
ATOM     31  F   UNL     1      -3.822   1.398   0.747  0.00  0.00    -0.205 F 
ENDBRANCH  23  25
ENDBRANCH  20  21
BRANCH  20  33
ATOM     32  C   UNL     1      -0.264  -5.511   3.098  0.00  0.00    +0.005 C 
ATOM     33  C   UNL     1       1.163  -5.127   2.699  0.00  0.00    +0.020 C 
ENDBRANCH  20  33
ENDBRANCH  19  20
ENDBRANCH   1  19
TORSDOF 8
