REMARK  Name = ZINC09252758
REMARK  8 active torsions:
REMARK  status: ('A' for Active; 'I' for Inactive)
REMARK    1  A    between atoms: C_3  and  C_6
REMARK    2  A    between atoms: C_6  and  C_8
REMARK    3  A    between atoms: C_6  and  N_55
REMARK    4  A    between atoms: C_15  and  C_16
REMARK    5  A    between atoms: C_15  and  N_55
REMARK    6  A    between atoms: N_18  and  C_19
REMARK    7  A    between atoms: C_22  and  S_25
REMARK    8  A    between atoms: S_25  and  N_28
REMARK                            x       y       z     vdW  Elec       q    Type
REMARK                         _______ _______ _______ _____ _____    ______ ____
ROOT
ATOM      1  C   UNL     1      -2.806   4.216   5.426  0.00  0.00    +0.200 C 
ATOM      2  O   UNL     1      -2.000   4.979   4.938  0.00  0.00    -0.278 OA
ATOM      3  N   UNL     1      -3.077   3.043   4.819  0.00  0.00    -0.287 N 
ATOM      4  H   UNL     1      -3.776   2.468   5.167  0.00  0.00    +0.155 HD
ENDROOT
BRANCH   3   5
ATOM      5  C   UNL     1      -2.351   2.656   3.688  0.00  0.00    +0.033 A 
ATOM      6  C   UNL     1      -1.014   3.011   3.565  0.00  0.00    +0.025 A 
ATOM      7  C   UNL     1      -0.299   2.627   2.447  0.00  0.00    +0.030 A 
ATOM      8  C   UNL     1      -0.914   1.891   1.451  0.00  0.00    +0.106 A 
ATOM      9  C   UNL     1      -2.247   1.541   1.568  0.00  0.00    +0.030 A 
ATOM     10  C   UNL     1      -2.965   1.917   2.686  0.00  0.00    +0.025 A 
BRANCH   8  11
ATOM     11  S   UNL     1       0.001   1.403   0.026  0.00  0.00    +0.061 S 
ATOM     12  O   UNL     1       1.076   2.324  -0.101  0.00  0.00    -0.153 OA
ATOM     13  O   UNL     1      -0.946   1.190  -1.011  0.00  0.00    -0.153 OA
BRANCH  11  14
ATOM     14  N   UNL     1       0.678  -0.071   0.360  0.00  0.00    -0.177 NA
ATOM     15  C   UNL     1       2.001  -0.290   0.963  0.00  0.00    +0.109 C 
ATOM     16  C   UNL     1       2.214  -1.815   1.060  0.00  0.00    +0.018 C 
ATOM     17  C   UNL     1       1.245  -2.368  -0.019  0.00  0.00    +0.018 C 
ATOM     18  C   UNL     1       0.057  -1.381   0.095  0.00  0.00    +0.109 C 
ENDBRANCH  11  14
ENDBRANCH   8  11
ENDBRANCH   3   5
BRANCH   1  19
ATOM     19  C   UNL     1      -3.504   4.578   6.712  0.00  0.00    +0.016 C 
BRANCH  19  20
ATOM     20  N   UNL     1      -3.031   5.901   7.162  0.00  0.00    +0.392 N 
ATOM     21  H   UNL     1      -2.017   5.864   7.315  0.00  0.00    -0.084 HD
ATOM     22  H   UNL     1      -3.244   6.600   6.441  0.00  0.00    -0.084 HD
BRANCH  20  23
ATOM     23  C   UNL     1      -3.699   6.282   8.421  0.00  0.00    -0.003 C 
BRANCH  23  24
ATOM     24  C   UNL     1      -3.705   7.784   8.542  0.00  0.00    -0.056 A 
ATOM     25  C   UNL     1      -2.592   8.512   8.165  0.00  0.00    +0.005 A 
ATOM     26  C   UNL     1      -2.598   9.890   8.270  0.00  0.00    +0.038 A 
ATOM     27  C   UNL     1      -3.716  10.541   8.766  0.00  0.00    +0.123 A 
ATOM     28  C   UNL     1      -4.827   9.810   9.149  0.00  0.00    +0.038 A 
ATOM     29  C   UNL     1      -4.821   8.433   9.037  0.00  0.00    +0.005 A 
ATOM     30  F   UNL     1      -3.720  11.887   8.876  0.00  0.00    -0.205 F 
ENDBRANCH  23  24
BRANCH  23  33
ATOM     31  C   UNL     1      -2.562   4.646  11.668  0.00  0.00    +0.008 A 
ATOM     32  C   UNL     1      -3.445   5.139  10.725  0.00  0.00    +0.010 A 
ATOM     33  C   UNL     1      -2.953   5.687   9.587  0.00  0.00    -0.020 A 
ATOM     34  S   UNL     1      -1.192   5.526   9.831  0.00  0.00    -0.103 S 
ATOM     35  C   UNL     1      -1.231   4.734  11.430  0.00  0.00    +0.045 A 
ENDBRANCH  23  33
ENDBRANCH  20  23
ENDBRANCH  19  20
ENDBRANCH   1  19
TORSDOF 8
