REMARK  Name = ZINC41991206
REMARK  8 active torsions:
REMARK  status: ('A' for Active; 'I' for Inactive)
REMARK    1  A    between atoms: C_1  and  C_2
REMARK    2  A    between atoms: C_2  and  C_3
REMARK    3  A    between atoms: C_3  and  C_4
REMARK    4  A    between atoms: C_4  and  C_5
REMARK    5  A    between atoms: C_4  and  C_6
REMARK    6  A    between atoms: C_4  and  S_9
REMARK    7  A    between atoms: S_9  and  C_10
REMARK    8  A    between atoms: C_14  and  N_16
REMARK                            x       y       z     vdW  Elec       q    Type
REMARK                         _______ _______ _______ _____ _____    ______ ____
ROOT
ATOM      1  C   UNL     1      -0.742  -4.405  -1.412  0.00  0.00    +0.193 A 
ATOM      2  N   UNL     1      -1.242  -4.950  -0.313  0.00  0.00    -0.207 NA
ATOM      3  C   UNL     1      -1.293  -6.273  -0.170  0.00  0.00    +0.122 A 
ATOM      4  C   UNL     1      -0.813  -7.084  -1.194  0.00  0.00    +0.086 A 
ATOM      5  C   UNL     1      -0.295  -6.475  -2.334  0.00  0.00    +0.122 A 
ATOM      6  N   UNL     1      -0.281  -5.146  -2.409  0.00  0.00    -0.207 NA
ATOM      7  N   UNL     1      -1.818  -6.835   0.984  0.00  0.00    -0.343 N 
ATOM      8  H   UNL     1      -2.150  -6.263   1.693  0.00  0.00    +0.144 HD
ATOM      9  H   UNL     1      -1.852  -7.799   1.081  0.00  0.00    +0.144 HD
ENDROOT
BRANCH   5  10
ATOM     10  N   UNL     1       0.195  -7.243  -3.379  0.00  0.00    -0.343 N 
ATOM     11  H   UNL     1       0.178  -8.211  -3.319  0.00  0.00    +0.144 HD
ATOM     12  H   UNL     1       0.555  -6.813  -4.170  0.00  0.00    +0.144 HD
ENDBRANCH   5  10
BRANCH   1  13
ATOM     13  S   UNL     1      -0.697  -2.650  -1.556  0.00  0.00    -0.068 S 
BRANCH  13  14
ATOM     14  C   UNL     1      -1.413  -2.063   0.004  0.00  0.00    +0.122 C 
ATOM     15  C   UNL     1      -2.841  -2.594   0.141  0.00  0.00    +0.035 C 
BRANCH  14  16
ATOM     16  C   UNL     1      -0.580  -2.561   1.158  0.00  0.00    +0.372 C 
ATOM     17  O   UNL     1      -0.891  -2.277   2.302  0.00  0.00    -0.245 OA
ATOM     18  O   UNL     1       0.405  -3.247   0.947  0.00  0.00    -0.245 OA
ENDBRANCH  14  16
BRANCH  14  19
ATOM     19  C   UNL     1      -1.433  -0.534   0.013  0.00  0.00    +0.029 C 
BRANCH  19  21
ATOM     20  C   UNL     1      -0.019   1.526   0.010  0.00  0.00    +0.004 C 
ATOM     21  C   UNL     1       0.002  -0.004   0.002  0.00  0.00    -0.002 C 
ENDBRANCH  19  21
ENDBRANCH  14  19
ENDBRANCH  13  14
ENDBRANCH   1  13
TORSDOF 6
