REMARK  Name = ZINC61226991
REMARK  7 active torsions:
REMARK  status: ('A' for Active; 'I' for Inactive)
REMARK    1  A    between atoms: C_1  and  C_2
REMARK    2  A    between atoms: C_2  and  C_3
REMARK    3  A    between atoms: C_2  and  C_4
REMARK    4  A    between atoms: C_4  and  C_5
REMARK    5  A    between atoms: C_4  and  N_17
REMARK    6  A    between atoms: C_8  and  C_11
REMARK    7  A    between atoms: C_18  and  C_20
REMARK                            x       y       z     vdW  Elec       q    Type
REMARK                         _______ _______ _______ _____ _____    ______ ____
ROOT
ATOM      1  C   UNL     1      -1.427  -0.536   0.026  0.00  0.00    +0.106 C 
ENDROOT
BRANCH   1   2
ATOM      2  C   UNL     1      -2.135  -0.052   1.265  0.00  0.00    -0.027 A 
ATOM      3  C   UNL     1      -1.927  -0.690   2.473  0.00  0.00    +0.006 A 
ATOM      4  C   UNL     1      -2.577  -0.246   3.610  0.00  0.00    +0.004 A 
ATOM      5  C   UNL     1      -3.433   0.836   3.538  0.00  0.00    -0.044 A 
ATOM      6  C   UNL     1      -3.640   1.475   2.330  0.00  0.00    +0.004 A 
ATOM      7  C   UNL     1      -2.988   1.034   1.194  0.00  0.00    +0.006 A 
BRANCH   5   8
ATOM      8  C   UNL     1      -4.142   1.320   4.777  0.00  0.00    +0.019 C 
ATOM      9  C   UNL     1      -5.655   1.232   4.567  0.00  0.00    +0.008 C 
ATOM     10  C   UNL     1      -6.375   1.722   5.825  0.00  0.00    +0.001 C 
ATOM     11  C   UNL     1      -5.982   3.175   6.103  0.00  0.00    +0.000 C 
ATOM     12  C   UNL     1      -4.469   3.263   6.314  0.00  0.00    +0.001 C 
ATOM     13  C   UNL     1      -3.750   2.772   5.056  0.00  0.00    +0.008 C 
ENDBRANCH   5   8
ENDBRANCH   1   2
BRANCH   1  14
ATOM     14  N   UNL     1      -1.410  -2.001   0.014  0.00  0.00    -0.308 N 
ATOM     15  C   UNL     1      -1.308  -2.664  -1.155  0.00  0.00    +0.217 C 
ATOM     16  O   UNL     1      -1.230  -2.048  -2.197  0.00  0.00    -0.275 OA
ATOM     17  H   UNL     1      -1.472  -2.493   0.847  0.00  0.00    +0.149 HD
BRANCH  15  18
ATOM     18  C   UNL     1      -1.290  -4.170  -1.167  0.00  0.00    +0.078 C 
ATOM     19  C   UNL     1      -0.098  -4.673  -0.350  0.00  0.00    +0.032 C 
ATOM     20  C   UNL     1      -0.102  -6.205  -0.336  0.00  0.00    +0.110 C 
ATOM     21  N   UNL     1      -0.132  -6.690  -1.723  0.00  0.00    -0.286 N 
ATOM     22  C   UNL     1      -1.185  -6.199  -2.621  0.00  0.00    +0.110 C 
ATOM     23  C   UNL     1      -1.168  -4.667  -2.610  0.00  0.00    +0.032 C 
ATOM     24  C   UNL     1       0.791  -7.570  -2.162  0.00  0.00    +0.300 C 
ATOM     25  O   UNL     1       1.712  -7.896  -1.439  0.00  0.00    -0.253 OA
ATOM     26  N   UNL     1       0.691  -8.087  -3.402  0.00  0.00    -0.313 N 
ATOM     27  H   UNL     1      -0.002  -7.774  -4.005  0.00  0.00    +0.146 HD
ATOM     28  H   UNL     1       1.312  -8.773  -3.693  0.00  0.00    +0.146 HD
ENDBRANCH  15  18
ENDBRANCH   1  14
BRANCH   1  30
ATOM     29  C   UNL     1      -0.009   1.521   0.033  0.00  0.00    +0.009 C 
ATOM     30  C   UNL     1       0.009  -0.009   0.020  0.00  0.00    +0.008 C 
ATOM     31  C   UNL     1       0.745  -0.520   1.260  0.00  0.00    +0.009 C 
ENDBRANCH   1  30
TORSDOF 5
