REMARK  Name = ZINC39911095
REMARK  13 active torsions:
REMARK  status: ('A' for Active; 'I' for Inactive)
REMARK    1  A    between atoms: C_1  and  C_2
REMARK    2  A    between atoms: C_2  and  C_3
REMARK    3  A    between atoms: C_3  and  O_4
REMARK    4  A    between atoms: O_4  and  C_5
REMARK    5  A    between atoms: C_8  and  C_14
REMARK    6  A    between atoms: C_10  and  O_11
REMARK    7  A    between atoms: O_11  and  C_12
REMARK    8  A    between atoms: C_12  and  C_13
REMARK    9  A    between atoms: C_21  and  C_39
REMARK   10  A    between atoms: C_23  and  C_38
REMARK   11  A    between atoms: N_29  and  C_30
REMARK   12  A    between atoms: C_30  and  C_31
REMARK   13  A    between atoms: C_34  and  C_37
REMARK                            x       y       z     vdW  Elec       q    Type
REMARK                         _______ _______ _______ _____ _____    ______ ____
ROOT
ATOM      1  C   UNL     1       3.349  -4.483   5.547  0.00  0.00    +0.145 C 
ATOM      2  C   UNL     1       4.830  -4.419   5.369  0.00  0.00    +0.072 A 
ATOM      3  C   UNL     1       5.701  -4.957   4.318  0.00  0.00    +0.199 A 
ATOM      4  O   UNL     1       5.278  -5.431   3.278  0.00  0.00    -0.287 OA
ATOM      5  C   UNL     1       7.147  -4.868   4.642  0.00  0.00    +0.065 A 
ATOM      6  C   UNL     1       8.091  -5.511   3.841  0.00  0.00    +0.018 A 
ATOM      7  C   UNL     1       9.419  -5.424   4.156  0.00  0.00    -0.049 A 
ATOM      8  C   UNL     1       9.828  -4.699   5.267  0.00  0.00    +0.010 A 
ATOM      9  C   UNL     1       8.910  -4.057   6.067  0.00  0.00    -0.007 A 
ATOM     10  C   UNL     1       7.550  -4.128   5.766  0.00  0.00    +0.142 A 
ATOM     11  O   UNL     1       6.666  -3.481   6.559  0.00  0.00    -0.449 OA
ATOM     12  C   UNL     1       5.347  -3.723   6.424  0.00  0.00    +0.199 A 
ATOM     13  C   UNL     1       4.235  -3.328   7.306  0.00  0.00    +0.283 C 
ATOM     14  O   UNL     1       4.356  -2.698   8.338  0.00  0.00    -0.267 OA
ATOM     15  N   UNL     1       3.063  -3.768   6.802  0.00  0.00    -0.279 N 
ATOM     16  C   UNL     1       9.375  -3.277   7.269  0.00  0.00    +0.047 C 
ATOM     17  C   UNL     1      10.442  -6.117   3.293  0.00  0.00    +0.044 C 
ENDROOT
BRANCH   1  21
ATOM     18  C   UNL     1       1.386  -2.554   2.274  0.00  0.00    +0.162 A 
ATOM     19  C   UNL     1       1.962  -1.799   3.283  0.00  0.00    +0.050 A 
ATOM     20  C   UNL     1       2.595  -2.425   4.340  0.00  0.00    +0.009 A 
ATOM     21  C   UNL     1       2.656  -3.805   4.393  0.00  0.00    -0.019 A 
ATOM     22  C   UNL     1       2.084  -4.565   3.389  0.00  0.00    +0.055 A 
ATOM     23  C   UNL     1       1.442  -3.944   2.330  0.00  0.00    +0.162 A 
BRANCH  18  24
ATOM     24  O   UNL     1       0.761  -1.940   1.234  0.00  0.00    -0.488 OA
BRANCH  24  25
ATOM     25  C   UNL     1       0.742  -0.511   1.242  0.00  0.00    +0.229 C 
BRANCH  25  27
ATOM     26  C   UNL     1      -0.019   1.526   0.010  0.00  0.00    +0.007 C 
ATOM     27  C   UNL     1       0.002  -0.004   0.002  0.00  0.00    +0.038 C 
ENDBRANCH  25  27
ENDBRANCH  24  25
ENDBRANCH  18  24
BRANCH  23  28
ATOM     28  O   UNL     1       0.874  -4.690   1.346  0.00  0.00    -0.489 OA
BRANCH  28  29
ATOM     29  C   UNL     1       0.971  -6.110   1.470  0.00  0.00    +0.226 C 
ATOM     30  C   UNL     1       0.279  -6.774   0.278  0.00  0.00    +0.048 C 
ENDBRANCH  28  29
ENDBRANCH  23  28
ENDBRANCH   1  21
BRANCH  15  31
ATOM     31  C   UNL     1       1.739  -3.569   7.396  0.00  0.00    +0.144 C 
BRANCH  31  32
ATOM     32  C   UNL     1       1.427  -4.715   8.325  0.00  0.00    -0.030 A 
ATOM     33  C   UNL     1       0.792  -5.843   7.841  0.00  0.00    +0.005 A 
ATOM     34  C   UNL     1       0.506  -6.894   8.692  0.00  0.00    +0.003 A 
ATOM     35  C   UNL     1       0.857  -6.817  10.027  0.00  0.00    -0.050 A 
ATOM     36  C   UNL     1       1.494  -5.689  10.511  0.00  0.00    +0.003 A 
ATOM     37  C   UNL     1       1.783  -4.640   9.658  0.00  0.00    +0.005 A 
ATOM     38  C   UNL     1       0.545  -7.962  10.956  0.00  0.00    +0.044 C 
ENDBRANCH  31  32
ENDBRANCH  15  31
TORSDOF 8
