REMARK  Name = ZINC27232146
REMARK  7 active torsions:
REMARK  status: ('A' for Active; 'I' for Inactive)
REMARK    1  A    between atoms: C_1  and  C_2
REMARK    2  A    between atoms: C_2  and  C_3
REMARK    3  A    between atoms: C_2  and  C_4
REMARK    4  A    between atoms: C_2  and  C_5
REMARK    5  A    between atoms: C_12  and  C_14
REMARK    6  A    between atoms: C_12  and  N_18
REMARK    7  A    between atoms: N_23  and  C_24
REMARK                            x       y       z     vdW  Elec       q    Type
REMARK                         _______ _______ _______ _____ _____    ______ ____
ROOT
ATOM      1  N   UNL     1      11.147   3.978  -5.371  0.00  0.00    -0.220 N 
ATOM      2  C   UNL     1      10.685   3.240  -6.400  0.00  0.00    +0.312 C 
ATOM      3  O   UNL     1       9.539   3.377  -6.780  0.00  0.00    -0.252 OA
ATOM      4  N   UNL     1      11.495   2.350  -7.008  0.00  0.00    -0.242 N 
ATOM      5  C   UNL     1      11.000   1.536  -8.004  0.00  0.00    +0.191 C 
ATOM      6  N   UNL     1      10.316   0.461  -7.692  0.00  0.00    -0.218 NA
ATOM      7  N   UNL     1      11.224   1.850  -9.321  0.00  0.00    -0.298 N 
ATOM      8  C   UNL     1      10.801   0.941 -10.398  0.00  0.00    +0.136 C 
ATOM      9  C   UNL     1      11.993   0.715 -11.335  0.00  0.00    +0.179 C 
ATOM     10  O   UNL     1      12.518   1.981 -11.742  0.00  0.00    -0.377 OA
ATOM     11  C   UNL     1      13.031   2.774 -10.669  0.00  0.00    +0.179 C 
ATOM     12  C   UNL     1      11.892   3.105  -9.697  0.00  0.00    +0.136 C 
ATOM     13  H   UNL     1      10.440   4.486  -4.698  0.00  0.00    +0.158 HD
ATOM     14  H   UNL     1      12.551   2.274  -6.709  0.00  0.00    +0.159 HD
ENDROOT
BRANCH   1  22
ATOM     15  C   UNL     1      13.264   8.566  -5.735  0.00  0.00    -0.038 A 
ATOM     16  C   UNL     1      13.500   8.146  -7.031  0.00  0.00    +0.008 A 
ATOM     17  C   UNL     1      13.515   6.797  -7.332  0.00  0.00    +0.050 A 
ATOM     18  C   UNL     1      13.293   5.862  -6.334  0.00  0.00    +0.169 A 
ATOM     19  C   UNL     1      13.055   6.285  -5.028  0.00  0.00    +0.169 A 
ATOM     20  C   UNL     1      13.042   7.639  -4.734  0.00  0.00    +0.053 A 
ATOM     21  O   UNL     1      12.869   5.186  -4.241  0.00  0.00    -0.426 OA
ATOM     22  C   UNL     1      12.589   4.105  -5.149  0.00  0.00    +0.436 C 
ATOM     23  O   UNL     1      13.256   4.498  -6.364  0.00  0.00    -0.426 OA
BRANCH  15  25
ATOM     24  C   UNL     1      13.521  10.842  -6.686  0.00  0.00    +0.015 C 
ATOM     25  C   UNL     1      13.250  10.039  -5.413  0.00  0.00    -0.013 C 
ATOM     26  C   UNL     1      11.881  10.424  -4.848  0.00  0.00    +0.015 C 
ATOM     27  C   UNL     1      14.334  10.344  -4.377  0.00  0.00    +0.015 C 
ENDBRANCH  15  25
BRANCH  22  28
ATOM     28  C   UNL     1      13.167   2.791  -4.620  0.00  0.00    +0.490 C 
ATOM     29  F   UNL     1      12.938   1.772  -5.551  0.00  0.00    -0.162 F 
ATOM     30  F   UNL     1      14.544   2.935  -4.416  0.00  0.00    -0.162 F 
ATOM     31  F   UNL     1      12.548   2.463  -3.409  0.00  0.00    -0.162 F 
ENDBRANCH  22  28
ENDBRANCH   1  22
BRANCH   6  32
ATOM     32  C   UNL     1       9.873   0.280  -6.409  0.00  0.00    +0.067 A 
ATOM     33  C   UNL     1       8.641  -0.334  -6.173  0.00  0.00    +0.028 A 
ATOM     34  C   UNL     1       8.202  -0.518  -4.878  0.00  0.00    +0.002 A 
ATOM     35  C   UNL     1       8.975  -0.087  -3.815  0.00  0.00    +0.000 A 
ATOM     36  C   UNL     1      10.194   0.526  -4.042  0.00  0.00    +0.002 A 
ATOM     37  C   UNL     1      10.647   0.712  -5.331  0.00  0.00    +0.028 A 
ENDBRANCH   6  32
TORSDOF 4
