REMARK  Name = ZINC09053239
REMARK  5 active torsions:
REMARK  status: ('A' for Active; 'I' for Inactive)
REMARK    1  A    between atoms: C_1  and  C_2
REMARK    2  A    between atoms: C_2  and  C_4
REMARK    3  A    between atoms: C_2  and  N_15
REMARK    4  A    between atoms: C_4  and  C_5
REMARK    5  A    between atoms: C_16  and  C_18
REMARK                            x       y       z     vdW  Elec       q    Type
REMARK                         _______ _______ _______ _____ _____    ______ ____
ROOT
ATOM      1  N   UNL     1       1.741   5.630  -1.966  0.00  0.00    -0.305 N 
ATOM      2  C   UNL     1       1.774   5.433  -3.299  0.00  0.00    +0.300 C 
ATOM      3  O   UNL     1       1.177   6.187  -4.039  0.00  0.00    -0.265 OA
ATOM      4  H   UNL     1       2.218   5.027  -1.375  0.00  0.00    +0.149 HD
ENDROOT
BRANCH   2   5
ATOM      5  C   UNL     1       2.545   4.286  -3.866  0.00  0.00    +0.304 C 
ATOM      6  O   UNL     1       3.143   3.532  -3.126  0.00  0.00    -0.265 OA
ATOM      7  N   UNL     1       2.578   4.089  -5.199  0.00  0.00    -0.263 N 
ATOM      8  C   UNL     1       3.382   3.086  -5.735  0.00  0.00    +0.125 A 
ATOM      9  C   UNL     1       3.494   2.957  -7.115  0.00  0.00    +0.045 A 
ATOM     10  C   UNL     1       4.299   1.960  -7.635  0.00  0.00    +0.025 A 
ATOM     11  C   UNL     1       4.960   1.115  -6.752  0.00  0.00    +0.059 A 
ATOM     12  C   UNL     1       4.798   1.297  -5.392  0.00  0.00    +0.132 A 
ATOM     13  N   UNL     1       4.028   2.261  -4.926  0.00  0.00    -0.239 NA
ATOM     14 CL   UNL     1       5.979  -0.157  -7.352  0.00  0.00    -0.082 Cl
ATOM     15  H   UNL     1       2.042   4.646  -5.785  0.00  0.00    +0.157 HD
ENDBRANCH   2   5
BRANCH   1  17
ATOM     16  C   UNL     1       1.855   8.012  -1.427  0.00  0.00    +0.028 C 
ATOM     17  C   UNL     1       0.984   6.754  -1.410  0.00  0.00    +0.075 C 
BRANCH  17  18
ATOM     18  C   UNL     1       0.578   6.433   0.030  0.00  0.00    +0.059 C 
BRANCH  18  19
ATOM     19  C   UNL     1      -0.377   5.268   0.035  0.00  0.00    -0.021 A 
ATOM     20  C   UNL     1      -1.718   5.335   0.050  0.00  0.00    +0.087 A 
ATOM     21  N   UNL     1      -2.248   4.074   0.050  0.00  0.00    -0.360 N 
ATOM     22  H   UNL     1      -3.196   3.868   0.060  0.00  0.00    +0.165 HD
ATOM     23  C   UNL     1      -1.236   3.141   0.035  0.00  0.00    +0.047 A 
ATOM     24  C   UNL     1      -0.020   3.848   0.025  0.00  0.00    +0.003 A 
ATOM     25  C   UNL     1       1.190   3.152   0.009  0.00  0.00    +0.010 A 
ATOM     26  C   UNL     1       1.187   1.785   0.004  0.00  0.00    +0.001 A 
ATOM     27  C   UNL     1      -0.010   1.083   0.013  0.00  0.00    +0.002 A 
ATOM     28  C   UNL     1      -1.216   1.750   0.023  0.00  0.00    +0.026 A 
ENDBRANCH  18  19
ENDBRANCH  17  18
ENDBRANCH   1  17
TORSDOF 4
