REMARK  Name = ZINC11006227
REMARK  9 active torsions:
REMARK  status: ('A' for Active; 'I' for Inactive)
REMARK    1  A    between atoms: C_1  and  C_2
REMARK    2  A    between atoms: C_2  and  N_3
REMARK    3  A    between atoms: C_12  and  S_13
REMARK    4  A    between atoms: S_13  and  C_14
REMARK    5  A    between atoms: C_14  and  C_16
REMARK    6  A    between atoms: C_14  and  C_17
REMARK    7  A    between atoms: N_19  and  C_20
REMARK    8  A    between atoms: C_22  and  C_25
REMARK    9  A    between atoms: C_27  and  C_31
REMARK                            x       y       z     vdW  Elec       q    Type
REMARK                         _______ _______ _______ _____ _____    ______ ____
ROOT
ATOM      1  N   UNL     1      -5.169   1.604   1.251  0.00  0.00    -0.288 N 
ATOM      2  C   UNL     1      -6.224   2.438   1.292  0.00  0.00    +0.263 A 
ATOM      3  O   UNL     1      -7.296   2.058   1.731  0.00  0.00    -0.267 OA
ATOM      4  C   UNL     1      -6.071   3.777   0.811  0.00  0.00    +0.076 A 
ATOM      5  C   UNL     1      -7.074   4.842   0.758  0.00  0.00    -0.023 A 
ATOM      6  C   UNL     1      -6.680   6.030   0.255  0.00  0.00    -0.004 A 
ATOM      7  S   UNL     1      -4.974   5.805  -0.173  0.00  0.00    -0.073 S 
ATOM      8  C   UNL     1      -4.795   4.112   0.327  0.00  0.00    +0.117 A 
ATOM      9  N   UNL     1      -3.793   3.241   0.318  0.00  0.00    -0.216 NA
ATOM     10  C   UNL     1      -3.961   2.014   0.768  0.00  0.00    +0.173 A 
ATOM     11  C   UNL     1      -7.509   7.268   0.095  0.00  0.00    +0.046 C 
ATOM     12  C   UNL     1      -8.988   6.884   0.247  0.00  0.00    -0.009 C 
ATOM     13  C   UNL     1      -9.143   6.006   1.492  0.00  0.00    +0.008 C 
ATOM     14  C   UNL     1      -8.506   4.638   1.246  0.00  0.00    +0.037 C 
ATOM     15  C   UNL     1      -9.833   8.150   0.398  0.00  0.00    +0.008 C 
ENDROOT
BRANCH   1  17
ATOM     16  C   UNL     1      -4.989   0.179   3.231  0.00  0.00    +0.027 C 
ATOM     17  C   UNL     1      -5.320   0.230   1.738  0.00  0.00    +0.124 C 
ENDBRANCH   1  17
BRANCH  10  18
ATOM     18  S   UNL     1      -2.608   0.885   0.740  0.00  0.00    -0.075 S 
BRANCH  18  19
ATOM     19  C   UNL     1      -1.330   1.944   0.019  0.00  0.00    +0.137 C 
ATOM     20  C   UNL     1      -1.720   2.311  -1.414  0.00  0.00    +0.029 C 
BRANCH  19  21
ATOM     21  C   UNL     1      -0.014   1.209   0.009  0.00  0.00    +0.233 C 
ATOM     22  O   UNL     1       0.002  -0.004   0.002  0.00  0.00    -0.274 OA
ATOM     23  N   UNL     1       1.143   1.898   0.001  0.00  0.00    -0.253 N 
ATOM     24  H   UNL     1       1.130   2.868   0.007  0.00  0.00    +0.158 HD
BRANCH  23  25
ATOM     25  C   UNL     1       2.354   1.221  -0.014  0.00  0.00    +0.224 A 
ATOM     26  C   UNL     1       3.602   1.774  -0.023  0.00  0.00    +0.092 A 
ATOM     27  C   UNL     1       4.467   0.661  -0.036  0.00  0.00    +0.082 A 
ATOM     28  N   UNL     1       3.707  -0.398  -0.034  0.00  0.00    -0.081 NA
ATOM     29  O   UNL     1       2.533  -0.109  -0.017  0.00  0.00    -0.339 OA
ATOM     30  C   UNL     1       5.973   0.689  -0.050  0.00  0.00    +0.069 C 
ENDBRANCH  23  25
ENDBRANCH  19  21
ENDBRANCH  18  19
ENDBRANCH  10  18
TORSDOF 5
