REMARK  Name = ZINC38762506
REMARK  6 active torsions:
REMARK  status: ('A' for Active; 'I' for Inactive)
REMARK    1  A    between atoms: C_1  and  C_2
REMARK    2  A    between atoms: C_3  and  C_12
REMARK    3  A    between atoms: C_8  and  C_10
REMARK    4  A    between atoms: C_13  and  C_14
REMARK    5  A    between atoms: C_15  and  C_28
REMARK    6  A    between atoms: N_17  and  C_21
REMARK                            x       y       z     vdW  Elec       q    Type
REMARK                         _______ _______ _______ _____ _____    ______ ____
ROOT
ATOM      1  C   UNL     1      -0.022   0.046  -4.878  0.00  0.00    +0.007 C 
ATOM      2  C   UNL     1      -0.026  -0.502  -6.102  0.00  0.00    +0.025 C 
ATOM      3  N   UNL     1      -0.042   0.456  -7.083  0.00  0.00    -0.266 N 
ATOM      4  N   UNL     1      -0.050   1.739  -6.522  0.00  0.00    -0.231 N 
ATOM      5  C   UNL     1      -0.043   1.547  -5.062  0.00  0.00    +0.216 C 
ATOM      6 CL   UNL     1       1.431   2.291  -4.340  0.00  0.00    -0.094 Cl
ATOM      7  C   UNL     1      -0.014  -1.986  -6.367  0.00  0.00    +0.062 C 
ATOM      8  H   UNL     1      -0.048   0.271  -8.036  0.00  0.00    +0.170 HD
ENDROOT
BRANCH   4   9
ATOM      9  C   UNL     1      -0.067   2.957  -7.209  0.00  0.00    +0.050 A 
ATOM     10  C   UNL     1      -0.067   4.154  -6.503  0.00  0.00    +0.027 A 
ATOM     11  C   UNL     1      -0.083   5.355  -7.184  0.00  0.00    +0.040 A 
ATOM     12  C   UNL     1      -0.101   5.368  -8.569  0.00  0.00    +0.124 A 
ATOM     13  C   UNL     1      -0.101   4.176  -9.274  0.00  0.00    +0.040 A 
ATOM     14  C   UNL     1      -0.078   2.972  -8.597  0.00  0.00    +0.027 A 
ATOM     15  F   UNL     1      -0.117   6.544  -9.232  0.00  0.00    -0.205 F 
ENDBRANCH   4   9
BRANCH   1  17
ATOM     16  C   UNL     1      -0.010   0.013  -2.444  0.00  0.00    +0.030 C 
ATOM     17  C   UNL     1      -0.006  -0.673  -3.605  0.00  0.00    +0.010 C 
BRANCH  16  20
ATOM     18  C   UNL     1      -0.018   1.503   0.010  0.00  0.00    +0.043 C 
ATOM     19  C   UNL     1       0.002  -0.004   0.002  0.00  0.00    -0.020 C 
ATOM     20  C   UNL     1       0.006  -0.711  -1.161  0.00  0.00    +0.085 C 
ATOM     21  N   UNL     1       0.025  -2.060  -1.166  0.00  0.00    -0.157 NA
ATOM     22  N   UNL     1       0.040  -2.807  -0.130  0.00  0.00    -0.078 NA
ATOM     23  C   UNL     1       0.038  -2.316   1.127  0.00  0.00    +0.275 C 
ATOM     24  O   UNL     1       0.053  -3.054   2.090  0.00  0.00    -0.270 OA
ATOM     25  C   UNL     1       0.025  -0.807   1.291  0.00  0.00    +0.208 C 
BRANCH  25  26
ATOM     26  C   UNL     1      -1.163  -0.445   2.081  0.00  0.00    +0.080 C 
ATOM     27  N   UNL     1      -2.080  -0.165   2.691  0.00  0.00    -0.195 NA
ENDBRANCH  25  26
ENDBRANCH  16  20
ENDBRANCH   1  17
TORSDOF 4
