REMARK  Name = ZINC63258838
REMARK  7 active torsions:
REMARK  status: ('A' for Active; 'I' for Inactive)
REMARK    1  A    between atoms: C_1  and  C_2
REMARK    2  A    between atoms: C_6  and  N_8
REMARK    3  A    between atoms: C_9  and  C_26
REMARK    4  A    between atoms: C_12  and  S_13
REMARK    5  A    between atoms: S_13  and  C_14
REMARK    6  A    between atoms: C_14  and  C_15
REMARK    7  A    between atoms: C_21  and  C_25
REMARK                            x       y       z     vdW  Elec       q    Type
REMARK                         _______ _______ _______ _____ _____    ______ ____
ROOT
ATOM      1  N   UNL     1       0.051  -2.798   2.394  0.00  0.00    -0.270 N 
ATOM      2  C   UNL     1      -0.933  -3.642   2.882  0.00  0.00    +0.168 A 
ATOM      3  N   UNL     1      -0.507  -4.097   4.051  0.00  0.00    -0.128 NA
ATOM      4  N   UNL     1       0.649  -3.603   4.315  0.00  0.00    -0.122 NA
ATOM      5  C   UNL     1       1.041  -2.806   3.332  0.00  0.00    +0.197 A 
ENDROOT
BRANCH   2   6
ATOM      6  C   UNL     1      -2.150  -3.955   2.257  0.00  0.00    +0.025 C 
ATOM      7  C   UNL     1      -3.153  -4.798   2.737  0.00  0.00    +0.006 A 
ATOM      8  C   UNL     1      -3.273  -5.559   3.919  0.00  0.00    +0.010 A 
ATOM      9  C   UNL     1      -4.388  -6.306   4.129  0.00  0.00    +0.001 A 
ATOM     10  C   UNL     1      -5.429  -6.342   3.200  0.00  0.00    +0.002 A 
ATOM     11  C   UNL     1      -5.381  -5.636   2.043  0.00  0.00    +0.026 A 
ATOM     12  C   UNL     1      -4.248  -4.832   1.754  0.00  0.00    +0.043 A 
ATOM     13  N   UNL     1      -3.964  -4.065   0.720  0.00  0.00    -0.380 N 
ATOM     14  C   UNL     1      -2.652  -3.444   0.924  0.00  0.00    +0.152 C 
ATOM     15  H   UNL     1      -4.535  -3.930  -0.052  0.00  0.00    +0.160 HD
ENDBRANCH   2   6
BRANCH   1  21
ATOM     16  C   UNL     1      -0.018   1.503   0.010  0.00  0.00    +0.044 C 
ATOM     17  C   UNL     1       0.002  -0.004   0.002  0.00  0.00    -0.048 A 
ATOM     18  C   UNL     1       0.006  -0.688  -1.200  0.00  0.00    +0.003 A 
ATOM     19  C   UNL     1       0.024  -2.071  -1.212  0.00  0.00    +0.002 A 
ATOM     20  C   UNL     1       0.040  -2.773  -0.022  0.00  0.00    +0.026 A 
ATOM     21  C   UNL     1       0.036  -2.089   1.186  0.00  0.00    +0.051 A 
ATOM     22  C   UNL     1       0.023  -0.700   1.194  0.00  0.00    +0.029 A 
ENDBRANCH   1  21
BRANCH   5  23
ATOM     23  S   UNL     1       2.560  -1.916   3.253  0.00  0.00    -0.080 S 
BRANCH  23  24
ATOM     24  C   UNL     1       3.409  -2.360   4.793  0.00  0.00    +0.129 C 
BRANCH  24  25
ATOM     25  C   UNL     1       4.740  -1.656   4.853  0.00  0.00    +0.034 C 
ATOM     26  N   UNL     1       5.870  -1.996   4.120  0.00  0.00    -0.304 N 
ATOM     27  C   UNL     1       6.873  -1.116   4.458  0.00  0.00    +0.095 C 
ATOM     28  C   UNL     1       8.159  -1.001   4.043  0.00  0.00    +0.039 C 
ATOM     29  C   UNL     1       9.033  -0.006   4.529  0.00  0.00    +0.001 C 
ATOM     30  C   UNL     1       8.628   0.889   5.439  0.00  0.00    -0.005 C 
ATOM     31  C   UNL     1       7.202   0.810   5.940  0.00  0.00    +0.099 C 
ATOM     32  N   UNL     1       6.348  -0.251   5.391  0.00  0.00    -0.287 N 
ATOM     33  C   UNL     1       5.027  -0.606   5.611  0.00  0.00    +0.096 C 
ATOM     34  C   UNL     1       6.527   2.151   5.648  0.00  0.00    +0.033 C 
ATOM     35  H   UNL     1       5.939  -2.725   3.483  0.00  0.00    +0.153 HD
ENDBRANCH  24  25
ENDBRANCH  23  24
ENDBRANCH   5  23
TORSDOF 5
