REMARK  Name = ZINC59310762
REMARK  11 active torsions:
REMARK  status: ('A' for Active; 'I' for Inactive)
REMARK    1  A    between atoms: C_1  and  C_2
REMARK    2  A    between atoms: C_2  and  C_3
REMARK    3  A    between atoms: C_2  and  C_4
REMARK    4  A    between atoms: C_4  and  S_5
REMARK    5  A    between atoms: S_5  and  C_6
REMARK    6  A    between atoms: C_12  and  C_14
REMARK    7  A    between atoms: C_14  and  S_15
REMARK    8  A    between atoms: S_15  and  C_16
REMARK    9  A    between atoms: N_21  and  N_22
REMARK   10  A    between atoms: C_23  and  C_24
REMARK   11  A    between atoms: C_23  and  C_25
REMARK                            x       y       z     vdW  Elec       q    Type
REMARK                         _______ _______ _______ _____ _____    ______ ____
ROOT
ATOM      1  C   UNL     1       6.168  -4.234  10.488  0.00  0.00    +0.211 A 
ATOM      2  N   UNL     1       7.273  -4.893  10.853  0.00  0.00    -0.186 NA
ATOM      3  C   UNL     1       7.312  -5.000  12.164  0.00  0.00    +0.232 A 
ATOM      4  N   UNL     1       6.213  -4.398  12.665  0.00  0.00    -0.245 N 
ATOM      5  N   UNL     1       5.492  -3.908  11.564  0.00  0.00    -0.144 NA
ATOM      6  N   UNL     1       8.307  -5.619  12.900  0.00  0.00    -0.205 N 
ATOM      7  H   UNL     1       8.248  -5.648  13.868  0.00  0.00    +0.177 HD
ATOM      8  H   UNL     1       5.969  -4.319  13.601  0.00  0.00    +0.192 HD
ENDROOT
BRANCH   6   9
ATOM      9  N   UNL     1       9.399  -6.207  12.248  0.00  0.00    -0.189 NA
ATOM     10  C   UNL     1      10.318  -6.780  12.928  0.00  0.00    +0.040 C 
ATOM     11  C   UNL     1      10.227  -6.824  14.432  0.00  0.00    +0.063 C 
BRANCH  10  12
ATOM     12  C   UNL     1      11.493  -7.412  12.226  0.00  0.00    +0.011 C 
ATOM     13  C   UNL     1      11.542  -8.905  12.556  0.00  0.00    +0.016 C 
ATOM     14  C   UNL     1      12.734  -9.546  11.844  0.00  0.00    -0.010 C 
ATOM     15  C   UNL     1      12.584  -9.362  10.332  0.00  0.00    +0.007 C 
ATOM     16  C   UNL     1      12.535  -7.869  10.002  0.00  0.00    -0.010 C 
ATOM     17  C   UNL     1      11.343  -7.228  10.715  0.00  0.00    +0.016 C 
ATOM     18  C   UNL     1      13.829  -7.200  10.471  0.00  0.00    +0.007 C 
ATOM     19  C   UNL     1      13.979  -7.384  11.983  0.00  0.00    -0.010 C 
ATOM     20  C   UNL     1      14.028  -8.877  12.313  0.00  0.00    +0.007 C 
ATOM     21  C   UNL     1      12.787  -6.743  12.695  0.00  0.00    +0.016 C 
ENDBRANCH  10  12
ENDBRANCH   6   9
BRANCH   1  22
ATOM     22  S   UNL     1       5.700  -3.857   8.832  0.00  0.00    -0.075 S 
BRANCH  22  23
ATOM     23  C   UNL     1       4.134  -2.958   9.012  0.00  0.00    +0.173 C 
BRANCH  23  30
ATOM     24  C   UNL     1       0.781  -0.698   4.053  0.00  0.00    +0.160 A 
ATOM     25  N   UNL     1       1.927  -1.362   4.025  0.00  0.00    -0.133 NA
ATOM     26  N   UNL     1       2.495  -1.758   5.079  0.00  0.00    -0.125 NA
ATOM     27  C   UNL     1       1.982  -1.535   6.278  0.00  0.00    +0.189 A 
ATOM     28  S   UNL     1       0.502  -0.636   5.821  0.00  0.00    -0.024 S 
ATOM     29  N   UNL     1       2.460  -1.892   7.537  0.00  0.00    -0.263 N 
ATOM     30  C   UNL     1       3.617  -2.572   7.650  0.00  0.00    +0.229 C 
ATOM     31  O   UNL     1       4.244  -2.874   6.656  0.00  0.00    -0.275 OA
ATOM     32  H   UNL     1       1.959  -1.651   8.332  0.00  0.00    +0.157 HD
BRANCH  24  33
ATOM     33  S   UNL     1      -0.187  -0.052   2.730  0.00  0.00    -0.097 S 
BRANCH  33  34
ATOM     34  C   UNL     1       0.742  -0.511   1.242  0.00  0.00    +0.079 C 
BRANCH  34  36
ATOM     35  C   UNL     1      -0.019   1.526   0.010  0.00  0.00    +0.008 C 
ATOM     36  C   UNL     1       0.002  -0.004   0.002  0.00  0.00    -0.007 C 
ATOM     37  C   UNL     1       0.718  -0.497  -1.257  0.00  0.00    +0.008 C 
ENDBRANCH  34  36
ENDBRANCH  33  34
ENDBRANCH  24  33
ENDBRANCH  23  30
ENDBRANCH  22  23
ENDBRANCH   1  22
TORSDOF 8
