REMARK  Name = ZINC00381254
REMARK  1 active torsions:
REMARK  status: ('A' for Active; 'I' for Inactive)
REMARK    1  A    between atoms: C_1  and  C_2
REMARK                            x       y       z     vdW  Elec       q    Type
REMARK                         _______ _______ _______ _____ _____    ______ ____
ROOT
ATOM      1  C   UNL     1      -0.018   1.503   0.010  0.00  0.00    +0.064 C 
ATOM      2  C   UNL     1       0.002  -0.004   0.002  0.00  0.00    +0.025 A 
ATOM      3  C   UNL     1      -0.097  -0.667  -1.171  0.00  0.00    +0.021 A 
ATOM      4  C   UNL     1      -0.079  -2.069  -1.193  0.00  0.00    +0.005 A 
ATOM      5  C   UNL     1       0.040  -2.757  -0.023  0.00  0.00    +0.047 A 
ATOM      6  C   UNL     1       0.141  -2.050   1.189  0.00  0.00    +0.144 A 
ATOM      7  N   UNL     1       0.126  -0.682   1.177  0.00  0.00    -0.265 N 
ATOM      8  C   UNL     1       0.228   0.004   2.335  0.00  0.00    +0.262 A 
ATOM      9  O   UNL     1       0.210   1.225   2.334  0.00  0.00    -0.267 OA
ATOM     10  C   UNL     1       0.354  -0.700   3.532  0.00  0.00    +0.142 A 
ATOM     11  C   UNL     1       0.370  -2.089   3.495  0.00  0.00    +0.277 A 
ATOM     12  N   UNL     1       0.257  -2.722   2.332  0.00  0.00    -0.191 NA
ATOM     13  O   UNL     1       0.492  -2.797   4.644  0.00  0.00    -0.266 OA
ENDROOT
TORSDOF 0
