REMARK  Name = ZINC19236564
REMARK  4 active torsions:
REMARK  status: ('A' for Active; 'I' for Inactive)
REMARK    1  A    between atoms: C_1  and  C_2
REMARK    2  A    between atoms: C_16  and  C_18
REMARK    3  A    between atoms: C_18  and  N_19
REMARK    4  A    between atoms: C_27  and  C_29
REMARK                            x       y       z     vdW  Elec       q    Type
REMARK                         _______ _______ _______ _____ _____    ______ ____
ROOT
ATOM      1  C   UNL     1      -0.111   5.366   0.032  0.00  0.00    +0.046 C 
ATOM      2  C   UNL     1      -0.064   3.859   0.024  0.00  0.00    -0.027 A 
ATOM      3  C   UNL     1      -1.234   3.132   0.031  0.00  0.00    +0.005 A 
ATOM      4  C   UNL     1      -1.204   1.744   0.017  0.00  0.00    +0.001 A 
ATOM      5  C   UNL     1      -0.013   1.076   0.008  0.00  0.00    +0.010 A 
ATOM      6  C   UNL     1       1.186   1.792   0.000  0.00  0.00    +0.005 A 
ATOM      7  C   UNL     1       1.160   3.200   0.009  0.00  0.00    +0.050 A 
ATOM      8  N   UNL     1       2.468   3.633   0.000  0.00  0.00    -0.357 N 
ATOM      9  H   UNL     1       2.692   4.710   0.007  0.00  0.00    +0.166 HD
ATOM     10  C   UNL     1       3.316   2.560  -0.017  0.00  0.00    +0.023 A 
ATOM     11  C   UNL     1       2.597   1.421  -0.015  0.00  0.00    -0.002 A 
ATOM     12  C   UNL     1       3.194   0.035  -0.024  0.00  0.00    +0.145 C 
ATOM     13  N   UNL     1       4.633   0.180  -0.305  0.00  0.00    -0.295 N 
ATOM     14  C   UNL     1       5.373   1.242   0.393  0.00  0.00    +0.114 C 
ATOM     15  C   UNL     1       4.826   2.607  -0.042  0.00  0.00    +0.072 C 
ATOM     16  C   UNL     1       5.255  -0.638  -1.177  0.00  0.00    +0.234 C 
ATOM     17  O   UNL     1       4.629  -1.509  -1.743  0.00  0.00    -0.274 OA
ENDROOT
BRANCH  16  18
ATOM     18  C   UNL     1       6.728  -0.472  -1.448  0.00  0.00    +0.213 C 
BRANCH  18  19
ATOM     19  N   UNL     1       7.161  -1.475  -2.424  0.00  0.00    -0.215 N 
ATOM     20  C   UNL     1       7.152  -1.286  -3.760  0.00  0.00    +0.247 C 
ATOM     21  O   UNL     1       6.799  -0.293  -4.358  0.00  0.00    -0.273 OA
ATOM     22  C   UNL     1       7.677  -2.573  -4.353  0.00  0.00    +0.115 C 
ATOM     23  C   UNL     1       6.622  -3.216  -5.247  0.00  0.00    +0.035 C 
ATOM     24  C   UNL     1       6.329  -2.295  -6.434  0.00  0.00    +0.003 C 
ATOM     25  C   UNL     1       7.617  -2.060  -7.226  0.00  0.00    +0.000 C 
ATOM     26  C   UNL     1       8.659  -1.397  -6.323  0.00  0.00    +0.006 C 
ATOM     27  C   UNL     1       8.961  -2.314  -5.134  0.00  0.00    +0.018 C 
ATOM     28  C   UNL     1       9.987  -1.642  -4.220  0.00  0.00    +0.010 C 
ATOM     29  N   UNL     1       7.948  -3.420  -3.184  0.00  0.00    -0.285 N 
ATOM     30  C   UNL     1       7.620  -2.690  -2.101  0.00  0.00    +0.310 C 
ATOM     31  O   UNL     1       7.726  -3.091  -0.959  0.00  0.00    -0.252 OA
ATOM     32  H   UNL     1       8.343  -4.438  -3.322  0.00  0.00    +0.151 HD
ENDBRANCH  18  19
ENDBRANCH  16  18
TORSDOF 2
