REMARK  Name = ZINC19901366
REMARK  13 active torsions:
REMARK  status: ('A' for Active; 'I' for Inactive)
REMARK    1  A    between atoms: C_1  and  C_2
REMARK    2  A    between atoms: C_5  and  C_37
REMARK    3  A    between atoms: C_6  and  O_8
REMARK    4  A    between atoms: O_8  and  C_9
REMARK    5  A    between atoms: C_9  and  C_10
REMARK    6  A    between atoms: C_10  and  C_12
REMARK    7  A    between atoms: C_10  and  O_36
REMARK    8  A    between atoms: C_12  and  N_13
REMARK    9  A    between atoms: N_16  and  C_19
REMARK   10  A    between atoms: C_19  and  C_20
REMARK   11  A    between atoms: C_20  and  N_21
REMARK   12  A    between atoms: C_37  and  C_38
REMARK   13  A    between atoms: C_37  and  C_39
REMARK                            x       y       z     vdW  Elec       q    Type
REMARK                         _______ _______ _______ _____ _____    ______ ____
ROOT
ATOM      1  N   UNL     1       2.040   5.669   0.271  0.00  0.00    -0.303 NA
ATOM      2  C   UNL     1       1.351   6.170  -0.927  0.00  0.00    +0.066 C 
ATOM      3  C   UNL     1       0.948   7.630  -0.707  0.00  0.00    -0.063 C 
ATOM      4  N   UNL     1       2.147   8.429  -0.419  0.00  0.00    +0.382 N 
ATOM      5  C   UNL     1       2.836   7.928   0.778  0.00  0.00    -0.063 C 
ATOM      6  C   UNL     1       3.239   6.468   0.558  0.00  0.00    +0.066 C 
ATOM      7  H   UNL     1       2.834   8.330  -1.273  0.00  0.00    -0.082 HD
ENDROOT
BRANCH   1   8
ATOM      8  C   UNL     1       2.376   4.246   0.128  0.00  0.00    +0.119 C 
BRANCH   8   9
ATOM      9  C   UNL     1       2.628   3.640   1.510  0.00  0.00    +0.166 C 
BRANCH   9  10
ATOM     10  O   UNL     1       1.448   3.763   2.306  0.00  0.00    -0.387 OA
ATOM     11  H   UNL     1       1.032   4.757   2.524  0.00  0.00    +0.210 HD
ENDBRANCH   9  10
BRANCH   9  12
ATOM     12  C   UNL     1       2.992   2.162   1.360  0.00  0.00    +0.261 C 
BRANCH  12  13
ATOM     13  O   UNL     1       3.341   1.625   2.638  0.00  0.00    -0.489 OA
BRANCH  13  19
ATOM     14  C   UNL     1       4.068  -2.597   0.300  0.00  0.00    +0.044 C 
ATOM     15  C   UNL     1       4.058  -1.776   1.563  0.00  0.00    -0.047 A 
ATOM     16  C   UNL     1       4.407  -2.358   2.768  0.00  0.00    +0.004 A 
ATOM     17  C   UNL     1       4.399  -1.607   3.929  0.00  0.00    +0.008 A 
ATOM     18  C   UNL     1       4.048  -0.272   3.887  0.00  0.00    -0.003 A 
ATOM     19  C   UNL     1       3.692   0.313   2.681  0.00  0.00    +0.124 A 
ATOM     20  C   UNL     1       3.701  -0.443   1.517  0.00  0.00    +0.049 A 
BRANCH  18  21
ATOM     21  C   UNL     1       4.045   0.547   5.152  0.00  0.00    +0.016 C 
ATOM     22  C   UNL     1       3.066  -0.066   6.155  0.00  0.00    +0.012 C 
ATOM     23  C   UNL     1       5.451   0.559   5.755  0.00  0.00    +0.012 C 
ENDBRANCH  18  21
ENDBRANCH  13  19
ENDBRANCH  12  13
ENDBRANCH   9  12
ENDBRANCH   8   9
ENDBRANCH   1   8
BRANCH   4  24
ATOM     24  C   UNL     1       1.811   9.852  -0.276  0.00  0.00    -0.059 C 
BRANCH  24  25
ATOM     25  C   UNL     1       0.885  10.274  -1.419  0.00  0.00    +0.098 C 
BRANCH  25  26
ATOM     26  N   UNL     1       0.549  11.693  -1.276  0.00  0.00    -0.236 N 
ATOM     27  C   UNL     1      -0.542  12.033  -0.563  0.00  0.00    +0.254 C 
ATOM     28  O   UNL     1      -1.225  11.165  -0.054  0.00  0.00    -0.270 OA
ATOM     29  C   UNL     1      -0.908  13.446  -0.394  0.00  0.00    +0.046 A 
ATOM     30  C   UNL     1      -2.020  13.841   0.335  0.00  0.00    +0.014 A 
ATOM     31  C   UNL     1      -2.329  15.190   0.463  0.00  0.00    +0.001 A 
ATOM     32  C   UNL     1      -1.559  16.158  -0.117  0.00  0.00    +0.008 A 
ATOM     33  C   UNL     1      -0.423  15.800  -0.864  0.00  0.00    -0.016 A 
ATOM     34  C   UNL     1      -0.100  14.434  -1.001  0.00  0.00    +0.006 A 
ATOM     35  C   UNL     1       1.035  14.042  -1.746  0.00  0.00    +0.046 A 
ATOM     36  C   UNL     1       1.822  15.019  -2.339  0.00  0.00    +0.014 A 
ATOM     37  C   UNL     1       1.493  16.362  -2.196  0.00  0.00    +0.001 A 
ATOM     38  C   UNL     1       0.400  16.759  -1.480  0.00  0.00    +0.008 A 
ATOM     39  C   UNL     1       1.340  12.609  -1.867  0.00  0.00    +0.254 C 
ATOM     40  O   UNL     1       2.311  12.249  -2.504  0.00  0.00    -0.270 OA
ENDBRANCH  25  26
ENDBRANCH  24  25
ENDBRANCH   4  24
TORSDOF 10
