REMARK  Name = ZINC63216438
REMARK  5 active torsions:
REMARK  status: ('A' for Active; 'I' for Inactive)
REMARK    1  A    between atoms: C_1  and  C_2
REMARK    2  A    between atoms: N_8  and  S_9
REMARK    3  A    between atoms: S_9  and  N_12
REMARK    4  A    between atoms: N_12  and  C_13
REMARK    5  A    between atoms: CA_14  and  C_19
REMARK                            x       y       z     vdW  Elec       q    Type
REMARK                         _______ _______ _______ _____ _____    ______ ____
ROOT
ATOM      1  S   UNL     1       1.415   0.561   2.252  0.00  0.00    +0.133 S 
ATOM      2  O   UNL     1       0.293   1.213   2.832  0.00  0.00    -0.136 OA
ATOM      3  O   UNL     1       2.357  -0.167   3.028  0.00  0.00    -0.136 OA
ENDROOT
BRANCH   1  10
ATOM      4  C   UNL     1      -0.794   1.289   0.639  0.00  0.00    +0.026 C 
ATOM      5  C   UNL     1      -0.379  -0.153   0.342  0.00  0.00    +0.078 C 
ATOM      6  C   UNL     1      -0.057  -0.297  -1.149  0.00  0.00    +0.020 C 
ATOM      7  C   UNL     1       0.490  -1.701  -1.416  0.00  0.00    +0.003 C 
ATOM      8  C   UNL     1       1.781  -1.907  -0.621  0.00  0.00    +0.017 C 
ATOM      9  C   UNL     1       1.480  -1.781   0.876  0.00  0.00    +0.111 C 
ATOM     10  N   UNL     1       0.819  -0.492   1.122  0.00  0.00    -0.159 NA
ENDBRANCH   1  10
BRANCH   1  11
ATOM     11  N   UNL     1       2.269   1.723   1.438  0.00  0.00    -0.065 NA
BRANCH  11  12
ATOM     12  C   UNL     1       2.885   2.743   2.136  0.00  0.00    +0.196 A 
ATOM     13  CA  UNL     1       3.606   3.735   1.448  0.00  0.00    +0.195 A 
ATOM     14  N   UNL     1       4.196   4.714   2.130  0.00  0.00    -0.244 NA
ATOM     15  C   UNL     1       4.102   4.750   3.443  0.00  0.00    +0.131 A 
ATOM     16  C   UNL     1       3.389   3.771   4.123  0.00  0.00    +0.132 A 
ATOM     17  N   UNL     1       2.794   2.797   3.460  0.00  0.00    -0.234 NA
BRANCH  13  18
ATOM     18  C   UNL     1       3.709   3.690  -0.022  0.00  0.00    +0.408 C 
ATOM     19  O   UNL     1       3.167   2.789  -0.646  0.00  0.00    -0.239 OA
ATOM     20  OXT UNL     1       4.338   4.554  -0.618  0.00  0.00    -0.239 OA
ENDBRANCH  13  18
ENDBRANCH  11  12
ENDBRANCH   1  11
TORSDOF 4
