REMARK  Name = ZINC00876095
REMARK  12 active torsions:
REMARK  status: ('A' for Active; 'I' for Inactive)
REMARK    1  A    between atoms: C_1  and  C_2
REMARK    2  A    between atoms: C_5  and  C_7
REMARK    3  A    between atoms: C_9  and  C_37
REMARK    4  A    between atoms: C_10  and  S_26
REMARK    5  A    between atoms: C_12  and  C_25
REMARK    6  A    between atoms: C_13  and  C_14
REMARK    7  A    between atoms: N_16  and  C_17
REMARK    8  A    between atoms: C_22  and  O_23
REMARK    9  A    between atoms: O_23  and  C_24
REMARK   10  A    between atoms: S_26  and  C_27
REMARK   11  A    between atoms: C_27  and  C_28
REMARK   12  A    between atoms: N_30  and  C_31
REMARK                            x       y       z     vdW  Elec       q    Type
REMARK                         _______ _______ _______ _____ _____    ______ ____
ROOT
ATOM      1  C   UNL     1      -2.826   0.824   5.783  0.00  0.00    +0.134 C 
ATOM      2  C   UNL     1      -2.925  -0.031   7.014  0.00  0.00    +0.072 C 
ATOM      3  C   UNL     1      -3.550   0.416   8.136  0.00  0.00    +0.080 C 
ATOM      4  N   UNL     1      -4.103   1.677   8.172  0.00  0.00    -0.312 N 
ATOM      5  C   UNL     1      -3.731   2.616   7.249  0.00  0.00    +0.015 C 
ATOM      6  C   UNL     1      -3.125   2.260   6.105  0.00  0.00    +0.047 C 
ATOM      7  C   UNL     1      -4.009   4.072   7.519  0.00  0.00    +0.061 C 
ATOM      8  H   UNL     1      -4.846   1.930   8.943  0.00  0.00    +0.152 HD
ENDROOT
BRANCH   1  13
ATOM      9  C   UNL     1      -7.180  -0.416   3.559  0.00  0.00    +0.086 C 
ATOM     10  C   UNL     1      -5.705  -0.208   3.789  0.00  0.00    +0.102 A 
ATOM     11  C   UNL     1      -4.725  -0.488   2.910  0.00  0.00    +0.044 A 
ATOM     12  C   UNL     1      -3.505  -0.136   3.532  0.00  0.00    +0.046 A 
ATOM     13  C   UNL     1      -3.812   0.331   4.756  0.00  0.00    +0.118 A 
ATOM     14  O   UNL     1      -5.146   0.288   4.905  0.00  0.00    -0.464 OA
ENDBRANCH   1  13
BRANCH   6  15
ATOM     15  C   UNL     1      -2.754   3.266   5.180  0.00  0.00    +0.247 C 
ATOM     16  O   UNL     1      -2.908   4.440   5.463  0.00  0.00    -0.270 OA
ATOM     17  N   UNL     1      -2.230   2.923   3.987  0.00  0.00    -0.279 N 
ATOM     18  H   UNL     1      -2.155   1.863   3.703  0.00  0.00    +0.155 HD
BRANCH  17  19
ATOM     19  C   UNL     1      -1.780   3.917   3.108  0.00  0.00    +0.076 A 
ATOM     20  C   UNL     1      -2.437   5.137   3.043  0.00  0.00    +0.027 A 
ATOM     21  C   UNL     1      -1.996   6.114   2.171  0.00  0.00    +0.002 A 
ATOM     22  C   UNL     1      -0.896   5.881   1.366  0.00  0.00    +0.004 A 
ATOM     23  C   UNL     1      -0.233   4.669   1.429  0.00  0.00    +0.047 A 
ATOM     24  C   UNL     1      -0.669   3.685   2.300  0.00  0.00    +0.141 A 
BRANCH  24  25
ATOM     25  O   UNL     1      -0.018   2.493   2.363  0.00  0.00    -0.493 OA
ATOM     26  C   UNL     1       1.109   2.323   1.501  0.00  0.00    +0.277 C 
ENDBRANCH  24  25
ENDBRANCH  17  19
ENDBRANCH   6  15
BRANCH   2  27
ATOM     27  C   UNL     1      -2.350  -1.343   7.006  0.00  0.00    +0.098 C 
ATOM     28  N   UNL     1      -1.895  -2.384   7.000  0.00  0.00    -0.191 NA
ENDBRANCH   2  27
BRANCH   3  29
ATOM     29  S   UNL     1      -3.652  -0.624   9.555  0.00  0.00    -0.100 S 
BRANCH  29  30
ATOM     30  C   UNL     1      -4.554   0.468  10.681  0.00  0.00    +0.171 C 
BRANCH  30  31
ATOM     31  C   UNL     1      -4.763  -0.232  11.999  0.00  0.00    +0.227 C 
ATOM     32  O   UNL     1      -4.343  -1.358  12.161  0.00  0.00    -0.275 OA
ATOM     33  N   UNL     1      -5.417   0.394  12.998  0.00  0.00    -0.285 N 
ATOM     34  H   UNL     1      -5.736   1.440  12.877  0.00  0.00    +0.155 HD
BRANCH  33  35
ATOM     35  C   UNL     1      -5.690  -0.287  14.190  0.00  0.00    +0.033 A 
ATOM     36  C   UNL     1      -6.866  -0.033  14.883  0.00  0.00    +0.023 A 
ATOM     37  C   UNL     1      -7.135  -0.711  16.056  0.00  0.00    +0.002 A 
ATOM     38  C   UNL     1      -6.229  -1.633  16.547  0.00  0.00    +0.000 A 
ATOM     39  C   UNL     1      -5.054  -1.884  15.862  0.00  0.00    +0.002 A 
ATOM     40  C   UNL     1      -4.782  -1.214  14.686  0.00  0.00    +0.023 A 
ENDBRANCH  33  35
ENDBRANCH  30  31
ENDBRANCH  29  30
ENDBRANCH   3  29
TORSDOF 9
