REMARK  Name = ZINC09223312
REMARK  9 active torsions:
REMARK  status: ('A' for Active; 'I' for Inactive)
REMARK    1  A    between atoms: C_1  and  O_2
REMARK    2  A    between atoms: O_2  and  C_3
REMARK    3  A    between atoms: C_6  and  C_9
REMARK    4  A    between atoms: C_9  and  C_26
REMARK    5  A    between atoms: N_12  and  C_16
REMARK    6  A    between atoms: C_16  and  C_17
REMARK    7  A    between atoms: C_17  and  C_19
REMARK    8  A    between atoms: C_29  and  O_32
REMARK    9  A    between atoms: O_32  and  C_33
REMARK                            x       y       z     vdW  Elec       q    Type
REMARK                         _______ _______ _______ _____ _____    ______ ____
ROOT
ATOM      1  C   UNL     1      -4.775   4.802   0.685  0.00  0.00    +0.164 C 
ATOM      2  C   UNL     1      -3.859   3.713   1.207  0.00  0.00    +0.256 C 
ATOM      3  O   UNL     1      -3.948   3.125   2.263  0.00  0.00    -0.272 OA
ATOM      4  N   UNL     1      -2.924   3.535   0.252  0.00  0.00    -0.216 N 
ATOM      5  C   UNL     1      -3.118   4.355  -0.787  0.00  0.00    +0.310 C 
ATOM      6  O   UNL     1      -2.401   4.383  -1.768  0.00  0.00    -0.252 OA
ATOM      7  N   UNL     1      -4.196   5.143  -0.626  0.00  0.00    -0.278 N 
ATOM      8  H   UNL     1      -4.526   5.809  -1.250  0.00  0.00    +0.152 HD
ENDROOT
BRANCH   1  12
ATOM      9  C   UNL     1      -8.759   3.325   0.230  0.00  0.00    +0.120 A 
ATOM     10  C   UNL     1      -8.065   3.099   1.410  0.00  0.00    +0.046 A 
ATOM     11  C   UNL     1      -6.777   3.577   1.554  0.00  0.00    +0.010 A 
ATOM     12  C   UNL     1      -6.180   4.281   0.524  0.00  0.00    -0.011 A 
ATOM     13  C   UNL     1      -6.872   4.512  -0.650  0.00  0.00    +0.010 A 
ATOM     14  C   UNL     1      -8.158   4.031  -0.802  0.00  0.00    +0.046 A 
BRANCH   9  16
ATOM     15  C   UNL     1     -10.681   3.125  -1.155  0.00  0.00    +0.277 C 
ATOM     16  O   UNL     1     -10.026   2.856   0.086  0.00  0.00    -0.495 OA
ENDBRANCH   9  16
ENDBRANCH   1  12
BRANCH   1  17
ATOM     17  C   UNL     1      -4.753   5.998   1.602  0.00  0.00    -0.011 A 
ATOM     18  C   UNL     1      -4.972   5.833   2.957  0.00  0.00    +0.010 A 
ATOM     19  C   UNL     1      -4.947   6.927   3.800  0.00  0.00    +0.046 A 
ATOM     20  C   UNL     1      -4.713   8.194   3.284  0.00  0.00    +0.120 A 
ATOM     21  C   UNL     1      -4.500   8.357   1.923  0.00  0.00    +0.046 A 
ATOM     22  C   UNL     1      -4.520   7.259   1.085  0.00  0.00    +0.010 A 
BRANCH  20  23
ATOM     23  O   UNL     1      -4.694   9.272   4.111  0.00  0.00    -0.495 OA
ATOM     24  C   UNL     1      -4.922   9.029   5.500  0.00  0.00    +0.277 C 
ENDBRANCH  20  23
ENDBRANCH   1  17
BRANCH   4  25
ATOM     25  C   UNL     1      -1.828   2.567   0.344  0.00  0.00    +0.197 C 
BRANCH  25  26
ATOM     26  C   UNL     1      -2.269   1.251  -0.241  0.00  0.00    +0.181 C 
ATOM     27  O   UNL     1      -3.389   1.133  -0.691  0.00  0.00    -0.290 OA
BRANCH  26  28
ATOM     28  C   UNL     1      -1.343   0.110  -0.267  0.00  0.00    +0.019 A 
ATOM     29  C   UNL     1      -0.047   0.245   0.246  0.00  0.00    +0.014 A 
ATOM     30  C   UNL     1       0.818  -0.826   0.214  0.00  0.00    +0.039 A 
ATOM     31  C   UNL     1       0.408  -2.037  -0.326  0.00  0.00    +0.123 A 
ATOM     32  C   UNL     1      -0.874  -2.177  -0.836  0.00  0.00    +0.039 A 
ATOM     33  C   UNL     1      -1.749  -1.114  -0.810  0.00  0.00    +0.014 A 
ATOM     34  F   UNL     1       1.262  -3.083  -0.354  0.00  0.00    -0.205 F 
ENDBRANCH  26  28
ENDBRANCH  25  26
ENDBRANCH   4  25
TORSDOF 7
