REMARK  Name = ZINC58849561
REMARK  11 active torsions:
REMARK  status: ('A' for Active; 'I' for Inactive)
REMARK    1  A    between atoms: C_1  and  O_2
REMARK    2  A    between atoms: O_2  and  C_3
REMARK    3  A    between atoms: C_6  and  N_11
REMARK    4  A    between atoms: C_8  and  O_9
REMARK    5  A    between atoms: O_9  and  C_10
REMARK    6  A    between atoms: N_11  and  S_12
REMARK    7  A    between atoms: S_12  and  C_15
REMARK    8  A    between atoms: C_28  and  C_31
REMARK    9  A    between atoms: C_34  and  C_37
REMARK   10  A    between atoms: C_37  and  O_39
REMARK   11  A    between atoms: O_39  and  C_40
REMARK                            x       y       z     vdW  Elec       q    Type
REMARK                         _______ _______ _______ _____ _____    ______ ____
ROOT
ATOM      1  C   UNL     1       5.095  -2.197  -3.555  0.00  0.00    +0.109 A 
ATOM      2  C   UNL     1       5.311  -1.231  -2.589  0.00  0.00    +0.030 A 
ATOM      3  C   UNL     1       6.231  -1.459  -1.587  0.00  0.00    +0.025 A 
ATOM      4  C   UNL     1       6.938  -2.657  -1.546  0.00  0.00    +0.031 A 
ATOM      5  C   UNL     1       6.713  -3.631  -2.506  0.00  0.00    -0.018 A 
ATOM      6  C   UNL     1       5.787  -3.390  -3.511  0.00  0.00    +0.034 A 
ATOM      7  C   UNL     1       7.421  -4.943  -2.473  0.00  0.00    +0.049 C 
ATOM      8  C   UNL     1       8.521  -5.021  -3.501  0.00  0.00    -0.023 C 
ATOM      9  C   UNL     1       9.535  -5.701  -3.029  0.00  0.00    -0.030 C 
ATOM     10  C   UNL     1       9.261  -6.170  -1.617  0.00  0.00    +0.033 C 
ATOM     11  C   UNL     1       8.103  -5.262  -1.144  0.00  0.00    +0.029 C 
ATOM     12  C   UNL     1       8.702  -4.051  -0.460  0.00  0.00    +0.105 C 
ATOM     13  N   UNL     1       7.875  -2.865  -0.541  0.00  0.00    -0.336 N 
ATOM     14  H   UNL     1       7.997  -2.171   0.126  0.00  0.00    +0.147 HD
ENDROOT
BRANCH  12  15
ATOM     15  C   UNL     1      10.050  -3.772  -1.074  0.00  0.00    -0.027 A 
ATOM     16  C   UNL     1      10.131  -3.097  -2.280  0.00  0.00    +0.006 A 
ATOM     17  C   UNL     1      11.361  -2.839  -2.847  0.00  0.00    +0.015 A 
ATOM     18  C   UNL     1      12.526  -3.259  -2.203  0.00  0.00    +0.059 A 
ATOM     19  C   UNL     1      12.437  -3.939  -0.986  0.00  0.00    +0.015 A 
ATOM     20  C   UNL     1      11.201  -4.186  -0.427  0.00  0.00    +0.006 A 
BRANCH  18  21
ATOM     21  C   UNL     1      13.847  -2.986  -2.805  0.00  0.00    +0.339 C 
ATOM     22  O   UNL     1      13.921  -2.394  -3.864  0.00  0.00    -0.245 OA
BRANCH  21  23
ATOM     23  O   UNL     1      14.969  -3.392  -2.181  0.00  0.00    -0.464 OA
ATOM     24  C   UNL     1      16.212  -3.095  -2.820  0.00  0.00    +0.280 C 
ENDBRANCH  21  23
ENDBRANCH  18  21
ENDBRANCH  12  15
BRANCH   1  25
ATOM     25  S   UNL     1       3.927  -1.906  -4.842  0.00  0.00    +0.072 S 
ATOM     26  O   UNL     1       4.302  -2.743  -5.928  0.00  0.00    -0.150 OA
ATOM     27  O   UNL     1       3.810  -0.496  -4.973  0.00  0.00    -0.150 OA
BRANCH  25  28
ATOM     28  N   UNL     1       2.460  -2.455  -4.306  0.00  0.00    -0.216 N 
ATOM     29  H   UNL     1       2.032  -3.205  -4.747  0.00  0.00    +0.174 HD
BRANCH  28  33
ATOM     30  C   UNL     1       0.607  -0.608  -1.057  0.00  0.00    +0.162 A 
ATOM     31  C   UNL     1       1.173   0.160  -2.062  0.00  0.00    +0.051 A 
ATOM     32  C   UNL     1       1.787  -0.452  -3.138  0.00  0.00    +0.028 A 
ATOM     33  C   UNL     1       1.838  -1.837  -3.215  0.00  0.00    +0.052 A 
ATOM     34  C   UNL     1       1.272  -2.610  -2.210  0.00  0.00    +0.074 A 
ATOM     35  C   UNL     1       0.661  -1.996  -1.128  0.00  0.00    +0.163 A 
BRANCH  30  37
ATOM     36  C   UNL     1      -0.017   1.425   0.010  0.00  0.00    +0.277 C 
ATOM     37  O   UNL     1       0.002  -0.004   0.002  0.00  0.00    -0.491 OA
ENDBRANCH  30  37
BRANCH  35  38
ATOM     38  O   UNL     1       0.111  -2.751  -0.140  0.00  0.00    -0.491 OA
ATOM     39  C   UNL     1       0.204  -4.170  -0.278  0.00  0.00    +0.277 C 
ENDBRANCH  35  38
ENDBRANCH  28  33
ENDBRANCH  25  28
ENDBRANCH   1  25
TORSDOF 8
