REMARK  Name = ZINC39775407
REMARK  6 active torsions:
REMARK  status: ('A' for Active; 'I' for Inactive)
REMARK    1  A    between atoms: C_7  and  C_10
REMARK    2  A    between atoms: N_11  and  N_12
REMARK    3  A    between atoms: C_13  and  C_15
REMARK    4  A    between atoms: C_15  and  C_16
REMARK    5  A    between atoms: C_16  and  C_17
REMARK    6  A    between atoms: N_19  and  C_20
REMARK                            x       y       z     vdW  Elec       q    Type
REMARK                         _______ _______ _______ _____ _____    ______ ____
ROOT
ATOM      1  N   UNL     1       0.256  -5.437  -0.040  0.00  0.00    -0.207 N 
ATOM      2  C   UNL     1       0.733  -6.697  -0.053  0.00  0.00    +0.233 C 
ATOM      3  O   UNL     1       1.930  -6.892  -0.074  0.00  0.00    -0.274 OA
ATOM      4  H   UNL     1      -0.701  -5.281  -0.023  0.00  0.00    +0.177 HD
ENDROOT
BRANCH   1   6
ATOM      5  C   UNL     1       0.678  -3.128  -0.038  0.00  0.00    +0.136 C 
ATOM      6  N   UNL     1       1.142  -4.352  -0.050  0.00  0.00    -0.188 NA
BRANCH   5  13
ATOM      7  C   UNL     1      -0.015   1.353  -0.008  0.00  0.00    +0.001 A 
ATOM      8  C   UNL     1       1.165   2.102  -0.025  0.00  0.00    +0.002 A 
ATOM      9  C   UNL     1       2.385   1.514  -0.048  0.00  0.00    +0.026 A 
ATOM     10  C   UNL     1       2.486   0.097  -0.055  0.00  0.00    +0.043 A 
ATOM     11  N   UNL     1       3.532  -0.702  -0.077  0.00  0.00    -0.380 N 
ATOM     12  C   UNL     1       3.077  -2.096  -0.075  0.00  0.00    +0.150 C 
ATOM     13  C   UNL     1       1.565  -2.042  -0.048  0.00  0.00    +0.000 C 
ATOM     14  C   UNL     1       1.239  -0.688  -0.037  0.00  0.00    +0.004 A 
ATOM     15  C   UNL     1       0.003  -0.004  -0.013  0.00  0.00    +0.010 A 
ATOM     16  H   UNL     1       4.458  -0.414  -0.092  0.00  0.00    +0.160 HD
ENDBRANCH   5  13
ENDBRANCH   1   6
BRANCH   2  17
ATOM     17  C   UNL     1      -0.220  -7.864  -0.041  0.00  0.00    +0.107 C 
BRANCH  17  18
ATOM     18  C   UNL     1       0.574  -9.172  -0.060  0.00  0.00    +0.105 C 
BRANCH  18  19
ATOM     19  C   UNL     1      -0.379 -10.339  -0.048  0.00  0.00    +0.218 C 
ATOM     20  O   UNL     1      -1.576 -10.144  -0.027  0.00  0.00    -0.275 OA
ATOM     21  N   UNL     1       0.099 -11.599  -0.062  0.00  0.00    -0.285 N 
ATOM     22  H   UNL     1       1.052 -11.756  -0.146  0.00  0.00    +0.155 HD
BRANCH  21  23
ATOM     23  C   UNL     1      -0.781 -12.682   0.047  0.00  0.00    +0.033 A 
ATOM     24  C   UNL     1      -0.398 -13.824   0.738  0.00  0.00    +0.024 A 
ATOM     25  C   UNL     1      -1.268 -14.891   0.844  0.00  0.00    +0.016 A 
ATOM     26  C   UNL     1      -2.521 -14.823   0.262  0.00  0.00    +0.013 A 
ATOM     27  C   UNL     1      -2.906 -13.687  -0.428  0.00  0.00    +0.016 A 
ATOM     28  C   UNL     1      -2.042 -12.615  -0.532  0.00  0.00    +0.024 A 
ATOM     29  I   UNL     1      -3.838 -16.444   0.423  0.00  0.00    -0.044 I 
ENDBRANCH  21  23
ENDBRANCH  18  19
ENDBRANCH  17  18
ENDBRANCH   2  17
TORSDOF 6
