REMARK  Name = ZINC34788776
REMARK  4 active torsions:
REMARK  status: ('A' for Active; 'I' for Inactive)
REMARK    1  A    between atoms: C_4  and  C_7
REMARK    2  A    between atoms: N_16  and  C_17
REMARK    3  A    between atoms: C_17  and  C_18
REMARK    4  A    between atoms: N_28  and  C_29
REMARK                            x       y       z     vdW  Elec       q    Type
REMARK                         _______ _______ _______ _____ _____    ______ ____
ROOT
ATOM      1  C   UNL     1       3.161  -2.597  -3.199  0.00  0.00    +0.199 C 
ATOM      2  O   UNL     1       3.182  -3.717  -2.736  0.00  0.00    -0.278 OA
ATOM      3  N   UNL     1       2.933  -2.415  -4.515  0.00  0.00    -0.300 N 
ATOM      4  C   UNL     1       2.912  -1.063  -5.091  0.00  0.00    +0.126 C 
ATOM      5  C   UNL     1       3.922  -1.006  -6.244  0.00  0.00    +0.128 C 
ATOM      6  N   UNL     1       3.691  -2.156  -7.128  0.00  0.00    -0.283 N 
ATOM      7  C   UNL     1       3.712  -3.508  -6.553  0.00  0.00    +0.128 C 
ATOM      8  C   UNL     1       2.708  -3.566  -5.401  0.00  0.00    +0.126 C 
ATOM      9  C   UNL     1       3.462  -1.974  -8.444  0.00  0.00    +0.303 C 
ATOM     10  O   UNL     1       3.352  -0.850  -8.893  0.00  0.00    -0.253 OA
ATOM     11  N   UNL     1       3.356  -3.040  -9.263  0.00  0.00    -0.296 N 
ATOM     12  H   UNL     1       3.372  -3.937  -8.896  0.00  0.00    +0.151 HD
ENDROOT
BRANCH  11  13
ATOM     13  C   UNL     1       3.218  -2.842 -10.708  0.00  0.00    +0.074 C 
ATOM     14  C   UNL     1       1.744  -2.615 -11.053  0.00  0.00    +0.022 C 
ATOM     15  C   UNL     1       1.600  -2.409 -12.562  0.00  0.00    +0.002 C 
ATOM     16  C   UNL     1       2.111  -3.649 -13.298  0.00  0.00    +0.000 C 
ATOM     17  C   UNL     1       3.584  -3.876 -12.953  0.00  0.00    +0.002 C 
ATOM     18  C   UNL     1       3.729  -4.082 -11.444  0.00  0.00    +0.022 C 
ENDBRANCH  11  13
BRANCH   1  19
ATOM     19  C   UNL     1       3.391  -1.407  -2.303  0.00  0.00    +0.020 C 
BRANCH  19  28
ATOM     20  C   UNL     1       3.719  -0.703  -0.038  0.00  0.00    -0.005 C 
ATOM     21  C   UNL     1       4.053  -1.184   1.370  0.00  0.00    -0.047 A 
ATOM     22  C   UNL     1       3.849  -0.427   2.521  0.00  0.00    +0.010 A 
ATOM     23  C   UNL     1       4.173  -0.937   3.732  0.00  0.00    +0.045 A 
ATOM     24  S   UNL     1       4.800  -2.553   3.297  0.00  0.00    -0.101 S 
ATOM     25  C   UNL     1       4.585  -2.426   1.545  0.00  0.00    -0.010 A 
ATOM     26  C   UNL     1       4.899  -3.416   0.471  0.00  0.00    +0.024 C 
ATOM     27  C   UNL     1       4.843  -2.673  -0.875  0.00  0.00    -0.072 C 
ATOM     28  N   UNL     1       3.615  -1.867  -0.926  0.00  0.00    +0.393 N 
ATOM     29  H   UNL     1       2.834  -2.437  -0.636  0.00  0.00    -0.080 HD
BRANCH  20  33
ATOM     30  C   UNL     1      -0.001   1.397   0.008  0.00  0.00    +0.000 A 
ATOM     31  C   UNL     1       1.189   2.100   0.000  0.00  0.00    +0.000 A 
ATOM     32  C   UNL     1       2.393   1.421  -0.015  0.00  0.00    +0.002 A 
ATOM     33  C   UNL     1       2.406   0.038  -0.021  0.00  0.00    -0.057 A 
ATOM     34  C   UNL     1       1.216  -0.664  -0.012  0.00  0.00    +0.002 A 
ATOM     35  C   UNL     1       0.012   0.015   0.002  0.00  0.00    +0.000 A 
ENDBRANCH  20  33
ENDBRANCH  19  28
ENDBRANCH   1  19
TORSDOF 4
