REMARK  Name = ZINC01426852
REMARK  7 active torsions:
REMARK  status: ('A' for Active; 'I' for Inactive)
REMARK    1  A    between atoms: C_1  and  C_2
REMARK    2  A    between atoms: C_3  and  C_23
REMARK    3  A    between atoms: C_7  and  C_15
REMARK    4  A    between atoms: C_9  and  C_13
REMARK    5  A    between atoms: C_10  and  N_12
REMARK    6  A    between atoms: C_23  and  O_25
REMARK    7  A    between atoms: O_25  and  C_26
REMARK                            x       y       z     vdW  Elec       q    Type
REMARK                         _______ _______ _______ _____ _____    ______ ____
ROOT
ATOM      1  C   UNL     1      -0.651  -3.820   5.013  0.00  0.00    +0.052 C 
ATOM      2  C   UNL     1      -0.390  -3.486   3.567  0.00  0.00    +0.005 A 
ATOM      3  C   UNL     1      -1.199  -3.725   2.473  0.00  0.00    +0.111 A 
ATOM      4  C   UNL     1      -0.714  -3.302   1.174  0.00  0.00    +0.155 A 
ATOM      5  C   UNL     1       0.508  -2.708   1.180  0.00  0.00    +0.046 A 
ATOM      6  S   UNL     1       0.999  -2.712   2.877  0.00  0.00    -0.093 S 
ATOM      7  C   UNL     1       1.228  -2.186  -0.021  0.00  0.00    +0.106 C 
ATOM      8  C   UNL     1       0.511  -2.701  -1.249  0.00  0.00    +0.099 C 
ATOM      9  C   UNL     1      -0.707  -3.282  -1.160  0.00  0.00    +0.199 C 
ATOM     10  O   UNL     1      -1.387  -3.458  -0.015  0.00  0.00    -0.440 OA
ENDROOT
BRANCH   7  11
ATOM     11  C   UNL     1       1.208  -0.679  -0.013  0.00  0.00    -0.016 A 
ATOM     12  C   UNL     1       0.002  -0.004   0.002  0.00  0.00    +0.007 A 
ATOM     13  C   UNL     1      -0.017   1.378   0.010  0.00  0.00    +0.020 A 
ATOM     14  C   UNL     1       1.172   2.086   0.002  0.00  0.00    +0.042 A 
ATOM     15  C   UNL     1       2.379   1.411  -0.013  0.00  0.00    +0.040 A 
ATOM     16  C   UNL     1       2.397   0.028  -0.021  0.00  0.00    +0.046 A 
ATOM     17 CL   UNL     1       3.912  -0.821  -0.041  0.00  0.00    -0.083 Cl
ATOM     18 CL   UNL     1       1.148   3.822   0.011  0.00  0.00    -0.083 Cl
ENDBRANCH   7  11
BRANCH   9  19
ATOM     19  N   UNL     1      -1.289  -3.725  -2.322  0.00  0.00    -0.328 N 
ATOM     20  H   UNL     1      -0.827  -3.615  -3.168  0.00  0.00    +0.145 HD
ATOM     21  H   UNL     1      -2.162  -4.147  -2.297  0.00  0.00    +0.145 HD
ENDBRANCH   9  19
BRANCH   8  22
ATOM     22  C   UNL     1       1.134  -2.570  -2.532  0.00  0.00    +0.101 C 
ATOM     23  N   UNL     1       1.629  -2.466  -3.550  0.00  0.00    -0.191 NA
ENDBRANCH   8  22
BRANCH   3  24
ATOM     24  C   UNL     1      -2.505  -4.381   2.622  0.00  0.00    +0.343 C 
ATOM     25  O   UNL     1      -2.590  -5.591   2.547  0.00  0.00    -0.245 OA
BRANCH  24  26
ATOM     26  O   UNL     1      -3.610  -3.640   2.840  0.00  0.00    -0.464 OA
ATOM     27  C   UNL     1      -4.867  -4.355   2.976  0.00  0.00    +0.280 C 
ENDBRANCH  24  26
ENDBRANCH   3  24
TORSDOF 5
