REMARK  Name = ZINC26508494
REMARK  4 active torsions:
REMARK  status: ('A' for Active; 'I' for Inactive)
REMARK    1  A    between atoms: C_4  and  C_7
REMARK    2  A    between atoms: N_11  and  C_25
REMARK    3  A    between atoms: N_14  and  N_15
REMARK    4  A    between atoms: C_16  and  C_18
REMARK                            x       y       z     vdW  Elec       q    Type
REMARK                         _______ _______ _______ _____ _____    ______ ____
ROOT
ATOM      1  C   UNL     1       3.719  -0.666   0.199  0.00  0.00    +0.041 C 
ATOM      2  C   UNL     1       4.869   0.027  -0.043  0.00  0.00    +0.130 C 
ATOM      3  C   UNL     1       5.067   1.486   0.065  0.00  0.00    +0.276 C 
ATOM      4  O   UNL     1       4.243   2.320   0.388  0.00  0.00    -0.268 OA
ATOM      5  N   UNL     1       6.359   1.698  -0.271  0.00  0.00    -0.206 N 
ATOM      6  C   UNL     1       6.934   0.487  -0.566  0.00  0.00    +0.211 C 
ATOM      7  N   UNL     1       6.074  -0.487  -0.430  0.00  0.00    -0.212 NA
ATOM      8  N   UNL     1       8.245   0.321  -0.950  0.00  0.00    -0.235 N 
ATOM      9  H   UNL     1       8.880   1.200  -1.131  0.00  0.00    +0.173 HD
ENDROOT
BRANCH   1  13
ATOM     10  C   UNL     1       0.092   1.417   0.885  0.00  0.00    +0.000 A 
ATOM     11  C   UNL     1       0.354   0.247   1.576  0.00  0.00    +0.001 A 
ATOM     12  C   UNL     1       1.531  -0.437   1.359  0.00  0.00    +0.008 A 
ATOM     13  C   UNL     1       2.463   0.055   0.437  0.00  0.00    -0.023 A 
ATOM     14  C   UNL     1       2.189   1.240  -0.258  0.00  0.00    +0.008 A 
ATOM     15  C   UNL     1       1.007   1.911  -0.029  0.00  0.00    +0.001 A 
ENDBRANCH   1  13
BRANCH   5  16
ATOM     16  C   UNL     1       7.002   2.943  -0.309  0.00  0.00    +0.044 A 
ATOM     17  C   UNL     1       8.021   3.228   0.591  0.00  0.00    +0.024 A 
ATOM     18  C   UNL     1       8.657   4.453   0.546  0.00  0.00    +0.002 A 
ATOM     19  C   UNL     1       8.272   5.400  -0.385  0.00  0.00    +0.000 A 
ATOM     20  C   UNL     1       7.254   5.122  -1.279  0.00  0.00    +0.002 A 
ATOM     21  C   UNL     1       6.619   3.896  -1.243  0.00  0.00    +0.024 A 
ENDBRANCH   5  16
BRANCH   8  22
ATOM     22  N   UNL     1       8.770  -0.968  -1.109  0.00  0.00    -0.230 N 
ATOM     23  C   UNL     1      10.054  -1.131  -1.484  0.00  0.00    +0.260 C 
ATOM     24  O   UNL     1      10.757  -0.160  -1.685  0.00  0.00    -0.269 OA
ATOM     25  H   UNL     1       8.134  -1.847  -0.927  0.00  0.00    +0.173 HD
BRANCH  23  26
ATOM     26  C   UNL     1      10.608  -2.491  -1.652  0.00  0.00    +0.038 A 
ATOM     27  C   UNL     1       9.806  -3.609  -1.416  0.00  0.00    +0.014 A 
ATOM     28  C   UNL     1      10.326  -4.875  -1.580  0.00  0.00    +0.016 A 
ATOM     29  C   UNL     1      11.646  -5.039  -1.966  0.00  0.00    +0.018 A 
ATOM     30  C   UNL     1      12.449  -3.935  -2.195  0.00  0.00    +0.016 A 
ATOM     31  C   UNL     1      11.938  -2.663  -2.041  0.00  0.00    +0.014 A 
ATOM     32 BR   UNL     1      12.355  -6.779  -2.180  0.00  0.00    -0.050 Br
ENDBRANCH  23  26
ENDBRANCH   8  22
TORSDOF 4
