REMARK  Name = ZINC06149520
REMARK  10 active torsions:
REMARK  status: ('A' for Active; 'I' for Inactive)
REMARK    1  A    between atoms: C_1  and  C_2
REMARK    2  A    between atoms: C_2  and  C_3
REMARK    3  A    between atoms: C_3  and  C_4
REMARK    4  A    between atoms: C_3  and  C_5
REMARK    5  A    between atoms: C_3  and  N_6
REMARK    6  A    between atoms: C_7  and  C_11
REMARK    7  A    between atoms: C_11  and  C_13
REMARK    8  A    between atoms: C_11  and  N_72
REMARK    9  A    between atoms: C_30  and  C_33
REMARK   10  A    between atoms: C_33  and  C_34
REMARK                            x       y       z     vdW  Elec       q    Type
REMARK                         _______ _______ _______ _____ _____    ______ ____
ROOT
ATOM      1  C   UNL     1       3.017  -0.605  -2.370  0.00  0.00    +0.039 C 
ENDROOT
BRANCH   1   2
ATOM      2  C   UNL     1       2.413  -0.162  -3.678  0.00  0.00    +0.011 A 
ATOM      3  C   UNL     1       2.887   0.948  -4.299  0.00  0.00    +0.017 A 
ATOM      4  C   UNL     1       2.283   1.350  -5.569  0.00  0.00    +0.002 A 
ATOM      5  C   UNL     1       2.735   2.483  -6.257  0.00  0.00    +0.059 A 
ATOM      6  C   UNL     1       2.142   2.841  -7.447  0.00  0.00    +0.167 A 
ATOM      7  C   UNL     1       1.091   2.076  -7.970  0.00  0.00    +0.168 A 
ATOM      8  C   UNL     1       0.640   0.955  -7.298  0.00  0.00    +0.075 A 
ATOM      9  C   UNL     1       1.228   0.581  -6.096  0.00  0.00    +0.053 A 
ATOM     10  N   UNL     1       0.790  -0.535  -5.412  0.00  0.00    -0.322 N 
ATOM     11  H   UNL     1       0.041  -1.081  -5.787  0.00  0.00    +0.169 HD
ATOM     12  C   UNL     1       1.355  -0.898  -4.248  0.00  0.00    +0.251 A 
ATOM     13  O   UNL     1       0.942  -1.890  -3.671  0.00  0.00    -0.268 OA
ATOM     14  O   UNL     1       0.688   2.642  -9.144  0.00  0.00    -0.453 OA
ATOM     15  C   UNL     1       1.216   3.981  -9.130  0.00  0.00    +0.466 C 
ATOM     16  O   UNL     1       2.388   3.880  -8.299  0.00  0.00    -0.453 OA
ENDBRANCH   1   2
BRANCH   1  22
ATOM     17  C   UNL     1       0.945  -0.766  -1.127  0.00  0.00    -0.077 C 
ATOM     18  C   UNL     1       0.215  -0.275   0.125  0.00  0.00    -0.015 C 
ATOM     19  C   UNL     1      -0.020   1.234   0.014  0.00  0.00    -0.010 C 
ATOM     20  C   UNL     1       1.326   1.940  -0.169  0.00  0.00    -0.015 C 
ATOM     21  C   UNL     1       2.024   1.385  -1.413  0.00  0.00    -0.077 C 
ATOM     22  N   UNL     1       2.243  -0.066  -1.232  0.00  0.00    +0.389 N 
ATOM     23  H   UNL     1       2.774  -0.218  -0.366  0.00  0.00    -0.080 HD
BRANCH  19  24
ATOM     24  C   UNL     1      -0.695   1.742   1.289  0.00  0.00    +0.038 C 
BRANCH  24  25
ATOM     25  C   UNL     1      -1.037   3.201   1.130  0.00  0.00    -0.047 A 
ATOM     26  C   UNL     1      -0.126   4.169   1.509  0.00  0.00    +0.003 A 
ATOM     27  C   UNL     1      -0.438   5.508   1.359  0.00  0.00    +0.000 A 
ATOM     28  C   UNL     1      -1.664   5.878   0.839  0.00  0.00    +0.000 A 
ATOM     29  C   UNL     1      -2.577   4.909   0.464  0.00  0.00    +0.000 A 
ATOM     30  C   UNL     1      -2.263   3.571   0.610  0.00  0.00    +0.003 A 
ENDBRANCH  24  25
ENDBRANCH  19  24
ENDBRANCH   1  22
BRANCH   1  32
ATOM     31  N   UNL     1       5.556  -0.817  -2.469  0.00  0.00    -0.225 N 
ATOM     32  C   UNL     1       4.433  -0.101  -2.273  0.00  0.00    +0.143 A 
ATOM     33  N   UNL     1       4.811   1.119  -1.978  0.00  0.00    -0.115 NA
ATOM     34  N   UNL     1       6.099   1.152  -1.996  0.00  0.00    -0.023 NA
ATOM     35  N   UNL     1       6.553  -0.015  -2.296  0.00  0.00    -0.043 NA
BRANCH  31  36
ATOM     36  C   UNL     1       5.633  -2.238  -2.817  0.00  0.00    +0.061 C 
ATOM     37  C   UNL     1       5.080  -3.076  -1.662  0.00  0.00    +0.036 C 
ATOM     38  C   UNL     1       4.807  -2.499  -4.078  0.00  0.00    +0.036 C 
BRANCH  36  40
ATOM     39  C   UNL     1       7.171  -4.106  -3.436  0.00  0.00    +0.006 C 
ATOM     40  C   UNL     1       7.091  -2.622  -3.073  0.00  0.00    +0.026 C 
ENDBRANCH  36  40
ENDBRANCH  31  36
ENDBRANCH   1  32
TORSDOF 7
