REMARK  Name = ZINC45286891
REMARK  6 active torsions:
REMARK  status: ('A' for Active; 'I' for Inactive)
REMARK    1  A    between atoms: C_1  and  C_2
REMARK    2  A    between atoms: C_2  and  C_3
REMARK    3  A    between atoms: C_3  and  C_4
REMARK    4  A    between atoms: C_6  and  N_17
REMARK    5  A    between atoms: C_10  and  N_16
REMARK    6  A    between atoms: C_11  and  C_13
REMARK                            x       y       z     vdW  Elec       q    Type
REMARK                         _______ _______ _______ _____ _____    ______ ____
ROOT
ATOM      1  C   UNL     1       0.670  -2.007  -1.092  0.00  0.00    -0.033 A 
ATOM      2  C   UNL     1       1.757  -2.684  -0.629  0.00  0.00    +0.046 A 
ATOM      3  C   UNL     1       1.785  -4.080  -0.652  0.00  0.00    +0.100 A 
ATOM      4  N   UNL     1       0.751  -4.760  -1.126  0.00  0.00    -0.337 N 
ATOM      5  C   UNL     1      -0.319  -4.145  -1.583  0.00  0.00    +0.089 A 
ATOM      6  C   UNL     1      -0.439  -2.737  -1.593  0.00  0.00    +0.030 A 
ATOM      7  C   UNL     1      -1.692  -2.228  -2.126  0.00  0.00    +0.054 A 
ATOM      8  C   UNL     1      -2.635  -3.134  -2.560  0.00  0.00    +0.097 A 
ATOM      9  S   UNL     1      -1.854  -4.710  -2.275  0.00  0.00    -0.064 S 
ATOM     10  H   UNL     1       0.783  -5.730  -1.136  0.00  0.00    +0.168 HD
ENDROOT
BRANCH   3  11
ATOM     11  N   UNL     1       2.899  -4.757  -0.178  0.00  0.00    -0.308 N 
ATOM     12  C   UNL     1       2.951  -6.211  -0.198  0.00  0.00    +0.108 C 
ATOM     13  C   UNL     1       3.788  -6.682   1.008  0.00  0.00    +0.038 C 
ATOM     14  C   UNL     1       3.126  -6.187   2.296  0.00  0.00    +0.106 C 
ATOM     15  N   UNL     1       3.553  -4.839   2.641  0.00  0.00    -0.314 N 
ATOM     16  C   UNL     1       3.872  -3.833   1.834  0.00  0.00    +0.230 C 
ATOM     17  O   UNL     1       4.023  -2.727   2.306  0.00  0.00    -0.274 OA
ATOM     18  C   UNL     1       4.055  -4.025   0.350  0.00  0.00    +0.202 C 
ATOM     19  H   UNL     1       3.612  -4.649   3.590  0.00  0.00    +0.149 HD
ENDBRANCH   3  11
BRANCH   8  20
ATOM     20  C   UNL     1      -3.914  -2.876  -3.110  0.00  0.00    +0.250 C 
ATOM     21  O   UNL     1      -4.296  -1.727  -3.248  0.00  0.00    -0.270 OA
ATOM     22  N   UNL     1      -4.707  -3.900  -3.481  0.00  0.00    -0.325 N 
ATOM     23  H   UNL     1      -4.403  -4.814  -3.372  0.00  0.00    +0.145 HD
ATOM     24  H   UNL     1      -5.583  -3.722  -3.858  0.00  0.00    +0.145 HD
ENDBRANCH   8  20
BRANCH   7  25
ATOM     25  N   UNL     1      -1.933  -0.863  -2.197  0.00  0.00    -0.356 N 
ATOM     26  H   UNL     1      -1.216  -0.234  -2.014  0.00  0.00    +0.142 HD
ATOM     27  H   UNL     1      -2.816  -0.537  -2.428  0.00  0.00    +0.142 HD
ENDBRANCH   7  25
BRANCH   1  28
ATOM     28  C   UNL     1       0.643  -0.501  -1.066  0.00  0.00    +0.036 C 
BRANCH  28  30
ATOM     29  C   UNL     1       1.889   1.550  -0.371  0.00  0.00    +0.004 C 
ATOM     30  C   UNL     1       1.916   0.021  -0.397  0.00  0.00    +0.001 C 
ENDBRANCH  28  30
ENDBRANCH   1  28
TORSDOF 5
