REMARK  Name = ZINC05188649
REMARK  3 active torsions:
REMARK  status: ('A' for Active; 'I' for Inactive)
REMARK    1  A    between atoms: C_1  and  C_2
REMARK    2  A    between atoms: C_5  and  C_7
REMARK    3  A    between atoms: N_17  and  C_18
REMARK                            x       y       z     vdW  Elec       q    Type
REMARK                         _______ _______ _______ _____ _____    ______ ____
ROOT
ATOM      1  C   UNL     1       4.717   4.330  -0.224  0.00  0.00    +0.100 A 
ATOM      2  C   UNL     1       4.608   5.558  -0.871  0.00  0.00    +0.030 A 
ATOM      3  C   UNL     1       3.286   5.941  -1.371  0.00  0.00    +0.020 A 
ATOM      4  C   UNL     1       3.138   7.017  -2.254  0.00  0.00    +0.031 A 
ATOM      5  C   UNL     1       1.883   7.352  -2.714  0.00  0.00    +0.042 A 
ATOM      6  C   UNL     1       0.770   6.630  -2.306  0.00  0.00    +0.023 A 
ATOM      7  C   UNL     1       0.901   5.568  -1.434  0.00  0.00    +0.048 A 
ATOM      8  C   UNL     1       2.154   5.213  -0.957  0.00  0.00    +0.138 A 
ATOM      9  O   UNL     1       2.296   4.175  -0.098  0.00  0.00    -0.437 OA
ATOM     10  C   UNL     1       3.487   3.523  -0.111  0.00  0.00    +0.233 A 
ATOM     11  N   UNL     1       3.542   2.210  -0.019  0.00  0.00    -0.212 NA
ATOM     12 CL   UNL     1       1.693   8.686  -3.809  0.00  0.00    -0.084 Cl
ENDROOT
BRANCH  11  13
ATOM     13  C   UNL     1       2.394   1.478  -0.026  0.00  0.00    +0.075 A 
ATOM     14  C   UNL     1       1.772   1.120   1.165  0.00  0.00    +0.028 A 
ATOM     15  C   UNL     1       0.603   0.373   1.155  0.00  0.00    +0.003 A 
ATOM     16  C   UNL     1       0.021  -0.035  -0.007  0.00  0.00    +0.008 A 
ATOM     17  C   UNL     1       0.594   0.290  -1.248  0.00  0.00    -0.016 A 
ATOM     18  C   UNL     1       1.788   1.051  -1.286  0.00  0.00    +0.008 A 
ATOM     19  C   UNL     1       2.361   1.377  -2.521  0.00  0.00    +0.010 A 
ATOM     20  C   UNL     1       1.763   0.959  -3.673  0.00  0.00    +0.001 A 
ATOM     21  C   UNL     1       0.589   0.211  -3.639  0.00  0.00    +0.001 A 
ATOM     22  C   UNL     1       0.005  -0.124  -2.455  0.00  0.00    +0.008 A 
ENDBRANCH  11  13
BRANCH   1  27
ATOM     23  C   UNL     1       9.517   5.033   0.562  0.00  0.00    +0.109 C 
ATOM     24  C   UNL     1       8.281   4.182   0.696  0.00  0.00    +0.216 C 
ATOM     25  O   UNL     1       8.343   3.106   1.251  0.00  0.00    -0.276 OA
ATOM     26  N   UNL     1       7.106   4.617   0.199  0.00  0.00    -0.252 N 
ATOM     27  C   UNL     1       6.000   3.855   0.319  0.00  0.00    +0.255 C 
ATOM     28  O   UNL     1       6.063   2.776   0.875  0.00  0.00    -0.270 OA
ATOM     29  H   UNL     1       7.056   5.478  -0.245  0.00  0.00    +0.158 HD
ENDBRANCH   1  27
TORSDOF 2
