REMARK  Name = ZINC36580009
REMARK  11 active torsions:
REMARK  status: ('A' for Active; 'I' for Inactive)
REMARK    1  A    between atoms: C_1  and  C_2
REMARK    2  A    between atoms: C_2  and  C_3
REMARK    3  A    between atoms: C_3  and  C_5
REMARK    4  A    between atoms: C_3  and  C_6
REMARK    5  A    between atoms: C_6  and  C_8
REMARK    6  A    between atoms: C_6  and  N_12
REMARK    7  A    between atoms: C_8  and  O_10
REMARK    8  A    between atoms: O_10  and  C_11
REMARK    9  A    between atoms: C_24  and  C_26
REMARK   10  A    between atoms: C_31  and  O_32
REMARK   11  A    between atoms: O_32  and  C_33
REMARK                            x       y       z     vdW  Elec       q    Type
REMARK                         _______ _______ _______ _____ _____    ______ ____
ROOT
ATOM      1  N   UNL     1       0.551  -3.895  -1.852  0.00  0.00    -0.286 N 
ATOM      2  C   UNL     1       1.379  -2.920  -2.276  0.00  0.00    +0.304 C 
ATOM      3  O   UNL     1       1.476  -1.887  -1.641  0.00  0.00    -0.253 OA
ATOM      4  N   UNL     1       2.099  -3.089  -3.402  0.00  0.00    -0.273 N 
ATOM      5  C   UNL     1       3.092  -2.087  -3.819  0.00  0.00    +0.116 C 
ATOM      6  C   UNL     1       4.489  -2.721  -3.785  0.00  0.00    +0.074 C 
ATOM      7  C   UNL     1       4.419  -4.083  -4.426  0.00  0.00    +0.040 A 
ATOM      8  C   UNL     1       3.283  -4.783  -4.630  0.00  0.00    +0.062 A 
ATOM      9  N   UNL     1       3.606  -5.939  -5.213  0.00  0.00    -0.348 N 
ATOM     10  C   UNL     1       4.902  -5.985  -5.383  0.00  0.00    +0.171 A 
ATOM     11  N   UNL     1       5.444  -4.842  -4.904  0.00  0.00    -0.349 N 
ATOM     12  H   UNL     1       6.386  -4.607  -4.901  0.00  0.00    +0.166 HD
ATOM     13  C   UNL     1       1.914  -4.285  -4.244  0.00  0.00    +0.160 C 
ATOM     14  H   UNL     1       0.416  -4.687  -2.396  0.00  0.00    +0.151 HD
ATOM     15  H   UNL     1       2.980  -6.634  -5.469  0.00  0.00    +0.167 HD
ENDROOT
BRANCH  13  16
ATOM     16  C   UNL     1       1.136  -3.926  -5.482  0.00  0.00    +0.021 A 
ATOM     17  C   UNL     1       1.634  -2.985  -6.364  0.00  0.00    +0.009 A 
ATOM     18  C   UNL     1       0.920  -2.655  -7.500  0.00  0.00    +0.001 A 
ATOM     19  C   UNL     1      -0.294  -3.264  -7.758  0.00  0.00    +0.004 A 
ATOM     20  C   UNL     1      -0.797  -4.205  -6.881  0.00  0.00    +0.046 A 
ATOM     21  C   UNL     1      -0.079  -4.542  -5.742  0.00  0.00    +0.135 A 
BRANCH  21  22
ATOM     22  O   UNL     1      -0.569  -5.472  -4.880  0.00  0.00    -0.405 OA
BRANCH  22  23
ATOM     23  C   UNL     1      -1.826  -6.066  -5.211  0.00  0.00    +0.575 C 
ATOM     24  F   UNL     1      -1.724  -6.715  -6.446  0.00  0.00    -0.133 F 
ATOM     25  F   UNL     1      -2.178  -6.993  -4.224  0.00  0.00    -0.133 F 
ATOM     26  F   UNL     1      -2.806  -5.071  -5.287  0.00  0.00    -0.133 F 
ENDBRANCH  22  23
ENDBRANCH  21  22
ENDBRANCH  13  16
BRANCH   1  27
ATOM     27  C   UNL     1      -0.145  -3.760  -0.570  0.00  0.00    +0.186 C 
BRANCH  27  28
ATOM     28  C   UNL     1      -0.490  -5.148  -0.028  0.00  0.00    +0.017 C 
ATOM     29  C   UNL     1      -1.374  -5.885  -1.037  0.00  0.00    +0.010 C 
BRANCH  28  31
ATOM     30  C   UNL     1       0.464  -7.276   0.868  0.00  0.00    +0.004 C 
ATOM     31  C   UNL     1       0.798  -5.942   0.197  0.00  0.00    +0.002 C 
ENDBRANCH  28  31
ENDBRANCH  27  28
BRANCH  27  32
ATOM     32  C   UNL     1      -1.413  -2.969  -0.768  0.00  0.00    +0.328 C 
ATOM     33  O   UNL     1      -1.875  -2.835  -1.877  0.00  0.00    -0.249 OA
BRANCH  32  34
ATOM     34  O   UNL     1      -2.029  -2.413   0.287  0.00  0.00    -0.467 OA
ATOM     35  C   UNL     1      -3.225  -1.677   0.026  0.00  0.00    +0.280 C 
ENDBRANCH  32  34
ENDBRANCH  27  32
ENDBRANCH   1  27
TORSDOF 8
