REMARK  Name = ZINC65852462
REMARK  10 active torsions:
REMARK  status: ('A' for Active; 'I' for Inactive)
REMARK    1  A    between atoms: C_1  and  C_2
REMARK    2  A    between atoms: C_2  and  N_3
REMARK    3  A    between atoms: N_3  and  C_4
REMARK    4  A    between atoms: N_3  and  C_6
REMARK    5  A    between atoms: C_4  and  C_5
REMARK    6  A    between atoms: C_11  and  C_12
REMARK    7  A    between atoms: C_12  and  O_13
REMARK    8  A    between atoms: O_13  and  C_14
REMARK    9  A    between atoms: C_14  and  C_16
REMARK   10  A    between atoms: C_16  and  C_17
REMARK                            x       y       z     vdW  Elec       q    Type
REMARK                         _______ _______ _______ _____ _____    ______ ____
ROOT
ATOM      1  C   UNL     1       0.413  -5.164   1.169  0.00  0.00    +0.313 C 
ATOM      2  O   UNL     1       0.918  -5.008   0.083  0.00  0.00    -0.250 OA
ENDROOT
BRANCH   1   3
ATOM      3  O   UNL     1      -0.296  -4.171   1.729  0.00  0.00    -0.460 OA
BRANCH   3   4
ATOM      4  C   UNL     1      -0.413  -2.958   0.983  0.00  0.00    +0.269 C 
BRANCH   4  10
ATOM      5  C   UNL     1      -1.591  -0.752   1.190  0.00  0.00    +0.036 A 
ATOM      6  C   UNL     1      -2.356   0.157   1.911  0.00  0.00    +0.023 A 
ATOM      7  C   UNL     1      -2.756  -0.147   3.196  0.00  0.00    +0.002 A 
ATOM      8  C   UNL     1      -2.397  -1.355   3.767  0.00  0.00    +0.000 A 
ATOM      9  C   UNL     1      -1.636  -2.262   3.053  0.00  0.00    +0.009 A 
ATOM     10  C   UNL     1      -1.237  -1.966   1.764  0.00  0.00    +0.011 A 
BRANCH   5  11
ATOM     11  N   UNL     1      -1.184  -0.448  -0.111  0.00  0.00    -0.330 N 
BRANCH  11  13
ATOM     12  C   UNL     1       0.103   1.608  -0.424  0.00  0.00    +0.024 C 
ATOM     13  C   UNL     1       0.160   0.081  -0.354  0.00  0.00    +0.102 C 
ENDBRANCH  11  13
BRANCH  11  14
ATOM     14  C   UNL     1      -2.102  -0.658  -1.234  0.00  0.00    +0.102 C 
ATOM     15  C   UNL     1      -2.016  -2.113  -1.698  0.00  0.00    +0.024 C 
ENDBRANCH  11  14
ENDBRANCH   5  11
ENDBRANCH   4  10
ENDBRANCH   3   4
ENDBRANCH   1   3
BRANCH   1  16
ATOM     16  C   UNL     1       0.580  -6.473   1.897  0.00  0.00    +0.176 C 
BRANCH  16  17
ATOM     17  C   UNL     1       1.411  -7.411   1.059  0.00  0.00    +0.061 A 
ATOM     18  C   UNL     1       2.534  -7.991   1.550  0.00  0.00    +0.072 A 
ATOM     19  S   UNL     1       3.055  -8.953   0.139  0.00  0.00    -0.060 S 
ATOM     20  C   UNL     1       1.810  -8.523  -0.909  0.00  0.00    +0.168 A 
ATOM     21  N   UNL     1       1.076  -7.708  -0.183  0.00  0.00    -0.229 NA
ATOM     22  N   UNL     1       1.605  -8.933  -2.221  0.00  0.00    -0.233 N 
ATOM     23  C   UNL     1       2.466  -9.861  -2.969  0.00  0.00    +0.136 C 
ATOM     24  C   UNL     1       1.788  -9.964  -4.349  0.00  0.00    +0.125 C 
ATOM     25  N   UNL     1       0.616  -9.083  -4.232  0.00  0.00    -0.297 N 
ATOM     26  C   UNL     1       0.587  -8.550  -3.004  0.00  0.00    +0.308 C 
ATOM     27  O   UNL     1      -0.282  -7.784  -2.634  0.00  0.00    -0.252 OA
ATOM     28  H   UNL     1      -0.035  -8.918  -4.932  0.00  0.00    +0.150 HD
ENDBRANCH  16  17
ENDBRANCH   1  16
TORSDOF 8
