REMARK  Name = ZINC13096843
REMARK  6 active torsions:
REMARK  status: ('A' for Active; 'I' for Inactive)
REMARK    1  A    between atoms: C_6  and  N_7
REMARK    2  A    between atoms: C_8  and  C_10
REMARK    3  A    between atoms: C_10  and  N_11
REMARK    4  A    between atoms: C_12  and  C_14
REMARK    5  A    between atoms: C_14  and  N_58
REMARK    6  A    between atoms: C_17  and  C_20
REMARK                            x       y       z     vdW  Elec       q    Type
REMARK                         _______ _______ _______ _____ _____    ______ ____
ROOT
ATOM      1  N   UNL     1      -7.288   2.800   1.947  0.00  0.00    -0.308 N 
ATOM      2  C   UNL     1      -6.059   2.342   1.639  0.00  0.00    +0.197 C 
ATOM      3  O   UNL     1      -5.804   1.162   1.757  0.00  0.00    -0.278 OA
ATOM      4  H   UNL     1      -7.492   3.744   1.853  0.00  0.00    +0.149 HD
ENDROOT
BRANCH   1   5
ATOM      5  C   UNL     1      -8.317   1.873   2.425  0.00  0.00    +0.200 C 
BRANCH   5   7
ATOM      6  N   UNL     1     -10.680   1.980   3.147  0.00  0.00    -0.282 N 
ATOM      7  C   UNL     1      -9.590   2.632   2.696  0.00  0.00    +0.234 C 
ATOM      8  O   UNL     1      -9.634   3.829   2.510  0.00  0.00    -0.274 OA
ATOM      9  H   UNL     1     -10.623   1.038   3.373  0.00  0.00    +0.155 HD
BRANCH   6  15
ATOM     10  C   UNL     1     -12.200   3.724   2.448  0.00  0.00    +0.029 A 
ATOM     11  C   UNL     1     -13.401   4.392   2.585  0.00  0.00    +0.043 A 
ATOM     12  C   UNL     1     -14.299   4.013   3.567  0.00  0.00    +0.161 A 
ATOM     13  C   UNL     1     -13.998   2.956   4.414  0.00  0.00    +0.195 A 
ATOM     14  C   UNL     1     -12.797   2.280   4.276  0.00  0.00    +0.182 A 
ATOM     15  C   UNL     1     -11.896   2.662   3.289  0.00  0.00    +0.072 A 
ATOM     16  F   UNL     1     -12.503   1.250   5.100  0.00  0.00    -0.200 F 
ATOM     17  F   UNL     1     -14.875   2.587   5.373  0.00  0.00    -0.199 F 
ATOM     18  F   UNL     1     -15.470   4.673   3.703  0.00  0.00    -0.202 F 
ENDBRANCH   6  15
ENDBRANCH   5   7
ENDBRANCH   1   5
BRANCH   2  19
ATOM     19  C   UNL     1      -5.000   3.296   1.148  0.00  0.00    +0.019 C 
BRANCH  19  25
ATOM     20  C   UNL     1      -3.890   1.596  -0.169  0.00  0.00    -0.077 C 
ATOM     21  C   UNL     1      -2.617   0.753  -0.277  0.00  0.00    -0.006 C 
ATOM     22  C   UNL     1      -1.421   1.674  -0.538  0.00  0.00    +0.072 C 
ATOM     23  C   UNL     1      -1.324   2.703   0.592  0.00  0.00    -0.006 C 
ATOM     24  C   UNL     1      -2.634   3.489   0.674  0.00  0.00    -0.077 C 
ATOM     25  N   UNL     1      -3.741   2.549   0.951  0.00  0.00    +0.385 N 
ATOM     26  H   UNL     1      -3.527   2.025   1.808  0.00  0.00    -0.081 HD
BRANCH  22  27
ATOM     27  C   UNL     1      -0.157   0.857  -0.585  0.00  0.00    +0.219 C 
ATOM     28  O   UNL     1      -0.185  -0.321  -0.298  0.00  0.00    -0.275 OA
ATOM     29  N   UNL     1       1.005   1.433  -0.952  0.00  0.00    -0.301 N 
ATOM     30  C   UNL     1       2.260   0.670  -0.927  0.00  0.00    +0.108 C 
ATOM     31  C   UNL     1       2.923   0.774  -2.309  0.00  0.00    +0.019 C 
ATOM     32  C   UNL     1       3.093   2.250  -2.677  0.00  0.00    +0.003 C 
ATOM     33  C   UNL     1       1.719   2.920  -2.751  0.00  0.00    +0.019 C 
ATOM     34  C   UNL     1       1.041   2.839  -1.379  0.00  0.00    +0.108 C 
ENDBRANCH  22  27
ENDBRANCH  19  25
ENDBRANCH   2  19
TORSDOF 6
