REMARK  Name = ZINC02254052
REMARK  13 active torsions:
REMARK  status: ('A' for Active; 'I' for Inactive)
REMARK    1  A    between atoms: C_1  and  C_2
REMARK    2  A    between atoms: C_2  and  C_3
REMARK    3  A    between atoms: C_3  and  C_4
REMARK    4  A    between atoms: C_3  and  C_5
REMARK    5  A    between atoms: C_3  and  C_6
REMARK    6  A    between atoms: C_13  and  N_20
REMARK    7  A    between atoms: C_14  and  C_15
REMARK    8  A    between atoms: C_15  and  O_17
REMARK    9  A    between atoms: O_17  and  C_18
REMARK   10  A    between atoms: C_18  and  C_19
REMARK   11  A    between atoms: N_20  and  C_21
REMARK   12  A    between atoms: C_21  and  N_23
REMARK   13  A    between atoms: C_24  and  C_26
REMARK                            x       y       z     vdW  Elec       q    Type
REMARK                         _______ _______ _______ _____ _____    ______ ____
ROOT
ATOM      1  C   UNL     1       0.011   1.072   2.506  0.00  0.00    -0.000 C 
ATOM      2  C   UNL     1      -0.704   1.565   3.768  0.00  0.00    +0.009 C 
ATOM      3  C   UNL     1       0.157   1.276   4.999  0.00  0.00    +0.037 C 
ATOM      4  C   UNL     1       0.547  -0.197   4.990  0.00  0.00    -0.021 A 
ATOM      5  C   UNL     1       0.469  -0.930   3.859  0.00  0.00    -0.004 A 
ATOM      6  S   UNL     1       1.014  -2.548   4.329  0.00  0.00    -0.077 S 
ATOM      7  C   UNL     1       1.343  -2.257   6.005  0.00  0.00    +0.086 A 
ATOM      8  C   UNL     1       1.024  -0.914   6.162  0.00  0.00    +0.091 A 
ATOM      9  C   UNL     1       0.018  -0.463   2.510  0.00  0.00    +0.046 C 
ENDROOT
BRANCH   1  10
ATOM     10  C   UNL     1      -0.729   1.579   1.267  0.00  0.00    -0.032 C 
ATOM     11  C   UNL     1      -0.750   3.109   1.275  0.00  0.00    +0.011 C 
ATOM     12  C   UNL     1      -2.164   1.050   1.278  0.00  0.00    +0.011 C 
BRANCH  10  14
ATOM     13  C   UNL     1      -0.753   1.593  -1.232  0.00  0.00    +0.004 C 
ATOM     14  C   UNL     1      -0.013   1.086   0.008  0.00  0.00    +0.003 C 
ENDBRANCH  10  14
ENDBRANCH   1  10
BRANCH   8  15
ATOM     15  C   UNL     1       1.160  -0.247   7.457  0.00  0.00    +0.342 C 
ATOM     16  O   UNL     1       0.226  -0.234   8.237  0.00  0.00    -0.245 OA
BRANCH  15  17
ATOM     17  O   UNL     1       2.322   0.354   7.788  0.00  0.00    -0.461 OA
BRANCH  17  18
ATOM     18  C   UNL     1       2.386   0.996   9.088  0.00  0.00    +0.229 C 
ATOM     19  C   UNL     1       3.770   1.618   9.283  0.00  0.00    +0.048 C 
ENDBRANCH  17  18
ENDBRANCH  15  17
ENDBRANCH   8  15
BRANCH   7  20
ATOM     20  N   UNL     1       1.812  -3.146   6.957  0.00  0.00    -0.290 N 
ATOM     21  H   UNL     1       1.955  -2.850   7.870  0.00  0.00    +0.154 HD
BRANCH  20  22
ATOM     22  C   UNL     1       2.070  -4.425   6.616  0.00  0.00    +0.141 C 
ATOM     23  S   UNL     1       1.818  -4.948   5.006  0.00  0.00    -0.018 S 
BRANCH  22  24
ATOM     24  N   UNL     1       2.526  -5.290   7.543  0.00  0.00    -0.263 N 
ATOM     25  C   UNL     1       2.784  -6.569   7.202  0.00  0.00    +0.256 C 
ATOM     26  O   UNL     1       2.605  -6.941   6.058  0.00  0.00    -0.270 OA
ATOM     27  H   UNL     1       2.669  -4.994   8.455  0.00  0.00    +0.157 HD
BRANCH  25  28
ATOM     28  C   UNL     1       3.282  -7.514   8.213  0.00  0.00    +0.122 A 
ATOM     29  C   UNL     1       3.496  -7.103   9.518  0.00  0.00    +0.031 A 
ATOM     30  C   UNL     1       3.973  -8.048  10.461  0.00  0.00    +0.018 A 
ATOM     31  C   UNL     1       4.196  -7.666  11.793  0.00  0.00    +0.011 A 
ATOM     32  C   UNL     1       4.660  -8.580  12.694  0.00  0.00    +0.001 A 
ATOM     33  C   UNL     1       4.913  -9.888  12.303  0.00  0.00    +0.004 A 
ATOM     34  C   UNL     1       4.701 -10.285  11.000  0.00  0.00    +0.047 A 
ATOM     35  C   UNL     1       4.229  -9.372  10.062  0.00  0.00    +0.139 A 
ATOM     36  O   UNL     1       4.022  -9.764   8.787  0.00  0.00    -0.422 OA
ATOM     37  C   UNL     1       3.567  -8.909   7.856  0.00  0.00    +0.350 A 
ATOM     38  O   UNL     1       3.391  -9.291   6.715  0.00  0.00    -0.244 OA
ENDBRANCH  25  28
ENDBRANCH  22  24
ENDBRANCH  20  22
ENDBRANCH   7  20
TORSDOF 9
