REMARK  Name = ZINC39686087
REMARK  11 active torsions:
REMARK  status: ('A' for Active; 'I' for Inactive)
REMARK    1  A    between atoms: C_1  and  C_2
REMARK    2  A    between atoms: C_2  and  C_3
REMARK    3  A    between atoms: C_3  and  C_4
REMARK    4  A    between atoms: C_4  and  C_5
REMARK    5  A    between atoms: C_5  and  C_7
REMARK    6  A    between atoms: C_5  and  C_8
REMARK    7  A    between atoms: C_12  and  C_21
REMARK    8  A    between atoms: N_23  and  C_24
REMARK    9  A    between atoms: C_30  and  C_32
REMARK   10  A    between atoms: C_32  and  C_33
REMARK   11  A    between atoms: C_32  and  C_34
REMARK                            x       y       z     vdW  Elec       q    Type
REMARK                         _______ _______ _______ _____ _____    ______ ____
ROOT
ATOM      1  C   UNL     1       1.598  -5.574  -3.311  0.00  0.00    +0.218 C 
ATOM      2  O   UNL     1       1.107  -6.004  -2.288  0.00  0.00    -0.275 OA
ATOM      3  N   UNL     1       2.422  -6.350  -4.042  0.00  0.00    -0.300 N 
ATOM      4  C   UNL     1       3.116  -6.002  -5.304  0.00  0.00    +0.121 C 
ATOM      5  C   UNL     1       4.514  -6.646  -5.170  0.00  0.00    +0.100 C 
ATOM      6  C   UNL     1       4.325  -7.790  -4.160  0.00  0.00    -0.004 C 
ATOM      7  C   UNL     1       2.844  -7.744  -3.761  0.00  0.00    +0.115 C 
ATOM      8  C   UNL     1       5.203  -7.562  -2.934  0.00  0.00    -0.010 C 
ATOM      9  C   UNL     1       5.041  -8.741  -1.970  0.00  0.00    -0.082 C 
ATOM     10  N   UNL     1       5.425  -9.986  -2.648  0.00  0.00    +0.379 N 
ATOM     11  C   UNL     1       4.517 -10.245  -3.771  0.00  0.00    -0.082 C 
ATOM     12  C   UNL     1       4.657  -9.129  -4.811  0.00  0.00    -0.010 C 
ATOM     13  H   UNL     1       6.370  -9.902  -2.993  0.00  0.00    -0.086 HD
ATOM     14  H   UNL     1       5.376 -10.752  -1.993  0.00  0.00    -0.086 HD
ENDROOT
BRANCH   5  15
ATOM     15  C   UNL     1       5.507  -5.639  -4.647  0.00  0.00    +0.218 C 
ATOM     16  O   UNL     1       5.140  -4.760  -3.897  0.00  0.00    -0.275 OA
ATOM     17  N   UNL     1       6.801  -5.716  -5.014  0.00  0.00    -0.312 N 
ATOM     18  H   UNL     1       7.094  -6.420  -5.614  0.00  0.00    +0.149 HD
BRANCH  17  19
ATOM     19  C   UNL     1       7.766  -4.738  -4.505  0.00  0.00    +0.076 C 
ATOM     20  C   UNL     1       8.277  -5.191  -3.135  0.00  0.00    +0.041 C 
ATOM     21  C   UNL     1       9.259  -4.149  -2.591  0.00  0.00    +0.109 C 
ATOM     22  N   UNL     1      10.317  -3.930  -3.588  0.00  0.00    -0.301 N 
ATOM     23  C   UNL     1       9.931  -3.579  -4.962  0.00  0.00    +0.109 C 
ATOM     24  C   UNL     1       8.941  -4.627  -5.479  0.00  0.00    +0.041 C 
ATOM     25  C   UNL     1      11.616  -4.048  -3.248  0.00  0.00    +0.218 C 
ATOM     26  O   UNL     1      11.920  -4.408  -2.131  0.00  0.00    -0.275 OA
BRANCH  25  27
ATOM     27  C   UNL     1      12.690  -3.733  -4.257  0.00  0.00    +0.069 C 
ATOM     28  C   UNL     1      12.899  -2.219  -4.324  0.00  0.00    +0.017 C 
ATOM     29  C   UNL     1      13.997  -4.410  -3.838  0.00  0.00    +0.017 C 
ENDBRANCH  25  27
ENDBRANCH  17  19
ENDBRANCH   5  15
BRANCH   1  30
ATOM     30  C   UNL     1       1.286  -4.171  -3.764  0.00  0.00    +0.072 C 
ATOM     31  C   UNL     1       0.625  -4.215  -5.143  0.00  0.00    +0.017 C 
BRANCH  30  32
ATOM     32  C   UNL     1       0.335  -3.511  -2.763  0.00  0.00    +0.012 C 
BRANCH  32  33
ATOM     33  C   UNL     1       0.117  -2.048  -3.155  0.00  0.00    +0.000 C 
BRANCH  33  35
ATOM     34  C   UNL     1      -1.053   0.074  -2.546  0.00  0.00    +0.004 C 
ATOM     35  C   UNL     1      -0.835  -1.389  -2.155  0.00  0.00    -0.003 C 
ENDBRANCH  33  35
ENDBRANCH  32  33
ENDBRANCH  30  32
ENDBRANCH   1  30
TORSDOF 7
