REMARK  Name = ZINC39675857
REMARK  10 active torsions:
REMARK  status: ('A' for Active; 'I' for Inactive)
REMARK    1  A    between atoms: C_1  and  C_2
REMARK    2  A    between atoms: C_4  and  C_11
REMARK    3  A    between atoms: C_5  and  C_7
REMARK    4  A    between atoms: C_15  and  C_24
REMARK    5  A    between atoms: N_26  and  C_27
REMARK    6  A    between atoms: C_27  and  C_28
REMARK    7  A    between atoms: C_28  and  C_30
REMARK    8  A    between atoms: C_28  and  N_36
REMARK    9  A    between atoms: N_36  and  C_37
REMARK   10  A    between atoms: N_36  and  C_38
REMARK                            x       y       z     vdW  Elec       q    Type
REMARK                         _______ _______ _______ _____ _____    ______ ____
ROOT
ATOM      1  C   UNL     1      -1.405  -3.399   0.036  0.00  0.00    +0.250 C 
ATOM      2  O   UNL     1      -0.877  -4.490  -0.053  0.00  0.00    -0.270 OA
ATOM      3  N   UNL     1      -2.745  -3.305   0.149  0.00  0.00    -0.296 N 
ATOM      4  C   UNL     1      -3.574  -2.077   0.141  0.00  0.00    +0.121 C 
ATOM      5  C   UNL     1      -4.829  -2.457  -0.675  0.00  0.00    +0.100 C 
ATOM      6  C   UNL     1      -4.923  -3.988  -0.559  0.00  0.00    -0.004 C 
ATOM      7  C   UNL     1      -3.723  -4.409   0.303  0.00  0.00    +0.115 C 
ATOM      8  C   UNL     1      -6.229  -4.388   0.120  0.00  0.00    -0.010 C 
ATOM      9  C   UNL     1      -6.325  -5.916   0.171  0.00  0.00    -0.082 C 
ATOM     10  N   UNL     1      -6.274  -6.457  -1.193  0.00  0.00    +0.379 N 
ATOM     11  C   UNL     1      -4.977  -6.147  -1.806  0.00  0.00    -0.082 C 
ATOM     12  C   UNL     1      -4.824  -4.629  -1.940  0.00  0.00    -0.010 C 
ATOM     13  H   UNL     1      -6.399  -7.457  -1.161  0.00  0.00    -0.086 HD
ATOM     14  H   UNL     1      -7.012  -6.046  -1.744  0.00  0.00    -0.086 HD
ENDROOT
BRANCH   1  18
ATOM     15  C   UNL     1       0.250   1.373   0.756  0.00  0.00    +0.086 C 
ATOM     16  C   UNL     1       0.132  -0.072   0.347  0.00  0.00    +0.103 A 
ATOM     17  C   UNL     1      -0.913  -0.873   0.609  0.00  0.00    +0.058 A 
ATOM     18  C   UNL     1      -0.580  -2.178   0.019  0.00  0.00    +0.087 A 
ATOM     19  C   UNL     1       0.651  -2.022  -0.546  0.00  0.00    +0.220 A 
ATOM     20  O   UNL     1       1.052  -0.763  -0.344  0.00  0.00    -0.455 OA
BRANCH  19  21
ATOM     21  C   UNL     1       1.426  -3.087  -1.279  0.00  0.00    +0.451 C 
ATOM     22  F   UNL     1       1.099  -3.049  -2.638  0.00  0.00    -0.163 F 
ATOM     23  F   UNL     1       2.797  -2.858  -1.122  0.00  0.00    -0.163 F 
ATOM     24  F   UNL     1       1.100  -4.343  -0.756  0.00  0.00    -0.163 F 
ENDBRANCH  19  21
ENDBRANCH   1  18
BRANCH   5  25
ATOM     25  C   UNL     1      -4.663  -2.047  -2.115  0.00  0.00    +0.218 C 
ATOM     26  O   UNL     1      -3.571  -2.098  -2.638  0.00  0.00    -0.275 OA
ATOM     27  N   UNL     1      -5.730  -1.622  -2.822  0.00  0.00    -0.316 N 
ATOM     28  H   UNL     1      -6.604  -1.581  -2.403  0.00  0.00    +0.149 HD
BRANCH  27  29
ATOM     29  C   UNL     1      -5.569  -1.223  -4.222  0.00  0.00    +0.093 C 
BRANCH  29  30
ATOM     30  C   UNL     1      -6.940  -0.907  -4.823  0.00  0.00    -0.021 C 
BRANCH  30  31
ATOM     31  C   UNL     1      -7.802  -2.142  -4.784  0.00  0.00    -0.059 A 
ATOM     32  C   UNL     1      -7.642  -3.127  -5.741  0.00  0.00    +0.002 A 
ATOM     33  C   UNL     1      -8.433  -4.261  -5.705  0.00  0.00    +0.000 A 
ATOM     34  C   UNL     1      -9.383  -4.409  -4.712  0.00  0.00    +0.000 A 
ATOM     35  C   UNL     1      -9.543  -3.424  -3.756  0.00  0.00    +0.000 A 
ATOM     36  C   UNL     1      -8.749  -2.293  -3.789  0.00  0.00    +0.002 A 
ENDBRANCH  30  31
BRANCH  30  37
ATOM     37  N   UNL     1      -6.774  -0.469  -6.216  0.00  0.00    +0.382 N 
ATOM     38  C   UNL     1      -8.077  -0.061  -6.759  0.00  0.00    -0.096 C 
ATOM     39  C   UNL     1      -5.846   0.668  -6.264  0.00  0.00    -0.096 C 
ATOM     40  H   UNL     1      -6.404  -1.229  -6.766  0.00  0.00    -0.082 HD
ENDBRANCH  30  37
ENDBRANCH  29  30
ENDBRANCH  27  29
ENDBRANCH   5  25
TORSDOF 7
