REMARK  Name = ZINC22429586
REMARK  6 active torsions:
REMARK  status: ('A' for Active; 'I' for Inactive)
REMARK    1  A    between atoms: C_1  and  C_2
REMARK    2  A    between atoms: C_2  and  C_25
REMARK    3  A    between atoms: N_5  and  C_9
REMARK    4  A    between atoms: C_9  and  C_10
REMARK    5  A    between atoms: N_12  and  C_13
REMARK    6  A    between atoms: N_12  and  C_19
REMARK                            x       y       z     vdW  Elec       q    Type
REMARK                         _______ _______ _______ _____ _____    ______ ____
ROOT
ATOM      1  C   UNL     1      -0.466   0.727  -0.171  0.00  0.00    +0.047 C 
ATOM      2  C   UNL     1      -0.235  -0.785  -0.216  0.00  0.00    +0.135 C 
ATOM      3  C   UNL     1       0.692  -1.149  -1.359  0.00  0.00    +0.251 C 
ATOM      4  O   UNL     1       0.502  -0.966  -2.542  0.00  0.00    -0.272 OA
ATOM      5  N   UNL     1       1.771  -1.718  -0.786  0.00  0.00    -0.215 N 
ATOM      6  C   UNL     1       1.656  -1.764   0.546  0.00  0.00    +0.310 C 
ATOM      7  O   UNL     1       2.502  -2.232   1.282  0.00  0.00    -0.252 OA
ATOM      8  N   UNL     1       0.498  -1.233   0.980  0.00  0.00    -0.281 N 
ATOM      9  H   UNL     1       0.204  -1.160   1.902  0.00  0.00    +0.152 HD
ENDROOT
BRANCH   2  10
ATOM     10  C   UNL     1      -1.547  -1.517  -0.339  0.00  0.00    -0.012 A 
ATOM     11  C   UNL     1      -2.051  -1.821  -1.590  0.00  0.00    +0.010 A 
ATOM     12  C   UNL     1      -3.255  -2.492  -1.710  0.00  0.00    +0.050 A 
ATOM     13  C   UNL     1      -3.953  -2.860  -0.572  0.00  0.00    +0.162 A 
ATOM     14  C   UNL     1      -3.446  -2.556   0.683  0.00  0.00    +0.162 A 
ATOM     15  C   UNL     1      -2.239  -1.887   0.800  0.00  0.00    +0.055 A 
ATOM     16  O   UNL     1      -4.141  -2.924   1.798  0.00  0.00    -0.488 OA
ATOM     17  C   UNL     1      -5.378  -2.243   2.017  0.00  0.00    +0.232 C 
ATOM     18  C   UNL     1      -6.502  -2.902   1.234  0.00  0.00    +0.082 C 
ATOM     19  C   UNL     1      -6.301  -2.797  -0.269  0.00  0.00    +0.232 C 
ATOM     20  O   UNL     1      -5.140  -3.525  -0.677  0.00  0.00    -0.488 OA
ENDBRANCH   2  10
BRANCH   5  21
ATOM     21  C   UNL     1       2.926  -2.225  -1.530  0.00  0.00    +0.214 C 
BRANCH  21  22
ATOM     22  C   UNL     1       3.944  -1.125  -1.689  0.00  0.00    +0.238 C 
ATOM     23  O   UNL     1       3.687  -0.002  -1.308  0.00  0.00    -0.273 OA
ATOM     24  N   UNL     1       5.139  -1.388  -2.254  0.00  0.00    -0.267 N 
BRANCH  24  25
ATOM     25  C   UNL     1       5.392  -2.652  -2.798  0.00  0.00    +0.037 A 
ATOM     26  C   UNL     1       4.681  -3.087  -3.909  0.00  0.00    +0.023 A 
ATOM     27  C   UNL     1       4.934  -4.336  -4.443  0.00  0.00    +0.002 A 
ATOM     28  C   UNL     1       5.893  -5.152  -3.872  0.00  0.00    +0.000 A 
ATOM     29  C   UNL     1       6.602  -4.722  -2.766  0.00  0.00    +0.002 A 
ATOM     30  C   UNL     1       6.359  -3.472  -2.231  0.00  0.00    +0.023 A 
ENDBRANCH  24  25
BRANCH  24  31
ATOM     31  C   UNL     1       6.172  -0.351  -2.300  0.00  0.00    +0.082 C 
ATOM     32  C   UNL     1       6.444   0.161  -0.883  0.00  0.00    +0.023 C 
ATOM     33  C   UNL     1       7.523   1.244  -0.931  0.00  0.00    +0.002 C 
ATOM     34  C   UNL     1       7.045   2.402  -1.808  0.00  0.00    +0.000 C 
ATOM     35  C   UNL     1       6.772   1.891  -3.224  0.00  0.00    +0.002 C 
ATOM     36  C   UNL     1       5.693   0.808  -3.177  0.00  0.00    +0.023 C 
ENDBRANCH  24  31
ENDBRANCH  21  22
ENDBRANCH   5  21
TORSDOF 5
