REMARK  Name = ZINC64541606
REMARK  3 active torsions:
REMARK  status: ('A' for Active; 'I' for Inactive)
REMARK    1  A    between atoms: C_11  and  C_13
REMARK    2  A    between atoms: C_15  and  N_23
REMARK    3  A    between atoms: C_24  and  C_26
REMARK                            x       y       z     vdW  Elec       q    Type
REMARK                         _______ _______ _______ _____ _____    ______ ____
ROOT
ATOM      1  C   UNL     1       5.775  -1.684   1.953  0.00  0.00    +0.211 C 
ATOM      2  C   UNL     1       6.679  -1.938   0.766  0.00  0.00    +0.051 C 
ATOM      3  C   UNL     1       7.459  -3.028   1.115  0.00  0.00    +0.018 A 
ATOM      4  C   UNL     1       8.479  -3.730   0.430  0.00  0.00    +0.011 A 
ATOM      5  C   UNL     1       9.087  -4.785   1.028  0.00  0.00    +0.001 A 
ATOM      6  C   UNL     1       8.731  -5.204   2.313  0.00  0.00    +0.002 A 
ATOM      7  C   UNL     1       7.764  -4.579   3.027  0.00  0.00    +0.026 A 
ATOM      8  C   UNL     1       7.082  -3.466   2.470  0.00  0.00    +0.045 A 
ATOM      9  N   UNL     1       6.121  -2.701   2.951  0.00  0.00    -0.369 N 
ATOM     10  H   UNL     1       5.710  -2.795   3.824  0.00  0.00    +0.161 HD
ENDROOT
BRANCH   1  21
ATOM     11  C   UNL     1       1.963   3.831   1.604  0.00  0.00    +0.000 A 
ATOM     12  C   UNL     1       3.307   3.986   1.319  0.00  0.00    +0.000 A 
ATOM     13  C   UNL     1       4.072   2.881   1.011  0.00  0.00    +0.005 A 
ATOM     14  C   UNL     1       3.505   1.614   0.990  0.00  0.00    -0.027 A 
ATOM     15  C   UNL     1       2.169   1.457   1.283  0.00  0.00    -0.041 A 
ATOM     16  C   UNL     1       1.398   2.573   1.585  0.00  0.00    +0.004 A 
ATOM     17  C   UNL     1       1.491   0.112   1.310  0.00  0.00    +0.054 C 
ATOM     18  C   UNL     1       2.293  -0.917   0.514  0.00  0.00    +0.113 C 
ATOM     19  N   UNL     1       3.702  -0.809   0.925  0.00  0.00    -0.295 N 
ATOM     20  C   UNL     1       4.395   0.450   0.632  0.00  0.00    +0.143 C 
ATOM     21  C   UNL     1       4.332  -1.827   1.545  0.00  0.00    +0.244 C 
ATOM     22  O   UNL     1       3.736  -2.858   1.775  0.00  0.00    -0.273 OA
ENDBRANCH   1  21
BRANCH   2  23
ATOM     23  N   UNL     1       6.717  -1.241  -0.401  0.00  0.00    -0.282 N 
ATOM     24  C   UNL     1       7.878  -1.115  -1.074  0.00  0.00    +0.248 C 
ATOM     25  O   UNL     1       8.884  -1.652  -0.655  0.00  0.00    -0.270 OA
ATOM     26  H   UNL     1       5.908  -0.835  -0.750  0.00  0.00    +0.155 HD
BRANCH  24  27
ATOM     27  C   UNL     1       7.928  -0.323  -2.320  0.00  0.00    +0.037 A 
ATOM     28  C   UNL     1       6.774   0.300  -2.801  0.00  0.00    +0.014 A 
ATOM     29  C   UNL     1       6.827   1.038  -3.964  0.00  0.00    +0.021 A 
ATOM     30  C   UNL     1       8.021   1.161  -4.656  0.00  0.00    +0.041 A 
ATOM     31  C   UNL     1       9.168   0.544  -4.184  0.00  0.00    +0.021 A 
ATOM     32  C   UNL     1       9.130  -0.191  -3.019  0.00  0.00    +0.014 A 
ATOM     33 CL   UNL     1       8.079   2.091  -6.121  0.00  0.00    -0.084 Cl
ENDBRANCH  24  27
ENDBRANCH   2  23
TORSDOF 3
