REMARK  Name = ZINC05262022
REMARK  7 active torsions:
REMARK  status: ('A' for Active; 'I' for Inactive)
REMARK    1  A    between atoms: C_1  and  C_2
REMARK    2  A    between atoms: C_5  and  C_8
REMARK    3  A    between atoms: C_9  and  C_22
REMARK    4  A    between atoms: C_11  and  S_14
REMARK    5  A    between atoms: S_14  and  C_15
REMARK    6  A    between atoms: C_15  and  C_16
REMARK    7  A    between atoms: C_25  and  C_28
REMARK                            x       y       z     vdW  Elec       q    Type
REMARK                         _______ _______ _______ _____ _____    ______ ____
ROOT
ATOM      1  C   UNL     1      -0.018   1.471   0.010  0.00  0.00    +0.075 A 
ATOM      2  C   UNL     1       1.076   2.314   0.004  0.00  0.00    +0.098 A 
ATOM      3  N   UNL     1       0.617   3.581   0.015  0.00  0.00    -0.221 NA
ATOM      4  C   UNL     1      -0.695   3.574   0.027  0.00  0.00    +0.168 A 
ATOM      5  N   UNL     1      -1.136   2.285   0.019  0.00  0.00    -0.332 N 
ATOM      6  H   UNL     1      -2.089   1.984   0.020  0.00  0.00    +0.168 HD
ENDROOT
BRANCH   1  11
ATOM      7  C   UNL     1       0.059  -4.280  -0.022  0.00  0.00    +0.044 C 
ATOM      8  C   UNL     1       0.039  -2.773  -0.013  0.00  0.00    -0.050 A 
ATOM      9  C   UNL     1      -0.810  -2.101   0.847  0.00  0.00    +0.004 A 
ATOM     10  C   UNL     1      -0.834  -0.722   0.860  0.00  0.00    +0.010 A 
ATOM     11  C   UNL     1       0.002  -0.004   0.002  0.00  0.00    +0.000 A 
ATOM     12  C   UNL     1       0.853  -0.690  -0.868  0.00  0.00    +0.010 A 
ATOM     13  C   UNL     1       0.871  -2.069  -0.867  0.00  0.00    +0.004 A 
ENDBRANCH   1  11
BRANCH   2  14
ATOM     14  C   UNL     1       2.498   1.900  -0.012  0.00  0.00    +0.002 A 
ATOM     15  C   UNL     1       2.902   0.755   0.675  0.00  0.00    +0.010 A 
ATOM     16  C   UNL     1       4.227   0.371   0.652  0.00  0.00    +0.004 A 
ATOM     17  C   UNL     1       5.157   1.126  -0.041  0.00  0.00    -0.050 A 
ATOM     18  C   UNL     1       4.763   2.266  -0.719  0.00  0.00    +0.004 A 
ATOM     19  C   UNL     1       3.440   2.657  -0.709  0.00  0.00    +0.010 A 
ATOM     20  C   UNL     1       6.603   0.705  -0.056  0.00  0.00    +0.044 C 
ENDBRANCH   2  14
BRANCH   4  21
ATOM     21  S   UNL     1      -1.723   5.004   0.043  0.00  0.00    -0.079 S 
BRANCH  21  22
ATOM     22  C   UNL     1      -0.460   6.300   0.038  0.00  0.00    +0.173 C 
BRANCH  22  23
ATOM     23  C   UNL     1      -1.126   7.652   0.050  0.00  0.00    +0.231 C 
ATOM     24  O   UNL     1      -2.336   7.731   0.061  0.00  0.00    -0.274 OA
ATOM     25  N   UNL     1      -0.377   8.772   0.049  0.00  0.00    -0.240 N 
ATOM     26  C   UNL     1      -0.973   9.981   0.060  0.00  0.00    +0.303 C 
ATOM     27  O   UNL     1      -2.186  10.060   0.071  0.00  0.00    -0.253 OA
ATOM     28  N   UNL     1      -0.224  11.101   0.058  0.00  0.00    -0.313 N 
ATOM     29  H   UNL     1       0.591   8.709   0.040  0.00  0.00    +0.159 HD
ATOM     30  H   UNL     1       0.744  11.038   0.049  0.00  0.00    +0.146 HD
ATOM     31  H   UNL     1      -0.653  11.972   0.066  0.00  0.00    +0.146 HD
ENDBRANCH  22  23
ENDBRANCH  21  22
ENDBRANCH   4  21
TORSDOF 5
