REMARK  Name = ZINC58995817
REMARK  8 active torsions:
REMARK  status: ('A' for Active; 'I' for Inactive)
REMARK    1  A    between atoms: C_1  and  O_2
REMARK    2  A    between atoms: O_2  and  C_3
REMARK    3  A    between atoms: C_6  and  C_9
REMARK    4  A    between atoms: N_10  and  N_11
REMARK    5  A    between atoms: C_14  and  S_17
REMARK    6  A    between atoms: S_17  and  C_18
REMARK    7  A    between atoms: C_18  and  C_19
REMARK    8  A    between atoms: N_21  and  C_22
REMARK                            x       y       z     vdW  Elec       q    Type
REMARK                         _______ _______ _______ _____ _____    ______ ____
ROOT
ATOM      1  N   UNL     1      -6.247  -4.566   0.067  0.00  0.00    -0.205 N 
ATOM      2  C   UNL     1      -6.300  -5.948   0.062  0.00  0.00    +0.232 A 
ATOM      3  N   UNL     1      -5.266  -6.763   0.050  0.00  0.00    -0.186 NA
ATOM      4  C   UNL     1      -5.692  -8.030   0.049  0.00  0.00    +0.211 A 
ATOM      5  N   UNL     1      -7.003  -8.039   0.061  0.00  0.00    -0.144 NA
ATOM      6  N   UNL     1      -7.422  -6.699   0.075  0.00  0.00    -0.245 N 
ATOM      7  H   UNL     1      -7.067  -4.049   0.081  0.00  0.00    +0.177 HD
ATOM      8  H   UNL     1      -8.337  -6.376   0.090  0.00  0.00    +0.192 HD
ENDROOT
BRANCH   1  10
ATOM      9  C   UNL     1      -4.957  -2.616   0.056  0.00  0.00    +0.138 C 
ATOM     10  N   UNL     1      -5.007  -3.913   0.051  0.00  0.00    -0.188 NA
BRANCH   9  14
ATOM     11  C   UNL     1      -1.202  -0.637   0.010  0.00  0.00    +0.120 A 
ATOM     12  C   UNL     1      -2.375   0.106   0.029  0.00  0.00    +0.046 A 
ATOM     13  C   UNL     1      -3.596  -0.532   0.044  0.00  0.00    +0.013 A 
ATOM     14  C   UNL     1      -3.653  -1.929   0.040  0.00  0.00    -0.005 A 
ATOM     15  C   UNL     1      -2.470  -2.671   0.020  0.00  0.00    +0.013 A 
ATOM     16  C   UNL     1      -1.253  -2.025   0.000  0.00  0.00    +0.046 A 
BRANCH  11  18
ATOM     17  C   UNL     1      -0.019   1.425   0.007  0.00  0.00    +0.277 C 
ATOM     18  O   UNL     1       0.000  -0.003  -0.005  0.00  0.00    -0.495 OA
ENDBRANCH  11  18
ENDBRANCH   9  14
ENDBRANCH   1  10
BRANCH   4  19
ATOM     19  S   UNL     1      -4.658  -9.457   0.034  0.00  0.00    -0.075 S 
BRANCH  19  20
ATOM     20  C   UNL     1      -5.827 -10.845   0.040  0.00  0.00    +0.173 C 
BRANCH  20  21
ATOM     21  C   UNL     1      -5.063 -12.144   0.028  0.00  0.00    +0.227 C 
ATOM     22  O   UNL     1      -3.850 -12.135   0.016  0.00  0.00    -0.275 OA
ATOM     23  N   UNL     1      -5.728 -13.317   0.030  0.00  0.00    -0.285 N 
ATOM     24  H   UNL     1      -6.695 -13.326   0.108  0.00  0.00    +0.155 HD
BRANCH  23  25
ATOM     25  C   UNL     1      -5.023 -14.521  -0.079  0.00  0.00    +0.033 A 
ATOM     26  C   UNL     1      -5.572 -15.587  -0.779  0.00  0.00    +0.024 A 
ATOM     27  C   UNL     1      -4.875 -16.774  -0.886  0.00  0.00    +0.017 A 
ATOM     28  C   UNL     1      -3.630 -16.902  -0.295  0.00  0.00    +0.018 A 
ATOM     29  C   UNL     1      -3.081 -15.841   0.404  0.00  0.00    +0.017 A 
ATOM     30  C   UNL     1      -3.772 -14.650   0.509  0.00  0.00    +0.024 A 
ATOM     31 BR   UNL     1      -2.678 -18.529  -0.443  0.00  0.00    -0.050 Br
ENDBRANCH  23  25
ENDBRANCH  20  21
ENDBRANCH  19  20
ENDBRANCH   4  19
TORSDOF 7
