REMARK  Name = ZINC64775480
REMARK  5 active torsions:
REMARK  status: ('A' for Active; 'I' for Inactive)
REMARK    1  A    between atoms: C_1  and  C_2
REMARK    2  A    between atoms: C_2  and  C_3
REMARK    3  A    between atoms: C_6  and  N_9
REMARK    4  A    between atoms: C_10  and  C_12
REMARK    5  A    between atoms: C_21  and  C_26
REMARK                            x       y       z     vdW  Elec       q    Type
REMARK                         _______ _______ _______ _____ _____    ______ ____
ROOT
ATOM      1  C   UNL     1       2.817  -2.416   6.980  0.00  0.00    +0.102 A 
ATOM      2  C   UNL     1       2.142  -2.681   8.164  0.00  0.00    +0.031 A 
ATOM      3  C   UNL     1       2.887  -3.046   9.306  0.00  0.00    +0.038 A 
ATOM      4  C   UNL     1       4.267  -3.145   9.248  0.00  0.00    +0.030 A 
ATOM      5  N   UNL     1       4.924  -2.882   8.099  0.00  0.00    -0.325 N 
ATOM      6  H   UNL     1       5.891  -2.951   8.084  0.00  0.00    +0.169 HD
ATOM      7  C   UNL     1       4.277  -2.534   6.975  0.00  0.00    +0.261 A 
ATOM      8  O   UNL     1       4.904  -2.311   5.954  0.00  0.00    -0.267 OA
ATOM      9  C   UNL     1       5.077  -3.553  10.451  0.00  0.00    +0.062 C 
ATOM     10  C   UNL     1       4.325  -3.271  11.748  0.00  0.00    +0.032 C 
ATOM     11  C   UNL     1       2.953  -3.955  11.697  0.00  0.00    +0.088 C 
ATOM     12  C   UNL     1       2.175  -3.316  10.567  0.00  0.00    +0.165 C 
ATOM     13  O   UNL     1       1.002  -3.034  10.695  0.00  0.00    -0.292 OA
ENDROOT
BRANCH  10  14
ATOM     14  C   UNL     1       5.114  -3.809  12.914  0.00  0.00    -0.044 A 
ATOM     15  C   UNL     1       5.413  -5.157  12.984  0.00  0.00    +0.004 A 
ATOM     16  C   UNL     1       6.136  -5.650  14.053  0.00  0.00    +0.000 A 
ATOM     17  C   UNL     1       6.561  -4.796  15.053  0.00  0.00    +0.000 A 
ATOM     18  C   UNL     1       6.263  -3.448  14.984  0.00  0.00    +0.000 A 
ATOM     19  C   UNL     1       5.543  -2.953  13.912  0.00  0.00    +0.004 A 
ENDBRANCH  10  14
BRANCH   1  21
ATOM     20  N   UNL     1       2.744  -1.893   4.596  0.00  0.00    -0.281 N 
ATOM     21  C   UNL     1       2.084  -2.034   5.763  0.00  0.00    +0.254 C 
ATOM     22  O   UNL     1       0.884  -1.844   5.809  0.00  0.00    -0.270 OA
ATOM     23  H   UNL     1       3.684  -2.126   4.539  0.00  0.00    +0.155 HD
BRANCH  20  27
ATOM     24  C   UNL     1       0.746  -0.465   1.232  0.00  0.00    -0.048 A 
ATOM     25  C   UNL     1       2.040  -0.053   1.492  0.00  0.00    +0.005 A 
ATOM     26  C   UNL     1       2.705  -0.525   2.607  0.00  0.00    +0.023 A 
ATOM     27  C   UNL     1       2.073  -1.413   3.466  0.00  0.00    +0.034 A 
ATOM     28  C   UNL     1       0.773  -1.825   3.202  0.00  0.00    +0.023 A 
ATOM     29  C   UNL     1       0.111  -1.345   2.089  0.00  0.00    +0.005 A 
BRANCH  24  31
ATOM     30  C   UNL     1      -0.724   1.338   0.372  0.00  0.00    +0.009 C 
ATOM     31  C   UNL     1       0.023   0.051   0.014  0.00  0.00    +0.032 C 
ENDBRANCH  24  31
ENDBRANCH  20  27
ENDBRANCH   1  21
TORSDOF 4
