REMARK  Name = ZINC63384220
REMARK  8 active torsions:
REMARK  status: ('A' for Active; 'I' for Inactive)
REMARK    1  A    between atoms: C_1  and  S_2
REMARK    2  A    between atoms: S_2  and  C_3
REMARK    3  A    between atoms: C_3  and  C_4
REMARK    4  A    between atoms: C_4  and  C_5
REMARK    5  A    between atoms: C_5  and  C_7
REMARK    6  A    between atoms: C_5  and  N_15
REMARK    7  A    between atoms: N_9  and  C_10
REMARK    8  A    between atoms: C_16  and  C_18
REMARK                            x       y       z     vdW  Elec       q    Type
REMARK                         _______ _______ _______ _____ _____    ______ ____
ROOT
ATOM      1  C   UNL     1       0.194  -0.127  -5.733  0.00  0.00    +0.167 C 
ATOM      2  C   UNL     1       0.647  -0.880  -6.999  0.00  0.00    +0.065 C 
ATOM      3  C   UNL     1       0.128  -0.105  -8.185  0.00  0.00    -0.034 C 
ATOM      4  C   UNL     1      -0.599  -0.496  -9.226  0.00  0.00    -0.001 A 
ATOM      5  C   UNL     1      -1.071  -1.826  -9.645  0.00  0.00    +0.010 A 
ATOM      6  C   UNL     1      -1.825  -1.866 -10.775  0.00  0.00    +0.001 A 
ATOM      7  C   UNL     1      -2.152  -0.730 -11.521  0.00  0.00    +0.002 A 
ATOM      8  C   UNL     1      -1.754   0.531 -11.215  0.00  0.00    +0.026 A 
ATOM      9  C   UNL     1      -0.949   0.700 -10.051  0.00  0.00    +0.043 A 
ATOM     10  N   UNL     1      -0.418   1.772  -9.544  0.00  0.00    -0.375 N 
ATOM     11  C   UNL     1       0.373   1.388  -8.372  0.00  0.00    +0.131 C 
ATOM     12  C   UNL     1      -0.134   2.075  -7.099  0.00  0.00    +0.134 C 
ATOM     13  N   UNL     1       0.399   1.312  -5.950  0.00  0.00    -0.276 N 
ATOM     14  C   UNL     1       1.097   2.149  -5.162  0.00  0.00    +0.248 C 
ATOM     15  O   UNL     1       1.592   1.849  -4.093  0.00  0.00    -0.270 OA
ATOM     16  C   UNL     1       1.175   3.474  -5.779  0.00  0.00    +0.042 A 
ATOM     17  C   UNL     1       0.411   3.462  -6.988  0.00  0.00    -0.013 A 
ATOM     18  C   UNL     1       0.283   4.566  -7.801  0.00  0.00    +0.006 A 
ATOM     19  C   UNL     1       0.929   5.730  -7.393  0.00  0.00    +0.000 A 
ATOM     20  C   UNL     1       1.667   5.781  -6.227  0.00  0.00    +0.001 A 
ATOM     21  C   UNL     1       1.830   4.637  -5.365  0.00  0.00    +0.013 A 
ATOM     22  H   UNL     1      -0.527   2.674  -9.884  0.00  0.00    +0.160 HD
ENDROOT
BRANCH   1  24
ATOM     23  N   UNL     1       2.325  -0.295  -4.489  0.00  0.00    -0.302 N 
ATOM     24  C   UNL     1       1.010  -0.583  -4.552  0.00  0.00    +0.235 C 
ATOM     25  O   UNL     1       0.484  -1.210  -3.657  0.00  0.00    -0.274 OA
ATOM     26  H   UNL     1       2.746   0.206  -5.205  0.00  0.00    +0.150 HD
BRANCH  23  27
ATOM     27  C   UNL     1       3.119  -0.739  -3.341  0.00  0.00    +0.160 C 
BRANCH  27  28
ATOM     28  C   UNL     1       4.313   0.165  -3.176  0.00  0.00    +0.234 C 
ATOM     29  O   UNL     1       4.484   1.089  -3.942  0.00  0.00    -0.274 OA
ATOM     30  N   UNL     1       5.191  -0.053  -2.176  0.00  0.00    -0.311 N 
ATOM     31  H   UNL     1       5.054  -0.792  -1.563  0.00  0.00    +0.149 HD
BRANCH  30  32
ATOM     32  C   UNL     1       6.352   0.826  -2.016  0.00  0.00    +0.073 C 
ATOM     33  C   UNL     1       7.528   0.309  -2.870  0.00  0.00    +0.022 C 
ATOM     34  C   UNL     1       8.780   0.589  -2.002  0.00  0.00    +0.002 C 
ATOM     35  C   UNL     1       8.278   0.280  -0.569  0.00  0.00    +0.002 C 
ATOM     36  C   UNL     1       6.829   0.807  -0.553  0.00  0.00    +0.022 C 
ENDBRANCH  30  32
ENDBRANCH  27  28
BRANCH  27  37
ATOM     37  C   UNL     1       3.594  -2.175  -3.573  0.00  0.00    +0.042 C 
BRANCH  37  38
ATOM     38  C   UNL     1       2.385  -3.111  -3.616  0.00  0.00    +0.071 C 
BRANCH  38  40
ATOM     39  C   UNL     1       1.417  -5.785  -3.917  0.00  0.00    +0.084 C 
ATOM     40  S   UNL     1       2.949  -4.813  -3.892  0.00  0.00    -0.164 S 
ENDBRANCH  38  40
ENDBRANCH  37  38
ENDBRANCH  27  37
ENDBRANCH  23  27
ENDBRANCH   1  24
TORSDOF 7
