REMARK  Name = ZINC43234340
REMARK  8 active torsions:
REMARK  status: ('A' for Active; 'I' for Inactive)
REMARK    1  A    between atoms: C_1  and  C_2
REMARK    2  A    between atoms: C_2  and  C_3
REMARK    3  A    between atoms: C_3  and  C_5
REMARK    4  A    between atoms: C_3  and  N_22
REMARK    5  A    between atoms: C_5  and  C_7
REMARK    6  A    between atoms: C_5  and  O_13
REMARK    7  A    between atoms: N_10  and  C_12
REMARK    8  A    between atoms: O_13  and  C_14
REMARK                            x       y       z     vdW  Elec       q    Type
REMARK                         _______ _______ _______ _____ _____    ______ ____
ROOT
ATOM      1  C   UNL     1      -1.417  -2.075   0.127  0.00  0.00    +0.192 C 
ENDROOT
BRANCH   1   2
ATOM      2  C   UNL     1      -2.795  -2.686   0.103  0.00  0.00    +0.028 A 
ATOM      3  C   UNL     1      -3.674  -2.775   1.188  0.00  0.00    +0.141 A 
ATOM      4  N   UNL     1      -4.768  -3.366   0.779  0.00  0.00    -0.180 NA
ATOM      5  N   UNL     1      -4.619  -3.672  -0.580  0.00  0.00    -0.274 N 
ATOM      6  C   UNL     1      -3.402  -3.239  -0.972  0.00  0.00    +0.115 A 
ATOM      7  C   UNL     1      -5.611  -4.338  -1.427  0.00  0.00    +0.172 C 
ENDBRANCH   1   2
BRANCH   1   8
ATOM      8  C   UNL     1      -1.533  -0.552   0.041  0.00  0.00    -0.029 C 
BRANCH   8   9
ATOM      9  N   UNL     1      -2.211  -0.183  -1.209  0.00  0.00    +0.383 N 
ATOM     10  H   UNL     1      -1.678  -0.524  -1.994  0.00  0.00    -0.089 HD
ATOM     11  H   UNL     1      -3.133  -0.591  -1.225  0.00  0.00    -0.089 HD
ATOM     12  H   UNL     1      -2.287   0.822  -1.266  0.00  0.00    -0.089 HD
ENDBRANCH   8   9
BRANCH   8  14
ATOM     13  C   UNL     1      -0.253   1.593   0.105  0.00  0.00    +0.002 C 
ATOM     14  C   UNL     1      -0.134   0.068   0.065  0.00  0.00    -0.016 C 
ENDBRANCH   8  14
ENDBRANCH   1   8
BRANCH   1  15
ATOM     15  O   UNL     1      -0.758  -2.435   1.343  0.00  0.00    -0.485 OA
BRANCH  15  16
ATOM     16  C   UNL     1       0.567  -2.730   1.263  0.00  0.00    +0.135 A 
ATOM     17  C   UNL     1       1.245  -2.559   0.065  0.00  0.00    +0.048 A 
ATOM     18  C   UNL     1       2.591  -2.859  -0.015  0.00  0.00    +0.023 A 
ATOM     19  C   UNL     1       3.264  -3.330   1.099  0.00  0.00    +0.042 A 
ATOM     20  C   UNL     1       2.590  -3.501   2.295  0.00  0.00    +0.039 A 
ATOM     21  C   UNL     1       1.244  -3.196   2.381  0.00  0.00    +0.061 A 
ATOM     22 BR   UNL     1       0.324  -3.423   4.018  0.00  0.00    -0.046 Br
ATOM     23 CL   UNL     1       4.955  -3.707   0.996  0.00  0.00    -0.084 Cl
ENDBRANCH  15  16
ENDBRANCH   1  15
TORSDOF 6
