REMARK  Name = ZINC05444935
REMARK  6 active torsions:
REMARK  status: ('A' for Active; 'I' for Inactive)
REMARK    1  A    between atoms: C_1  and  C_2
REMARK    2  A    between atoms: C_2  and  C_3
REMARK    3  A    between atoms: C_6  and  C_9
REMARK    4  A    between atoms: C_12  and  C_23
REMARK    5  A    between atoms: C_18  and  N_22
REMARK    6  A    between atoms: C_19  and  C_20
REMARK                            x       y       z     vdW  Elec       q    Type
REMARK                         _______ _______ _______ _____ _____    ______ ____
ROOT
ATOM      1  C   UNL     1      -5.533  -2.038   0.099  0.00  0.00    +0.102 C 
ATOM      2  C   UNL     1      -5.552  -3.276  -0.760  0.00  0.00    +0.054 A 
ATOM      3  C   UNL     1      -5.017  -4.541  -0.500  0.00  0.00    +0.100 A 
ATOM      4  N   UNL     1      -5.275  -5.312  -1.540  0.00  0.00    -0.171 NA
ATOM      5  N   UNL     1      -5.981  -4.554  -2.487  0.00  0.00    -0.246 N 
ATOM      6  H   UNL     1      -6.298  -4.870  -3.348  0.00  0.00    +0.192 HD
ATOM      7  C   UNL     1      -6.142  -3.311  -1.990  0.00  0.00    +0.223 A 
ATOM      8  O   UNL     1      -6.760  -2.234  -2.537  0.00  0.00    -0.423 OA
ATOM      9  C   UNL     1      -7.025  -1.188  -1.727  0.00  0.00    +0.200 C 
ATOM     10  C   UNL     1      -6.493  -1.037  -0.493  0.00  0.00    +0.098 C 
ENDROOT
BRANCH   3  11
ATOM     11  C   UNL     1      -4.288  -4.946   0.727  0.00  0.00    +0.006 A 
ATOM     12  C   UNL     1      -4.750  -4.543   1.978  0.00  0.00    +0.014 A 
ATOM     13  C   UNL     1      -4.072  -4.920   3.119  0.00  0.00    +0.050 A 
ATOM     14  C   UNL     1      -2.930  -5.701   3.025  0.00  0.00    +0.166 A 
ATOM     15  C   UNL     1      -2.463  -6.107   1.776  0.00  0.00    +0.167 A 
ATOM     16  C   UNL     1      -3.144  -5.735   0.631  0.00  0.00    +0.059 A 
ATOM     17  O   UNL     1      -1.337  -6.858   1.954  0.00  0.00    -0.453 OA
ATOM     18  C   UNL     1      -0.888  -6.567   3.291  0.00  0.00    +0.466 C 
ATOM     19  O   UNL     1      -2.095  -6.198   3.984  0.00  0.00    -0.453 OA
ENDBRANCH   3  11
BRANCH   1  23
ATOM     20  C   UNL     1      -1.591  -0.393   0.163  0.00  0.00    -0.048 A 
ATOM     21  C   UNL     1      -2.223  -0.720   1.348  0.00  0.00    +0.004 A 
ATOM     22  C   UNL     1      -3.498  -1.252   1.328  0.00  0.00    +0.005 A 
ATOM     23  C   UNL     1      -4.142  -1.457   0.122  0.00  0.00    -0.035 A 
ATOM     24  C   UNL     1      -3.511  -1.129  -1.063  0.00  0.00    +0.005 A 
ATOM     25  C   UNL     1      -2.237  -0.593  -1.043  0.00  0.00    +0.004 A 
BRANCH  20  27
ATOM     26  C   UNL     1      -0.285   1.712   0.270  0.00  0.00    +0.009 C 
ATOM     27  C   UNL     1      -0.200   0.187   0.185  0.00  0.00    +0.032 C 
ENDBRANCH  20  27
ENDBRANCH   1  23
BRANCH   9  28
ATOM     28  N   UNL     1      -7.886  -0.221  -2.182  0.00  0.00    -0.328 N 
ATOM     29  H   UNL     1      -8.284  -0.301  -3.063  0.00  0.00    +0.145 HD
ATOM     30  H   UNL     1      -8.097   0.543  -1.623  0.00  0.00    +0.145 HD
ENDBRANCH   9  28
BRANCH  10  31
ATOM     31  C   UNL     1      -6.854   0.113   0.279  0.00  0.00    +0.101 C 
ATOM     32  N   UNL     1      -7.140   1.026   0.892  0.00  0.00    -0.191 NA
ENDBRANCH  10  31
TORSDOF 5
