REMARK  Name = ZINC36601632
REMARK  19 active torsions:
REMARK  status: ('A' for Active; 'I' for Inactive)
REMARK    1  A    between atoms: C_1  and  C_2
REMARK    2  A    between atoms: C_5  and  C_7
REMARK    3  A    between atoms: C_7  and  N_8
REMARK    4  A    between atoms: N_8  and  C_9
REMARK    5  A    between atoms: C_9  and  C_11
REMARK    6  A    between atoms: C_9  and  C_20
REMARK    7  A    between atoms: C_12  and  O_19
REMARK    8  A    between atoms: C_14  and  O_18
REMARK    9  A    between atoms: C_16  and  O_17
REMARK   10  A    between atoms: N_22  and  C_23
REMARK   11  A    between atoms: C_23  and  C_24
REMARK   12  A    between atoms: C_23  and  C_25
REMARK   13  A    between atoms: C_23  and  C_26
REMARK   14  A    between atoms: C_26  and  C_27
REMARK   15  A    between atoms: C_27  and  C_28
REMARK   16  A    between atoms: C_27  and  C_29
REMARK   17  A    between atoms: C_27  and  C_30
REMARK   18  A    between atoms: C_31  and  C_33
REMARK   19  A    between atoms: C_33  and  C_35
REMARK                            x       y       z     vdW  Elec       q    Type
REMARK                         _______ _______ _______ _____ _____    ______ ____
ROOT
ATOM      1  C   UNL     1       1.983  -3.255  -2.583  0.00  0.00    +0.200 C 
ENDROOT
BRANCH   1   2
ATOM      2  C   UNL     1       2.025  -3.804  -3.986  0.00  0.00    +0.065 A 
ATOM      3  C   UNL     1       3.037  -3.419  -4.852  0.00  0.00    +0.129 A 
ATOM      4  C   UNL     1       3.075  -3.925  -6.143  0.00  0.00    +0.091 A 
ATOM      5  C   UNL     1       2.102  -4.817  -6.567  0.00  0.00    +0.124 A 
ATOM      6  C   UNL     1       1.090  -5.203  -5.701  0.00  0.00    +0.091 A 
ATOM      7  C   UNL     1       1.054  -4.700  -4.409  0.00  0.00    +0.129 A 
BRANCH   7   8
ATOM      8  O   UNL     1       0.065  -5.082  -3.559  0.00  0.00    -0.506 OA
ATOM      9  H   UNL     1      -0.802  -4.713  -3.773  0.00  0.00    +0.292 HD
ENDBRANCH   7   8
BRANCH   5  10
ATOM     10  O   UNL     1       2.139  -5.312  -7.832  0.00  0.00    -0.507 OA
ATOM     11  H   UNL     1       2.647  -6.130  -7.919  0.00  0.00    +0.292 HD
ENDBRANCH   5  10
BRANCH   3  12
ATOM     12  O   UNL     1       3.991  -2.545  -4.436  0.00  0.00    -0.506 OA
ATOM     13  H   UNL     1       4.795  -2.969  -4.106  0.00  0.00    +0.292 HD
ENDBRANCH   3  12
ENDBRANCH   1   2
BRANCH   1  14
ATOM     14  C   UNL     1       1.432  -1.852  -2.610  0.00  0.00    +0.239 C 
ATOM     15  O   UNL     1       0.438  -1.578  -1.972  0.00  0.00    -0.273 OA
ATOM     16  N   UNL     1       2.046  -0.901  -3.343  0.00  0.00    -0.308 N 
ATOM     17  H   UNL     1       2.832  -1.123  -3.865  0.00  0.00    +0.149 HD
BRANCH  16  18
ATOM     18  C   UNL     1       1.524   0.468  -3.350  0.00  0.00    +0.030 C 
ATOM     19  C   UNL     1       0.232   0.517  -4.168  0.00  0.00    +0.031 C 
ATOM     20  C   UNL     1       1.236   0.912  -1.915  0.00  0.00    +0.031 C 
BRANCH  18  21
ATOM     21  C   UNL     1       2.560   1.405  -3.975  0.00  0.00    +0.031 C 
BRANCH  21  22
ATOM     22  C   UNL     1       3.682   1.668  -2.970  0.00  0.00    -0.036 C 
ATOM     23  C   UNL     1       4.285   0.337  -2.518  0.00  0.00    +0.010 C 
ATOM     24  C   UNL     1       4.767   2.522  -3.628  0.00  0.00    +0.010 C 
ATOM     25  C   UNL     1       3.116   2.409  -1.756  0.00  0.00    +0.010 C 
ENDBRANCH  21  22
ENDBRANCH  18  21
ENDBRANCH  16  18
ENDBRANCH   1  14
BRANCH   1  26
ATOM     26  N   UNL     1       1.123  -4.101  -1.753  0.00  0.00    -0.275 N 
ATOM     27  C   UNL     1      -0.214  -3.929  -1.773  0.00  0.00    +0.243 C 
ATOM     28  O   UNL     1      -0.926  -4.615  -1.065  0.00  0.00    -0.270 OA
BRANCH  27  29
ATOM     29  C   UNL     1      -0.812  -2.912  -2.652  0.00  0.00    +0.004 C 
ATOM     30  C   UNL     1      -1.808  -2.152  -2.208  0.00  0.00    +0.017 C 
ATOM     31  C   UNL     1      -0.294  -2.732  -4.056  0.00  0.00    +0.048 C 
ENDBRANCH  27  29
BRANCH  26  32
ATOM     32  C   UNL     1       1.715  -5.134  -0.900  0.00  0.00    +0.183 C 
BRANCH  32  37
ATOM     33  C   UNL     1       3.885  -3.010   3.128  0.00  0.00    +0.086 C 
ATOM     34  C   UNL     1       2.855  -3.662   2.242  0.00  0.00    +0.102 A 
ATOM     35  C   UNL     1       1.593  -3.964   2.593  0.00  0.00    +0.045 A 
ATOM     36  C   UNL     1       0.984  -4.560   1.464  0.00  0.00    +0.046 A 
ATOM     37  C   UNL     1       1.912  -4.586   0.490  0.00  0.00    +0.122 A 
ATOM     38  O   UNL     1       3.041  -4.035   0.965  0.00  0.00    -0.463 OA
ENDBRANCH  32  37
ENDBRANCH  26  32
ENDBRANCH   1  26
TORSDOF 12
