REMARK  Name = ZINC39985728
REMARK  11 active torsions:
REMARK  status: ('A' for Active; 'I' for Inactive)
REMARK    1  A    between atoms: C_1  and  C_2
REMARK    2  A    between atoms: C_7  and  C_8
REMARK    3  A    between atoms: C_8  and  C_10
REMARK    4  A    between atoms: C_8  and  O_16
REMARK    5  A    between atoms: O_16  and  C_17
REMARK    6  A    between atoms: C_17  and  C_18
REMARK    7  A    between atoms: C_18  and  C_20
REMARK    8  A    between atoms: C_18  and  O_38
REMARK    9  A    between atoms: C_20  and  N_21
REMARK   10  A    between atoms: C_24  and  C_28
REMARK   11  A    between atoms: C_24  and  C_29
REMARK                            x       y       z     vdW  Elec       q    Type
REMARK                         _______ _______ _______ _____ _____    ______ ____
ROOT
ATOM      1  C   UNL     1       2.697   0.023   5.300  0.00  0.00    +0.158 C 
ENDROOT
BRANCH   1   2
ATOM      2  O   UNL     1       1.892  -0.631   6.283  0.00  0.00    -0.388 OA
ATOM      3  H   UNL     1       1.267  -0.045   6.732  0.00  0.00    +0.210 HD
ENDBRANCH   1   2
BRANCH   1   4
ATOM      4  C   UNL     1       1.794   0.631   4.224  0.00  0.00    +0.194 C 
BRANCH   4   5
ATOM      5  O   UNL     1       1.117  -0.414   3.524  0.00  0.00    -0.365 OA
BRANCH   5   6
ATOM      6  C   UNL     1       0.243   0.049   2.492  0.00  0.00    +0.179 C 
BRANCH   6  13
ATOM      7  C   UNL     1      -0.376   0.852  -0.213  0.00  0.00    +0.044 C 
ATOM      8  C   UNL     1      -0.130  -0.600   0.104  0.00  0.00    -0.044 A 
ATOM      9  C   UNL     1      -0.195  -1.548  -0.901  0.00  0.00    +0.004 A 
ATOM     10  C   UNL     1       0.031  -2.880  -0.610  0.00  0.00    +0.000 A 
ATOM     11  C   UNL     1       0.322  -3.265   0.685  0.00  0.00    +0.000 A 
ATOM     12  C   UNL     1       0.388  -2.318   1.690  0.00  0.00    +0.007 A 
ATOM     13  C   UNL     1       0.166  -0.985   1.398  0.00  0.00    -0.012 A 
ENDBRANCH   6  13
BRANCH   6  14
ATOM     14  C   UNL     1      -1.132   0.278   3.064  0.00  0.00    -0.014 A 
ATOM     15  C   UNL     1      -1.689  -0.653   3.921  0.00  0.00    +0.006 A 
ATOM     16  C   UNL     1      -2.950  -0.442   4.445  0.00  0.00    +0.000 A 
ATOM     17  C   UNL     1      -3.655   0.700   4.113  0.00  0.00    +0.000 A 
ATOM     18  C   UNL     1      -3.098   1.631   3.257  0.00  0.00    +0.000 A 
ATOM     19  C   UNL     1      -1.835   1.423   2.736  0.00  0.00    +0.006 A 
ENDBRANCH   6  14
ENDBRANCH   5   6
ENDBRANCH   4   5
ENDBRANCH   1   4
BRANCH   1  20
ATOM     20  C   UNL     1       3.515   1.131   5.965  0.00  0.00    +0.151 C 
BRANCH  20  21
ATOM     21  N   UNL     1       4.464   0.537   6.910  0.00  0.00    -0.221 N 
ATOM     22  C   UNL     1       4.192   0.300   8.209  0.00  0.00    +0.251 C 
ATOM     23  O   UNL     1       3.155   0.529   8.793  0.00  0.00    -0.272 OA
ATOM     24  C   UNL     1       5.452  -0.314   8.786  0.00  0.00    +0.135 C 
ATOM     25  N   UNL     1       6.374  -0.356   7.638  0.00  0.00    -0.281 N 
ATOM     26  C   UNL     1       5.707   0.157   6.589  0.00  0.00    +0.310 C 
ATOM     27  O   UNL     1       6.180   0.267   5.475  0.00  0.00    -0.252 OA
ATOM     28  C   UNL     1       6.018   0.568   9.900  0.00  0.00    +0.047 C 
ATOM     29  H   UNL     1       7.285  -0.691   7.638  0.00  0.00    +0.152 HD
BRANCH  24  30
ATOM     30  C   UNL     1       5.177  -1.706   9.297  0.00  0.00    -0.012 A 
ATOM     31  C   UNL     1       3.921  -2.030   9.773  0.00  0.00    +0.010 A 
ATOM     32  C   UNL     1       3.664  -3.305  10.242  0.00  0.00    +0.050 A 
ATOM     33  C   UNL     1       4.667  -4.261  10.236  0.00  0.00    +0.166 A 
ATOM     34  C   UNL     1       5.933  -3.934   9.756  0.00  0.00    +0.167 A 
ATOM     35  C   UNL     1       6.181  -2.656   9.283  0.00  0.00    +0.055 A 
ATOM     36  O   UNL     1       6.735  -5.034   9.855  0.00  0.00    -0.453 OA
ATOM     37  C   UNL     1       6.065  -5.916  10.776  0.00  0.00    +0.466 C 
ATOM     38  O   UNL     1       4.676  -5.566  10.635  0.00  0.00    -0.453 OA
ENDBRANCH  24  30
ENDBRANCH  20  21
ENDBRANCH   1  20
TORSDOF 9
