REMARK  Name = ZINC00107294
REMARK  5 active torsions:
REMARK  status: ('A' for Active; 'I' for Inactive)
REMARK    1  A    between atoms: C_1  and  C_2
REMARK    2  A    between atoms: C_2  and  C_3
REMARK    3  A    between atoms: C_2  and  C_4
REMARK    4  A    between atoms: C_7  and  C_10
REMARK    5  A    between atoms: C_12  and  N_19
REMARK                            x       y       z     vdW  Elec       q    Type
REMARK                         _______ _______ _______ _____ _____    ______ ____
ROOT
ATOM      1  C   UNL     1      -5.419  -2.005   0.043  0.00  0.00    +0.132 C 
ATOM      2  C   UNL     1      -5.420  -3.449   0.545  0.00  0.00    +0.195 C 
ATOM      3  C   UNL     1      -6.821  -4.039   0.340  0.00  0.00    +0.043 C 
ATOM      4  C   UNL     1      -7.077  -4.168  -1.163  0.00  0.00    +0.098 C 
ATOM      5  C   UNL     1      -6.731  -2.880  -1.853  0.00  0.00    +0.214 C 
ATOM      6  O   UNL     1      -7.168  -2.690  -2.968  0.00  0.00    -0.276 OA
ATOM      7  N   UNL     1      -5.969  -1.936  -1.305  0.00  0.00    -0.306 N 
ATOM      8  H   UNL     1      -5.769  -1.151  -1.838  0.00  0.00    +0.149 HD
ENDROOT
BRANCH   1  12
ATOM      9  C   UNL     1      -1.412  -0.526   0.013  0.00  0.00    -0.045 A 
ATOM     10  C   UNL     1      -2.259  -0.204   1.056  0.00  0.00    +0.004 A 
ATOM     11  C   UNL     1      -3.556  -0.683   1.066  0.00  0.00    +0.006 A 
ATOM     12  C   UNL     1      -4.006  -1.482   0.032  0.00  0.00    -0.025 A 
ATOM     13  C   UNL     1      -3.159  -1.803  -1.012  0.00  0.00    +0.006 A 
ATOM     14  C   UNL     1      -1.863  -1.321  -1.024  0.00  0.00    +0.004 A 
BRANCH   9  16
ATOM     15  C   UNL     1      -0.019   1.526   0.010  0.00  0.00    +0.012 C 
ATOM     16  C   UNL     1       0.002  -0.004   0.002  0.00  0.00    +0.013 C 
ATOM     17  C   UNL     1       0.742  -0.511   1.242  0.00  0.00    +0.012 C 
ENDBRANCH   9  16
ENDBRANCH   1  12
BRANCH   2  18
ATOM     18  N   UNL     1      -5.075  -3.476   1.968  0.00  0.00    +0.028 N 
ATOM     19  O   UNL     1      -5.766  -2.890   2.769  0.00  0.00    -0.131 OA
ATOM     20  O   UNL     1      -4.099  -4.083   2.342  0.00  0.00    -0.131 OA
ENDBRANCH   2  18
TORSDOF 3
