REMARK  Name = ZINC02215571
REMARK  13 active torsions:
REMARK  status: ('A' for Active; 'I' for Inactive)
REMARK    1  A    between atoms: C_1  and  C_2
REMARK    2  A    between atoms: C_2  and  O_3
REMARK    3  A    between atoms: O_3  and  C_4
REMARK    4  A    between atoms: C_4  and  C_6
REMARK    5  A    between atoms: C_7  and  N_18
REMARK    6  A    between atoms: C_10  and  O_16
REMARK    7  A    between atoms: O_16  and  C_17
REMARK    8  A    between atoms: C_19  and  C_21
REMARK    9  A    between atoms: C_21  and  C_22
REMARK   10  A    between atoms: C_22  and  N_67
REMARK   11  A    between atoms: C_24  and  C_33
REMARK   12  A    between atoms: C_29  and  C_31
REMARK   13  A    between atoms: C_29  and  C_32
REMARK                            x       y       z     vdW  Elec       q    Type
REMARK                         _______ _______ _______ _____ _____    ______ ____
ROOT
ATOM      1  N   UNL     1      -1.657   2.201   6.573  0.00  0.00    -0.283 N 
ATOM      2  C   UNL     1      -2.020   2.182   7.871  0.00  0.00    +0.215 C 
ATOM      3  O   UNL     1      -1.345   1.583   8.681  0.00  0.00    -0.276 OA
ATOM      4  H   UNL     1      -2.156   2.737   5.937  0.00  0.00    +0.155 HD
ENDROOT
BRANCH   1   6
ATOM      5  C   UNL     1      -0.416   0.841   4.917  0.00  0.00    +0.147 A 
ATOM      6  C   UNL     1      -0.565   1.452   6.145  0.00  0.00    +0.073 A 
ATOM      7  C   UNL     1       0.648   1.159   6.910  0.00  0.00    +0.025 A 
ATOM      8  C   UNL     1       1.078   1.497   8.198  0.00  0.00    +0.057 A 
ATOM      9  C   UNL     1       2.307   1.057   8.645  0.00  0.00    +0.121 A 
ATOM     10  C   UNL     1       3.119   0.284   7.817  0.00  0.00    +0.047 A 
ATOM     11  C   UNL     1       2.706  -0.059   6.551  0.00  0.00    +0.030 A 
ATOM     12  C   UNL     1       1.468   0.374   6.079  0.00  0.00    +0.049 A 
ATOM     13  N   UNL     1       0.810   0.193   4.883  0.00  0.00    -0.348 N 
ATOM     14  H   UNL     1       1.153  -0.312   4.129  0.00  0.00    +0.166 HD
BRANCH   5  15
ATOM     15  C   UNL     1      -1.362   0.870   3.861  0.00  0.00    +0.358 C 
ATOM     16  O   UNL     1      -2.449   1.391   4.032  0.00  0.00    -0.243 OA
BRANCH  15  17
ATOM     17  O   UNL     1      -1.058   0.321   2.667  0.00  0.00    -0.460 OA
BRANCH  17  19
ATOM     18  C   UNL     1      -1.536  -0.284   0.376  0.00  0.00    +0.048 C 
ATOM     19  C   UNL     1      -2.058   0.386   1.649  0.00  0.00    +0.229 C 
ENDBRANCH  17  19
ENDBRANCH  15  17
ENDBRANCH   5  15
BRANCH   9  20
ATOM     20  O   UNL     1       2.730   1.383   9.895  0.00  0.00    -0.495 OA
ATOM     21  C   UNL     1       4.012   0.895  10.295  0.00  0.00    +0.277 C 
ENDBRANCH   9  20
ENDBRANCH   1   6
BRANCH   2  22
ATOM     22  C   UNL     1      -3.265   2.905   8.315  0.00  0.00    +0.077 C 
BRANCH  22  23
ATOM     23  C   UNL     1      -3.447   2.727   9.824  0.00  0.00    -0.069 C 
BRANCH  23  34
ATOM     24  C   UNL     1      -4.899   3.359  11.697  0.00  0.00    -0.072 C 
ATOM     25  C   UNL     1      -6.443   3.353  11.794  0.00  0.00    -0.048 C 
ATOM     26  C   UNL     1      -6.899   3.968  10.443  0.00  0.00    -0.011 C 
ATOM     27  C   UNL     1      -5.822   3.350   9.506  0.00  0.00    -0.068 C 
ATOM     28  C   UNL     1      -6.177   1.886   9.314  0.00  0.00    -0.009 C 
ATOM     29  C   UNL     1      -6.579   1.115  10.552  0.00  0.00    -0.036 C 
ATOM     30  C   UNL     1      -6.915   1.900  11.803  0.00  0.00    +0.011 C 
ATOM     31  C   UNL     1      -7.835   0.283  10.185  0.00  0.00    +0.011 C 
ATOM     32  C   UNL     1      -5.477   0.091  10.888  0.00  0.00    +0.011 C 
ATOM     33  C   UNL     1      -6.954   4.151  13.003  0.00  0.00    +0.009 C 
ATOM     34  N   UNL     1      -4.587   3.590  10.287  0.00  0.00    +0.382 N 
ATOM     35  H   UNL     1      -4.309   4.571  10.167  0.00  0.00    -0.081 HD
ENDBRANCH  23  34
ENDBRANCH  22  23
ENDBRANCH   2  22
TORSDOF 8
