REMARK  Name = ZINC39977053
REMARK  4 active torsions:
REMARK  status: ('A' for Active; 'I' for Inactive)
REMARK    1  A    between atoms: C_1  and  C_2
REMARK    2  A    between atoms: C_9  and  N_13
REMARK    3  A    between atoms: C_16  and  C_19
REMARK    4  A    between atoms: C_19  and  N_21
REMARK                            x       y       z     vdW  Elec       q    Type
REMARK                         _______ _______ _______ _____ _____    ______ ____
ROOT
ATOM      1  N   UNL     1       1.174   0.993   3.501  0.00  0.00    -0.283 NA
ATOM      2  C   UNL     1       1.708   2.152   2.773  0.00  0.00    +0.087 C 
ATOM      3  C   UNL     1       0.846   3.382   3.067  0.00  0.00    +0.028 C 
ATOM      4  C   UNL     1       0.852   3.655   4.573  0.00  0.00    +0.079 C 
ATOM      5  C   UNL     1       0.337   2.416   5.311  0.00  0.00    +0.028 C 
ATOM      6  C   UNL     1       1.214   1.214   4.953  0.00  0.00    +0.087 C 
ENDROOT
BRANCH   1  14
ATOM      7  C   UNL     1      -0.019   1.526   0.010  0.00  0.00    +0.052 C 
ATOM      8  C   UNL     1       0.002  -0.004   0.002  0.00  0.00    +0.189 C 
ATOM      9  N   UNL     1      -1.370  -0.542   0.094  0.00  0.00    -0.246 N 
ATOM     10  N   UNL     1      -1.423  -1.294   1.278  0.00  0.00    -0.169 NA
ATOM     11  C   UNL     1      -0.298  -1.282   1.895  0.00  0.00    +0.154 C 
ATOM     12  N   UNL     1       0.660  -0.513   1.197  0.00  0.00    -0.226 N 
ATOM     13  N   UNL     1       1.932  -0.354   1.667  0.00  0.00    -0.216 NA
ATOM     14  C   UNL     1       1.893  -0.235   3.136  0.00  0.00    +0.166 C 
ATOM     15  C   UNL     1       1.194  -1.419   3.756  0.00  0.00    +0.012 C 
ATOM     16  C   UNL     1       0.094  -1.936   3.167  0.00  0.00    +0.045 C 
ATOM     17  H   UNL     1      -2.092  -0.402  -0.538  0.00  0.00    +0.170 HD
ATOM     18  H   UNL     1       2.521  -1.122   1.382  0.00  0.00    +0.147 HD
ENDBRANCH   1  14
BRANCH   4  19
ATOM     19  C   UNL     1      -0.043   4.830   4.875  0.00  0.00    +0.242 C 
ATOM     20  O   UNL     1      -0.630   5.394   3.972  0.00  0.00    -0.273 OA
BRANCH  19  21
ATOM     21  N   UNL     1      -0.191   5.247   6.128  0.00  0.00    -0.156 NA
ATOM     22  C   UNL     1      -0.982   6.285   6.394  0.00  0.00    +0.164 A 
ATOM     23  N   UNL     1      -1.242   6.844   7.604  0.00  0.00    -0.335 N 
ATOM     24  H   UNL     1      -0.829   6.484   8.404  0.00  0.00    +0.168 HD
ATOM     25  C   UNL     1      -2.097   7.926   7.691  0.00  0.00    +0.055 A 
ATOM     26  C   UNL     1      -2.499   8.648   8.823  0.00  0.00    +0.027 A 
ATOM     27  C   UNL     1      -3.368   9.708   8.706  0.00  0.00    +0.002 A 
ATOM     28  C   UNL     1      -3.868  10.092   7.474  0.00  0.00    +0.001 A 
ATOM     29  C   UNL     1      -3.486   9.396   6.340  0.00  0.00    +0.017 A 
ATOM     30  C   UNL     1      -2.618   8.337   6.455  0.00  0.00    +0.039 A 
ATOM     31  S   UNL     1      -1.879   7.203   5.309  0.00  0.00    -0.052 S 
ENDBRANCH  19  21
ENDBRANCH   4  19
TORSDOF 3
