REMARK  Name = ZINC20663242
REMARK  6 active torsions:
REMARK  status: ('A' for Active; 'I' for Inactive)
REMARK    1  A    between atoms: C_5  and  C_7
REMARK    2  A    between atoms: C_7  and  C_8
REMARK    3  A    between atoms: C_8  and  N_9
REMARK    4  A    between atoms: C_10  and  C_12
REMARK    5  A    between atoms: C_15  and  N_21
REMARK    6  A    between atoms: C_16  and  N_18
REMARK                            x       y       z     vdW  Elec       q    Type
REMARK                         _______ _______ _______ _____ _____    ______ ____
ROOT
ATOM      1  C   UNL     1      -3.706   1.919  -0.074  0.00  0.00    +0.039 A 
ATOM      2  C   UNL     1      -3.724   3.298   0.156  0.00  0.00    +0.015 A 
ATOM      3  C   UNL     1      -2.541   3.993   0.258  0.00  0.00    +0.026 A 
ATOM      4  C   UNL     1      -1.326   3.323   0.137  0.00  0.00    +0.060 A 
ATOM      5  C   UNL     1      -1.304   1.951  -0.097  0.00  0.00    +0.148 A 
ATOM      6  C   UNL     1      -2.484   1.250  -0.200  0.00  0.00    +0.047 A 
ENDROOT
BRANCH   4   7
ATOM      7  N   UNL     1      -0.132   4.027   0.246  0.00  0.00    -0.327 N 
ATOM      8  C   UNL     1      -0.043   5.072  -0.779  0.00  0.00    +0.110 C 
ATOM      9  C   UNL     1       1.289   5.803  -0.700  0.00  0.00    +0.027 C 
ATOM     10  C   UNL     1       1.510   6.380   0.714  0.00  0.00    +0.018 C 
ATOM     11  C   UNL     1       1.433   5.204   1.694  0.00  0.00    +0.053 C 
ATOM     12  C   UNL     1       0.025   4.592   1.595  0.00  0.00    +0.114 C 
ATOM     13  C   UNL     1       2.423   4.137   1.285  0.00  0.00    +0.027 A 
ATOM     14  C   UNL     1       2.944   3.354   2.267  0.00  0.00    +0.022 A 
ATOM     15  C   UNL     1       3.814   2.304   1.951  0.00  0.00    +0.007 A 
ATOM     16  C   UNL     1       4.110   2.064   0.641  0.00  0.00    +0.070 A 
ATOM     17  C   UNL     1       3.553   2.889  -0.346  0.00  0.00    +0.251 A 
ATOM     18  O   UNL     1       3.757   2.643  -1.524  0.00  0.00    -0.268 OA
ATOM     19  N   UNL     1       2.789   3.956  -0.005  0.00  0.00    -0.312 N 
ATOM     20  C   UNL     1       2.452   4.898  -1.073  0.00  0.00    +0.130 C 
ENDBRANCH   4   7
BRANCH   1  22
ATOM     21  N   UNL     1      -6.149   1.816  -0.062  0.00  0.00    -0.311 N 
ATOM     22  C   UNL     1      -4.972   1.170  -0.184  0.00  0.00    +0.244 C 
ATOM     23  O   UNL     1      -4.955  -0.029  -0.384  0.00  0.00    -0.270 OA
ATOM     24  H   UNL     1      -6.165   2.901   0.119  0.00  0.00    +0.149 HD
BRANCH  21  25
ATOM     25  C   UNL     1      -7.407   1.073  -0.171  0.00  0.00    +0.109 C 
BRANCH  25  26
ATOM     26  C   UNL     1      -8.584   2.035   0.004  0.00  0.00    +0.055 C 
BRANCH  26  31
ATOM     27  C   UNL     1     -11.727   0.505  -1.424  0.00  0.00    +0.000 A 
ATOM     28  C   UNL     1     -12.253  -0.131  -0.315  0.00  0.00    +0.001 A 
ATOM     29  C   UNL     1     -11.593  -0.066   0.898  0.00  0.00    +0.020 A 
ATOM     30  C   UNL     1     -10.405   0.635   1.001  0.00  0.00    +0.044 A 
ATOM     31  C   UNL     1      -9.878   1.270  -0.109  0.00  0.00    -0.028 A 
ATOM     32  C   UNL     1     -10.542   1.209  -1.320  0.00  0.00    +0.005 A 
ATOM     33 CL   UNL     1      -9.575   0.717   2.524  0.00  0.00    -0.083 Cl
ENDBRANCH  26  31
ENDBRANCH  25  26
ENDBRANCH  21  25
ENDBRANCH   1  22
BRANCH   5  34
ATOM     34  N   UNL     1      -0.011   1.244  -0.231  0.00  0.00    +0.058 N 
ATOM     35  O   UNL     1       0.013   0.031  -0.330  0.00  0.00    -0.126 OA
ATOM     36  O   UNL     1       1.030   1.877  -0.246  0.00  0.00    -0.126 OA
ENDBRANCH   5  34
TORSDOF 6
