REMARK  Name = ZINC66940734
REMARK  11 active torsions:
REMARK  status: ('A' for Active; 'I' for Inactive)
REMARK    1  A    between atoms: C_1  and  C_2
REMARK    2  A    between atoms: C_2  and  N_3
REMARK    3  A    between atoms: N_3  and  C_4
REMARK    4  A    between atoms: C_4  and  C_5
REMARK    5  A    between atoms: C_6  and  C_8
REMARK    6  A    between atoms: C_8  and  C_10
REMARK    7  A    between atoms: C_8  and  N_11
REMARK    8  A    between atoms: N_11  and  C_12
REMARK    9  A    between atoms: C_15  and  N_18
REMARK   10  A    between atoms: C_19  and  C_21
REMARK   11  A    between atoms: C_21  and  N_22
REMARK                            x       y       z     vdW  Elec       q    Type
REMARK                         _______ _______ _______ _____ _____    ______ ____
ROOT
ATOM      1  C   UNL     1      -0.530  -3.043   4.312  0.00  0.00    +0.028 A 
ATOM      2  C   UNL     1       0.794  -2.750   4.013  0.00  0.00    +0.025 A 
ATOM      3  C   UNL     1       1.813  -3.374   4.704  0.00  0.00    +0.025 A 
ATOM      4  C   UNL     1       1.514  -4.296   5.699  0.00  0.00    +0.033 A 
ATOM      5  C   UNL     1       0.190  -4.590   5.998  0.00  0.00    +0.025 A 
ATOM      6  C   UNL     1      -0.829  -3.960   5.311  0.00  0.00    +0.025 A 
ENDROOT
BRANCH   4   7
ATOM      7  N   UNL     1       2.548  -4.930   6.400  0.00  0.00    -0.287 N 
ATOM      8  C   UNL     1       3.699  -4.273   6.644  0.00  0.00    +0.201 C 
ATOM      9  O   UNL     1       3.803  -3.101   6.346  0.00  0.00    -0.278 OA
ATOM     10  H   UNL     1       2.435  -5.842   6.711  0.00  0.00    +0.155 HD
BRANCH   8  11
ATOM     11  C   UNL     1       4.857  -4.993   7.285  0.00  0.00    +0.019 C 
BRANCH  11  12
ATOM     12  N   UNL     1       5.985  -4.065   7.442  0.00  0.00    +0.385 N 
ATOM     13  C   UNL     1       5.611  -2.996   8.379  0.00  0.00    -0.078 C 
ATOM     14  C   UNL     1       6.854  -2.246   8.852  0.00  0.00    -0.019 C 
ATOM     15  C   UNL     1       7.324  -1.290   7.749  0.00  0.00    -0.002 C 
ATOM     16  C   UNL     1       7.998  -2.109   6.647  0.00  0.00    -0.000 C 
ATOM     17  C   UNL     1       8.911  -3.155   7.288  0.00  0.00    -0.002 C 
ATOM     18  C   UNL     1       8.351  -4.552   7.033  0.00  0.00    -0.019 C 
ATOM     19  C   UNL     1       7.151  -4.796   7.956  0.00  0.00    -0.078 C 
ATOM     20  H   UNL     1       6.212  -3.659   6.547  0.00  0.00    -0.081 HD
ENDBRANCH  11  12
ENDBRANCH   8  11
ENDBRANCH   4   7
BRANCH   1  21
ATOM     21  N   UNL     1      -1.562  -2.410   3.611  0.00  0.00    -0.333 N 
ATOM     22  H   UNL     1      -2.487  -2.612   3.823  0.00  0.00    +0.147 HD
BRANCH  21  23
ATOM     23  C   UNL     1      -1.247  -1.443   2.558  0.00  0.00    +0.154 C 
ATOM     24  C   UNL     1      -1.023  -0.064   3.182  0.00  0.00    +0.038 C 
BRANCH  23  26
ATOM     25  N   UNL     1      -2.164  -1.022   0.299  0.00  0.00    -0.300 N 
ATOM     26  C   UNL     1      -2.392  -1.372   1.581  0.00  0.00    +0.236 C 
ATOM     27  O   UNL     1      -3.519  -1.631   1.947  0.00  0.00    -0.274 OA
BRANCH  25  29
ATOM     28  C   UNL     1      -3.364  -2.491  -1.244  0.00  0.00    +0.024 C 
ATOM     29  C   UNL     1      -3.254  -1.074  -0.679  0.00  0.00    +0.104 C 
ENDBRANCH  25  29
BRANCH  25  30
ATOM     30  C   UNL     1      -0.828  -0.589  -0.115  0.00  0.00    +0.104 C 
ATOM     31  C   UNL     1      -0.761   0.940  -0.107  0.00  0.00    +0.024 C 
ENDBRANCH  25  30
ENDBRANCH  23  26
ENDBRANCH  21  23
ENDBRANCH   1  21
TORSDOF 8
