REMARK  Name = ZINC08991915
REMARK  9 active torsions:
REMARK  status: ('A' for Active; 'I' for Inactive)
REMARK    1  A    between atoms: C_1  and  C_2
REMARK    2  A    between atoms: C_5  and  S_8
REMARK    3  A    between atoms: S_8  and  N_11
REMARK    4  A    between atoms: N_11  and  C_12
REMARK    5  A    between atoms: C_12  and  C_13
REMARK    6  A    between atoms: C_13  and  C_14
REMARK    7  A    between atoms: N_16  and  N_17
REMARK    8  A    between atoms: C_29  and  C_32
REMARK    9  A    between atoms: C_29  and  C_33
REMARK                            x       y       z     vdW  Elec       q    Type
REMARK                         _______ _______ _______ _____ _____    ______ ____
ROOT
ATOM      1  N   UNL     1       0.132   0.981  -4.842  0.00  0.00    -0.142 NA
ATOM      2  C   UNL     1      -0.331   1.297  -6.024  0.00  0.00    +0.239 A 
ATOM      3  C   UNL     1       0.345   0.839  -7.251  0.00  0.00    +0.020 A 
ATOM      4  C   UNL     1       0.198   1.580  -8.363  0.00  0.00    -0.028 A 
ATOM      5  C   UNL     1      -0.611   2.809  -8.264  0.00  0.00    +0.021 A 
ATOM      6  C   UNL     1      -0.576   3.772  -9.272  0.00  0.00    +0.019 A 
ATOM      7  C   UNL     1      -1.340   4.917  -9.160  0.00  0.00    -0.005 A 
ATOM      8  C   UNL     1      -2.146   5.111  -8.047  0.00  0.00    +0.128 A 
ATOM      9  C   UNL     1      -2.185   4.156  -7.035  0.00  0.00    +0.092 A 
ATOM     10  C   UNL     1      -1.423   3.007  -7.135  0.00  0.00    +0.141 A 
ATOM     11  O   UNL     1      -1.449   2.065  -6.158  0.00  0.00    -0.436 OA
ATOM     12  O   UNL     1      -2.916   6.222  -7.909  0.00  0.00    -0.486 OA
ATOM     13  C   UNL     1      -2.608   7.353  -8.725  0.00  0.00    +0.105 C 
ATOM     14  C   UNL     1      -2.475   6.879 -10.178  0.00  0.00    +0.052 C 
ATOM     15  C   UNL     1      -1.271   5.938 -10.268  0.00  0.00    +0.043 C 
ATOM     16  C   UNL     1      -3.733   8.385  -8.621  0.00  0.00    +0.055 C 
ATOM     17  C   UNL     1      -1.290   7.979  -8.265  0.00  0.00    +0.055 C 
ATOM     18  C   UNL     1       0.814   1.211  -9.682  0.00  0.00    +0.036 C 
ATOM     19  C   UNL     1       1.933   0.189  -9.484  0.00  0.00    +0.005 C 
ATOM     20  C   UNL     1       1.393  -0.959  -8.621  0.00  0.00    +0.005 C 
ATOM     21  C   UNL     1       1.152  -0.429  -7.208  0.00  0.00    +0.041 C 
ENDROOT
BRANCH   1  24
ATOM     22  C   UNL     1      -0.047   1.107  -2.471  0.00  0.00    +0.234 C 
ATOM     23  O   UNL     1       0.950   0.422  -2.373  0.00  0.00    -0.274 OA
ATOM     24  N   UNL     1      -0.524   1.433  -3.689  0.00  0.00    -0.204 N 
ATOM     25  H   UNL     1      -1.321   1.980  -3.768  0.00  0.00    +0.177 HD
BRANCH  22  26
ATOM     26  C   UNL     1      -0.753   1.593  -1.232  0.00  0.00    +0.114 C 
BRANCH  26  27
ATOM     27  C   UNL     1      -0.013   1.086   0.008  0.00  0.00    +0.115 C 
BRANCH  27  28
ATOM     28  N   UNL     1      -0.698   1.558   1.213  0.00  0.00    -0.189 NA
ATOM     29  H   UNL     1      -1.353   2.272   1.151  0.00  0.00    +0.148 HD
BRANCH  28  30
ATOM     30  S   UNL     1      -0.356   0.875   2.682  0.00  0.00    +0.058 S 
ATOM     31  O   UNL     1      -1.151   1.557   3.643  0.00  0.00    -0.153 OA
ATOM     32  O   UNL     1      -0.422  -0.533   2.500  0.00  0.00    -0.153 OA
BRANCH  30  37
ATOM     33  C   UNL     1       5.394   2.181   3.961  0.00  0.00    +0.044 C 
ATOM     34  C   UNL     1       3.958   1.854   3.643  0.00  0.00    -0.050 A 
ATOM     35  C   UNL     1       2.949   2.709   4.045  0.00  0.00    +0.005 A 
ATOM     36  C   UNL     1       1.631   2.410   3.752  0.00  0.00    +0.029 A 
ATOM     37  C   UNL     1       1.323   1.256   3.056  0.00  0.00    +0.105 A 
ATOM     38  C   UNL     1       2.331   0.398   2.658  0.00  0.00    +0.029 A 
ATOM     39  C   UNL     1       3.649   0.700   2.948  0.00  0.00    +0.005 A 
ENDBRANCH  30  37
ENDBRANCH  28  30
ENDBRANCH  27  28
ENDBRANCH  26  27
ENDBRANCH  22  26
ENDBRANCH   1  24
TORSDOF 6
