REMARK  Name = ZINC39737804
REMARK  6 active torsions:
REMARK  status: ('A' for Active; 'I' for Inactive)
REMARK    1  A    between atoms: C_1  and  C_2
REMARK    2  A    between atoms: C_2  and  C_4
REMARK    3  A    between atoms: C_2  and  S_15
REMARK    4  A    between atoms: C_4  and  C_6
REMARK    5  A    between atoms: S_15  and  C_16
REMARK    6  A    between atoms: N_21  and  C_22
REMARK                            x       y       z     vdW  Elec       q    Type
REMARK                         _______ _______ _______ _____ _____    ______ ____
ROOT
ATOM      1  C   UNL     1       2.487  -0.049   1.173  0.00  0.00    +0.241 C 
ATOM      2  N   UNL     1       3.179  -0.510  -0.043  0.00  0.00    -0.259 N 
ATOM      3  N   UNL     1       3.536   0.645  -0.750  0.00  0.00    -0.283 N 
ATOM      4  C   UNL     1       3.158   1.712  -0.133  0.00  0.00    +0.183 C 
ATOM      5  N   UNL     1       2.506   1.419   1.059  0.00  0.00    -0.244 N 
ATOM      6  N   UNL     1       3.379   3.001  -0.601  0.00  0.00    -0.299 N 
ATOM      7  C   UNL     1       4.440   3.844  -0.028  0.00  0.00    +0.136 C 
ATOM      8  C   UNL     1       5.287   4.403  -1.176  0.00  0.00    +0.179 C 
ATOM      9  O   UNL     1       4.428   5.027  -2.134  0.00  0.00    -0.377 OA
ATOM     10  C   UNL     1       3.498   4.136  -2.754  0.00  0.00    +0.179 C 
ATOM     11  C   UNL     1       2.563   3.561  -1.690  0.00  0.00    +0.136 C 
ATOM     12  H   UNL     1       3.352  -1.429  -0.301  0.00  0.00    +0.169 HD
ATOM     13  H   UNL     1       4.008   0.642  -1.597  0.00  0.00    +0.187 HD
ENDROOT
BRANCH   5  14
ATOM     14  C   UNL     1       1.971   2.335   1.970  0.00  0.00    +0.039 A 
ATOM     15  C   UNL     1       1.466   1.893   3.186  0.00  0.00    +0.023 A 
ATOM     16  C   UNL     1       0.939   2.800   4.084  0.00  0.00    +0.002 A 
ATOM     17  C   UNL     1       0.913   4.148   3.773  0.00  0.00    +0.000 A 
ATOM     18  C   UNL     1       1.415   4.591   2.563  0.00  0.00    +0.002 A 
ATOM     19  C   UNL     1       1.949   3.689   1.663  0.00  0.00    +0.023 A 
ENDBRANCH   5  14
BRANCH   1  20
ATOM     20  S   UNL     1       0.780  -0.663   1.206  0.00  0.00    -0.107 S 
BRANCH  20  22
ATOM     21  C   UNL     1       0.012   1.476  -0.316  0.00  0.00    +0.027 C 
ATOM     22  C   UNL     1       0.064  -0.053  -0.345  0.00  0.00    +0.117 C 
BRANCH  22  23
ATOM     23  C   UNL     1      -1.331  -0.601  -0.504  0.00  0.00    +0.174 C 
ATOM     24  O   UNL     1      -1.969  -0.930   0.476  0.00  0.00    -0.291 OA
BRANCH  23  25
ATOM     25  C   UNL     1      -1.895  -0.730  -1.790  0.00  0.00    +0.024 C 
ATOM     26  C   UNL     1      -3.155  -1.206  -2.107  0.00  0.00    +0.006 A 
ATOM     27  C   UNL     1      -4.228  -1.688  -1.320  0.00  0.00    +0.010 A 
ATOM     28  C   UNL     1      -5.374  -2.098  -1.908  0.00  0.00    +0.001 A 
ATOM     29  C   UNL     1      -5.559  -2.070  -3.299  0.00  0.00    +0.002 A 
ATOM     30  C   UNL     1      -4.598  -1.629  -4.139  0.00  0.00    +0.026 A 
ATOM     31  C   UNL     1      -3.318  -1.162  -3.581  0.00  0.00    +0.043 A 
ATOM     32  N   UNL     1      -2.241  -0.695  -4.145  0.00  0.00    -0.380 N 
ATOM     33  C   UNL     1      -1.252  -0.373  -3.112  0.00  0.00    +0.152 C 
ATOM     34  H   UNL     1      -2.115  -0.576  -5.100  0.00  0.00    +0.160 HD
ENDBRANCH  23  25
ENDBRANCH  22  23
ENDBRANCH  20  22
ENDBRANCH   1  20
TORSDOF 5
