REMARK  Name = ZINC12157143
REMARK  10 active torsions:
REMARK  status: ('A' for Active; 'I' for Inactive)
REMARK    1  A    between atoms: C_1  and  C_2
REMARK    2  A    between atoms: C_2  and  C_4
REMARK    3  A    between atoms: C_2  and  N_71
REMARK    4  A    between atoms: C_9  and  N_71
REMARK    5  A    between atoms: C_10  and  C_11
REMARK    6  A    between atoms: C_10  and  N_71
REMARK    7  A    between atoms: C_15  and  O_17
REMARK    8  A    between atoms: O_17  and  C_18
REMARK    9  A    between atoms: C_24  and  C_26
REMARK   10  A    between atoms: C_30  and  N_32
REMARK                            x       y       z     vdW  Elec       q    Type
REMARK                         _______ _______ _______ _____ _____    ______ ____
ROOT
ATOM      1  C   UNL     1      -2.773  -3.213   1.153  0.00  0.00    +0.176 C 
ATOM      2  C   UNL     1      -3.970  -2.259   1.178  0.00  0.00    +0.063 C 
ATOM      3  C   UNL     1      -3.829  -1.240   0.043  0.00  0.00    +0.111 C 
ATOM      4  N   UNL     1      -2.525  -0.575   0.164  0.00  0.00    -0.297 N 
ATOM      5  C   UNL     1      -1.313  -1.403   0.234  0.00  0.00    +0.111 C 
ATOM      6  C   UNL     1      -1.482  -2.420   1.373  0.00  0.00    +0.063 C 
ATOM      7  C   UNL     1      -2.441   0.770   0.204  0.00  0.00    +0.247 C 
ATOM      8  O   UNL     1      -3.454   1.441   0.235  0.00  0.00    -0.270 OA
ENDROOT
BRANCH   7   9
ATOM      9  C   UNL     1      -1.117   1.428   0.209  0.00  0.00    +0.039 A 
ATOM     10  C   UNL     1      -0.101   0.965  -0.629  0.00  0.00    +0.013 A 
ATOM     11  C   UNL     1       1.132   1.585  -0.626  0.00  0.00    +0.003 A 
ATOM     12  C   UNL     1       1.368   2.662   0.209  0.00  0.00    +0.023 A 
ATOM     13  C   UNL     1       0.365   3.127   1.050  0.00  0.00    +0.039 A 
ATOM     14  C   UNL     1      -0.877   2.511   1.055  0.00  0.00    +0.036 A 
BRANCH  13  15
ATOM     15  N   UNL     1       0.609   4.217   1.894  0.00  0.00    -0.254 N 
ATOM     16  C   UNL     1       1.908   4.881   2.074  0.00  0.00    +0.134 C 
ATOM     17  C   UNL     1       1.613   5.999   3.093  0.00  0.00    +0.125 C 
ATOM     18  N   UNL     1       0.181   5.840   3.386  0.00  0.00    -0.297 N 
ATOM     19  C   UNL     1      -0.303   4.817   2.670  0.00  0.00    +0.307 C 
ATOM     20  O   UNL     1      -1.466   4.465   2.720  0.00  0.00    -0.252 OA
ATOM     21  H   UNL     1      -0.331   6.389   4.000  0.00  0.00    +0.150 HD
ENDBRANCH  13  15
ENDBRANCH   7   9
BRANCH   1  22
ATOM     22  O   UNL     1      -2.917  -4.185   2.190  0.00  0.00    -0.489 OA
BRANCH  22  27
ATOM     23  C   UNL     1      -2.007  -7.676   2.658  0.00  0.00    -0.060 A 
ATOM     24  C   UNL     1      -1.251  -7.899   1.521  0.00  0.00    +0.002 A 
ATOM     25  C   UNL     1      -1.053  -6.880   0.609  0.00  0.00    +0.004 A 
ATOM     26  C   UNL     1      -1.614  -5.636   0.828  0.00  0.00    +0.045 A 
ATOM     27  C   UNL     1      -2.368  -5.409   1.970  0.00  0.00    +0.121 A 
ATOM     28  C   UNL     1      -2.566  -6.434   2.884  0.00  0.00    +0.047 A 
BRANCH  23  29
ATOM     29  C   UNL     1      -2.221  -8.790   3.650  0.00  0.00    -0.042 C 
BRANCH  29  31
ATOM     30  C   UNL     1      -3.256 -10.241   2.011  0.00  0.00    -0.095 C 
ATOM     31  N   UNL     1      -3.453  -9.522   3.287  0.00  0.00    +0.387 N 
ATOM     32  H   UNL     1      -4.220  -8.848   3.175  0.00  0.00    -0.081 HD
BRANCH  31  34
ATOM     33  C   UNL     1      -4.077  -9.702   5.647  0.00  0.00    -0.005 C 
ATOM     34  C   UNL     1      -3.807 -10.479   4.356  0.00  0.00    -0.004 C 
BRANCH  34  35
ATOM     35  C   UNL     1      -5.050 -11.229   3.952  0.00  0.00    +0.091 A 
ATOM     36  C   UNL     1      -5.282 -12.537   4.162  0.00  0.00    +0.043 A 
ATOM     37  C   UNL     1      -6.561 -12.816   3.628  0.00  0.00    +0.041 A 
ATOM     38  C   UNL     1      -7.030 -11.664   3.117  0.00  0.00    +0.195 A 
ATOM     39  O   UNL     1      -6.110 -10.706   3.316  0.00  0.00    -0.469 OA
ENDBRANCH  34  35
ENDBRANCH  31  34
ENDBRANCH  29  31
ENDBRANCH  23  29
ENDBRANCH  22  27
ENDBRANCH   1  22
TORSDOF 8
