REMARK  Name = ZINC39486961
REMARK  10 active torsions:
REMARK  status: ('A' for Active; 'I' for Inactive)
REMARK    1  A    between atoms: C_1  and  C_2
REMARK    2  A    between atoms: C_2  and  C_3
REMARK    3  A    between atoms: C_2  and  S_4
REMARK    4  A    between atoms: S_4  and  N_7
REMARK    5  A    between atoms: C_9  and  C_27
REMARK    6  A    between atoms: C_9  and  C_28
REMARK    7  A    between atoms: N_10  and  C_13
REMARK    8  A    between atoms: C_13  and  C_14
REMARK    9  A    between atoms: C_14  and  C_21
REMARK   10  A    between atoms: N_17  and  O_20
REMARK                            x       y       z     vdW  Elec       q    Type
REMARK                         _______ _______ _______ _____ _____    ______ ____
ROOT
ATOM      1  C   UNL     1      -3.608  -0.210  -4.436  0.00  0.00    +0.117 C 
ENDROOT
BRANCH   1   5
ATOM      2  N   UNL     1      -5.443   2.824  -5.295  0.00  0.00    -0.158 N 
ATOM      3  C   UNL     1      -6.137   1.964  -6.265  0.00  0.00    +0.161 C 
ATOM      4  C   UNL     1      -5.489   0.580  -6.062  0.00  0.00    +0.051 C 
ATOM      5  N   UNL     1      -4.499   0.808  -4.999  0.00  0.00    -0.277 N 
ATOM      6  C   UNL     1      -4.536   2.095  -4.631  0.00  0.00    +0.324 C 
ATOM      7  O   UNL     1      -3.815   2.560  -3.769  0.00  0.00    -0.251 OA
ATOM      8  C   UNL     1      -6.534  -0.442  -5.612  0.00  0.00    +0.033 C 
ATOM      9  C   UNL     1      -4.800   0.116  -7.347  0.00  0.00    +0.033 C 
BRANCH   2  10
ATOM     10  S   UNL     1      -5.733   4.438  -5.065  0.00  0.00    +0.051 S 
ATOM     11  O   UNL     1      -5.444   4.666  -3.692  0.00  0.00    -0.155 OA
ATOM     12  O   UNL     1      -7.042   4.648  -5.574  0.00  0.00    -0.155 OA
BRANCH  10  14
ATOM     13  C   UNL     1      -4.631   4.773  -7.545  0.00  0.00    +0.033 C 
ATOM     14  C   UNL     1      -4.513   5.283  -6.108  0.00  0.00    +0.145 C 
ATOM     15  C   UNL     1      -4.775   6.791  -6.079  0.00  0.00    +0.033 C 
ENDBRANCH  10  14
ENDBRANCH   2  10
ENDBRANCH   1   5
BRANCH   1  16
ATOM     16  C   UNL     1      -2.184   0.020  -4.946  0.00  0.00    -0.008 C 
ATOM     17  C   UNL     1      -1.237  -0.990  -4.292  0.00  0.00    +0.026 C 
ATOM     18  C   UNL     1      -1.230  -0.770  -2.777  0.00  0.00    +0.115 C 
ATOM     19  N   UNL     1      -0.792   0.601  -2.483  0.00  0.00    -0.191 NA
ATOM     20  C   UNL     1      -1.713   1.588  -3.061  0.00  0.00    +0.115 C 
ATOM     21  C   UNL     1      -1.734   1.438  -4.584  0.00  0.00    +0.026 C 
BRANCH  16  22
ATOM     22  C   UNL     1      -2.150  -0.155  -6.465  0.00  0.00    -0.003 C 
ATOM     23  C   UNL     1      -2.408  -1.622  -6.815  0.00  0.00    +0.004 C 
ATOM     24  C   UNL     1      -2.375  -1.797  -8.335  0.00  0.00    +0.000 C 
ATOM     25  C   UNL     1      -1.002  -1.380  -8.866  0.00  0.00    +0.000 C 
ATOM     26  C   UNL     1      -0.744   0.087  -8.516  0.00  0.00    +0.000 C 
ATOM     27  C   UNL     1      -0.778   0.262  -6.996  0.00  0.00    +0.004 C 
ENDBRANCH  16  22
BRANCH  19  28
ATOM     28  O   UNL     1      -0.641   0.805  -1.042  0.00  0.00    -0.312 OA
ATOM     29  H   UNL     1      -0.353   1.696  -0.799  0.00  0.00    +0.237 HD
ENDBRANCH  19  28
ENDBRANCH   1  16
TORSDOF 6
