REMARK  Name = ZINC39586150
REMARK  4 active torsions:
REMARK  status: ('A' for Active; 'I' for Inactive)
REMARK    1  A    between atoms: C_3  and  C_6
REMARK    2  A    between atoms: C_10  and  S_12
REMARK    3  A    between atoms: S_12  and  C_13
REMARK    4  A    between atoms: C_13  and  C_14
REMARK                            x       y       z     vdW  Elec       q    Type
REMARK                         _______ _______ _______ _____ _____    ______ ____
ROOT
ATOM      1  S   UNL     1       6.383  -2.125  -0.082  0.00  0.00    -0.078 S 
ENDROOT
BRANCH   1   6
ATOM      2  C   UNL     1       3.569   0.619  -0.029  0.00  0.00    +0.201 A 
ATOM      3  N   UNL     1       4.264   1.757  -0.025  0.00  0.00    -0.192 NA
ATOM      4  C   UNL     1       5.592   1.724  -0.037  0.00  0.00    +0.217 A 
ATOM      5  N   UNL     1       6.229   0.556  -0.055  0.00  0.00    -0.189 NA
ATOM      6  C   UNL     1       5.537  -0.580  -0.059  0.00  0.00    +0.194 A 
ATOM      7  N   UNL     1       4.208  -0.550  -0.042  0.00  0.00    -0.199 NA
ATOM      8  N   UNL     1       6.312   2.901  -0.033  0.00  0.00    -0.327 N 
ATOM      9  H   UNL     1       5.848   3.753  -0.021  0.00  0.00    +0.145 HD
ATOM     10  H   UNL     1       7.282   2.877  -0.042  0.00  0.00    +0.145 HD
BRANCH   2  13
ATOM     11  C   UNL     1      -0.016   1.345   0.009  0.00  0.00    +0.042 A 
ATOM     12  C   UNL     1       1.323   1.776  -0.001  0.00  0.00    +0.053 A 
ATOM     13  C   UNL     1       2.095   0.655  -0.014  0.00  0.00    +0.172 A 
ATOM     14  O   UNL     1       1.278  -0.417  -0.012  0.00  0.00    -0.460 OA
ATOM     15  C   UNL     1       0.002  -0.004   0.002  0.00  0.00    +0.196 A 
ENDBRANCH   2  13
ENDBRANCH   1   6
BRANCH   1  16
ATOM     16  C   UNL     1       8.138  -1.665  -0.094  0.00  0.00    +0.151 C 
BRANCH  16  17
ATOM     17  C   UNL     1       8.984  -2.912  -0.115  0.00  0.00    +0.134 C 
ATOM     18  N   UNL     1       8.377  -4.075  -0.126  0.00  0.00    -0.160 NA
ATOM     19  C   UNL     1       9.039  -5.236  -0.141  0.00  0.00    +0.271 C 
ATOM     20  O   UNL     1       8.443  -6.300  -0.155  0.00  0.00    -0.268 OA
ATOM     21  C   UNL     1      10.536  -5.189  -0.140  0.00  0.00    +0.071 C 
ATOM     22  C   UNL     1      11.396  -6.223  -0.089  0.00  0.00    -0.042 C 
ATOM     23  C   UNL     1      10.975  -7.671   0.148  0.00  0.00    +0.033 C 
ATOM     24  C   UNL     1      11.776  -8.172   1.357  0.00  0.00    +0.004 C 
ATOM     25  C   UNL     1      13.269  -7.934   1.137  0.00  0.00    +0.002 C 
ATOM     26  C   UNL     1      13.571  -6.436   1.033  0.00  0.00    +0.019 C 
ATOM     27  C   UNL     1      12.877  -5.883  -0.214  0.00  0.00    +0.079 C 
ATOM     28  S   UNL     1      12.854  -4.052  -0.159  0.00  0.00    -0.097 S 
ATOM     29  C   UNL     1      11.094  -3.821  -0.136  0.00  0.00    +0.111 C 
ATOM     30  N   UNL     1      10.300  -2.777  -0.126  0.00  0.00    -0.227 NA
ENDBRANCH  16  17
ENDBRANCH   1  16
TORSDOF 4
