REMARK  Name = ZINC39337587
REMARK  10 active torsions:
REMARK  status: ('A' for Active; 'I' for Inactive)
REMARK    1  A    between atoms: C_1  and  C_2
REMARK    2  A    between atoms: C_5  and  S_8
REMARK    3  A    between atoms: S_8  and  N_11
REMARK    4  A    between atoms: N_11  and  C_12
REMARK    5  A    between atoms: C_15  and  N_18
REMARK    6  A    between atoms: C_19  and  N_39
REMARK    7  A    between atoms: C_21  and  C_25
REMARK    8  A    between atoms: N_27  and  C_28
REMARK    9  A    between atoms: C_28  and  C_29
REMARK   10  A    between atoms: C_29  and  C_30
REMARK                            x       y       z     vdW  Elec       q    Type
REMARK                         _______ _______ _______ _____ _____    ______ ____
ROOT
ATOM      1  N   UNL     1       4.576  -3.752   4.669  0.00  0.00    -0.266 N 
ATOM      2  C   UNL     1       5.617  -4.607   5.267  0.00  0.00    +0.060 C 
ATOM      3  C   UNL     1       6.147  -3.799   6.475  0.00  0.00    +0.160 C 
ATOM      4  N   UNL     1       5.730  -2.413   6.118  0.00  0.00    -0.229 NA
ATOM      5  N   UNL     1       4.447  -2.623   5.439  0.00  0.00    -0.176 NA
ATOM      6  H   UNL     1       5.615  -1.846   6.945  0.00  0.00    +0.143 HD
ATOM      7  H   UNL     1       3.699  -2.726   6.109  0.00  0.00    +0.164 HD
ENDROOT
BRANCH   1  11
ATOM      8  C   UNL     1       2.405  -4.609   1.214  0.00  0.00    +0.048 A 
ATOM      9  C   UNL     1       2.175  -3.425   1.903  0.00  0.00    +0.026 A 
ATOM     10  C   UNL     1       2.894  -3.142   3.047  0.00  0.00    +0.026 A 
ATOM     11  C   UNL     1       3.847  -4.040   3.509  0.00  0.00    +0.044 A 
ATOM     12  C   UNL     1       4.077  -5.223   2.820  0.00  0.00    +0.026 A 
ATOM     13  C   UNL     1       3.354  -5.509   1.679  0.00  0.00    +0.026 A 
BRANCH   8  14
ATOM     14  N   UNL     1       1.676  -4.896   0.053  0.00  0.00    -0.216 N 
ATOM     15  H   UNL     1       2.097  -4.813  -0.817  0.00  0.00    +0.174 HD
BRANCH  14  16
ATOM     16  S   UNL     1       0.096  -5.377   0.166  0.00  0.00    +0.072 S 
ATOM     17  O   UNL     1      -0.337  -5.665  -1.157  0.00  0.00    -0.150 OA
ATOM     18  O   UNL     1      -0.561  -4.426   0.992  0.00  0.00    -0.150 OA
BRANCH  16  23
ATOM     19  C   UNL     1       0.031 -10.606   3.176  0.00  0.00    +0.044 C 
ATOM     20  C   UNL     1       0.047  -9.300   2.425  0.00  0.00    -0.050 A 
ATOM     21  C   UNL     1      -0.164  -8.112   3.099  0.00  0.00    +0.005 A 
ATOM     22  C   UNL     1      -0.149  -6.914   2.409  0.00  0.00    +0.029 A 
ATOM     23  C   UNL     1       0.078  -6.904   1.045  0.00  0.00    +0.109 A 
ATOM     24  C   UNL     1       0.290  -8.092   0.371  0.00  0.00    +0.029 A 
ATOM     25  C   UNL     1       0.280  -9.290   1.062  0.00  0.00    +0.005 A 
ENDBRANCH  16  23
ENDBRANCH  14  16
ENDBRANCH   8  14
ENDBRANCH   1  11
BRANCH   3  26
ATOM     26  C   UNL     1       5.491  -4.248   7.755  0.00  0.00    +0.231 C 
ATOM     27  O   UNL     1       4.575  -3.607   8.224  0.00  0.00    -0.274 OA
ATOM     28  N   UNL     1       5.922  -5.363   8.378  0.00  0.00    -0.314 N 
ATOM     29  H   UNL     1       6.655  -5.875   8.003  0.00  0.00    +0.149 HD
BRANCH  28  30
ATOM     30  C   UNL     1       5.284  -5.800   9.622  0.00  0.00    +0.109 C 
BRANCH  30  31
ATOM     31  C   UNL     1       5.957  -7.081  10.118  0.00  0.00    +0.056 C 
BRANCH  31  32
ATOM     32  C   UNL     1       5.301  -7.530  11.398  0.00  0.00    -0.021 A 
ATOM     33  C   UNL     1       4.093  -8.350  11.517  0.00  0.00    +0.003 A 
ATOM     34  C   UNL     1       3.225  -8.938  10.595  0.00  0.00    +0.010 A 
ATOM     35  C   UNL     1       2.156  -9.665  11.038  0.00  0.00    +0.001 A 
ATOM     36  C   UNL     1       1.926  -9.824  12.397  0.00  0.00    +0.002 A 
ATOM     37  C   UNL     1       2.771  -9.253  13.324  0.00  0.00    +0.026 A 
ATOM     38  C   UNL     1       3.865  -8.509  12.896  0.00  0.00    +0.047 A 
ATOM     39  N   UNL     1       4.867  -7.832  13.554  0.00  0.00    -0.360 N 
ATOM     40  C   UNL     1       5.715  -7.260  12.646  0.00  0.00    +0.087 A 
ATOM     41  H   UNL     1       4.959  -7.772  14.518  0.00  0.00    +0.165 HD
ENDBRANCH  31  32
ENDBRANCH  30  31
ENDBRANCH  28  30
ENDBRANCH   3  26
BRANCH   2  42
ATOM     42  N   UNL     1       5.038  -5.880   5.716  0.00  0.00    +0.393 N 
ATOM     43  H   UNL     1       4.652  -6.372   4.923  0.00  0.00    -0.087 HD
ATOM     44  H   UNL     1       5.757  -6.444   6.144  0.00  0.00    -0.087 HD
ATOM     45  H   UNL     1       4.308  -5.699   6.388  0.00  0.00    -0.087 HD
ENDBRANCH   2  42
TORSDOF 9
