REMARK  Name = ZINC11859700
REMARK  3 active torsions:
REMARK  status: ('A' for Active; 'I' for Inactive)
REMARK    1  A    between atoms: C_4  and  N_33
REMARK    2  A    between atoms: C_5  and  C_7
REMARK    3  A    between atoms: C_10  and  C_12
REMARK                            x       y       z     vdW  Elec       q    Type
REMARK                         _______ _______ _______ _____ _____    ______ ____
ROOT
ATOM      1  C   UNL     1      -1.252   2.201   0.020  0.00  0.00    +0.099 C 
ATOM      2  C   UNL     1      -2.099   1.892  -1.188  0.00  0.00    +0.035 A 
ATOM      3  C   UNL     1      -3.439   1.748  -1.287  0.00  0.00    +0.087 A 
ATOM      4  N   UNL     1      -3.919   1.451  -2.541  0.00  0.00    -0.311 N 
ATOM      5  H   UNL     1      -4.872   1.327  -2.675  0.00  0.00    +0.170 HD
ATOM      6  C   UNL     1      -3.075   1.333  -3.585  0.00  0.00    +0.289 A 
ATOM      7  O   UNL     1      -3.330   1.082  -4.750  0.00  0.00    -0.260 OA
ATOM      8  S   UNL     1      -1.531   1.628  -2.849  0.00  0.00    -0.030 S 
ATOM      9  S   UNL     1      -4.504   1.936   0.139  0.00  0.00    -0.103 S 
ATOM     10  C   UNL     1      -3.359   2.738   1.289  0.00  0.00    +0.060 C 
ATOM     11  C   UNL     1      -2.057   1.908   1.233  0.00  0.00    +0.021 C 
ATOM     12  C   UNL     1      -1.501   1.878   2.652  0.00  0.00    -0.006 C 
ATOM     13  C   UNL     1      -2.278   0.636   3.234  0.00  0.00    +0.004 C 
ATOM     14  C   UNL     1      -3.757   1.084   3.144  0.00  0.00    +0.005 C 
ATOM     15  C   UNL     1      -3.743   2.593   2.778  0.00  0.00    +0.003 C 
ATOM     16  C   UNL     1      -2.336   3.003   3.380  0.00  0.00    +0.008 C 
ENDROOT
BRANCH   1  20
ATOM     17  C   UNL     1       1.278  -0.434  -0.013  0.00  0.00    +0.137 A 
ATOM     18  C   UNL     1       2.092   0.654  -0.014  0.00  0.00    +0.050 A 
ATOM     19  C   UNL     1       1.254   1.788  -0.000  0.00  0.00    +0.046 A 
ATOM     20  C   UNL     1      -0.016   1.339   0.009  0.00  0.00    +0.114 A 
ATOM     21  O   UNL     1       0.002  -0.004   0.002  0.00  0.00    -0.459 OA
BRANCH  17  26
ATOM     22  C   UNL     1       3.063  -3.598  -0.967  0.00  0.00    +0.001 A 
ATOM     23  C   UNL     1       2.541  -4.489  -0.047  0.00  0.00    +0.002 A 
ATOM     24  C   UNL     1       1.609  -4.066   0.883  0.00  0.00    +0.033 A 
ATOM     25  C   UNL     1       1.198  -2.749   0.904  0.00  0.00    +0.137 A 
ATOM     26  C   UNL     1       1.717  -1.846  -0.025  0.00  0.00    +0.047 A 
ATOM     27  C   UNL     1       2.658  -2.279  -0.961  0.00  0.00    +0.014 A 
BRANCH  25  28
ATOM     28  N   UNL     1       0.206  -2.297   1.905  0.00  0.00    +0.057 N 
ATOM     29  O   UNL     1      -0.246  -3.087   2.714  0.00  0.00    -0.126 OA
ATOM     30  O   UNL     1      -0.158  -1.135   1.919  0.00  0.00    -0.126 OA
ENDBRANCH  25  28
ENDBRANCH  17  26
ENDBRANCH   1  20
TORSDOF 3
