REMARK  Name = ZINC18153929
REMARK  5 active torsions:
REMARK  status: ('A' for Active; 'I' for Inactive)
REMARK    1  A    between atoms: C_1  and  C_2
REMARK    2  A    between atoms: C_2  and  C_3
REMARK    3  A    between atoms: C_6  and  C_29
REMARK    4  A    between atoms: C_9  and  C_11
REMARK    5  A    between atoms: C_12  and  C_23
REMARK                            x       y       z     vdW  Elec       q    Type
REMARK                         _______ _______ _______ _____ _____    ______ ____
ROOT
ATOM      1  C   UNL     1      -0.328  -5.288  -0.165  0.00  0.00    +0.070 A 
ATOM      2  C   UNL     1      -0.926  -6.526   0.083  0.00  0.00    +0.005 A 
ATOM      3  C   UNL     1      -0.057  -7.702   0.228  0.00  0.00    +0.008 A 
ATOM      4  C   UNL     1      -0.606  -8.965   0.476  0.00  0.00    +0.030 A 
ATOM      5  C   UNL     1       0.224 -10.056   0.608  0.00  0.00    +0.042 A 
ATOM      6  C   UNL     1       1.600  -9.907   0.496  0.00  0.00    +0.022 A 
ATOM      7  C   UNL     1       2.155  -8.670   0.252  0.00  0.00    +0.028 A 
ATOM      8  C   UNL     1       1.336  -7.553   0.115  0.00  0.00    +0.050 A 
ATOM      9  N   UNL     1       1.891  -6.313  -0.131  0.00  0.00    -0.322 N 
ATOM     10  C   UNL     1       1.131  -5.214  -0.275  0.00  0.00    +0.259 A 
ATOM     11  O   UNL     1       1.663  -4.140  -0.495  0.00  0.00    -0.267 OA
ATOM     12 CL   UNL     1      -0.454 -11.624   0.917  0.00  0.00    -0.084 Cl
ATOM     13  H   UNL     1       2.854  -6.233  -0.206  0.00  0.00    +0.169 HD
ENDROOT
BRANCH   1  19
ATOM     14  C   UNL     1      -3.340  -2.048  -2.203  0.00  0.00    +0.235 C 
ATOM     15  O   UNL     1      -3.891  -0.985  -2.007  0.00  0.00    -0.274 OA
ATOM     16  N   UNL     1      -2.542  -2.579  -1.256  0.00  0.00    -0.182 N 
ATOM     17  C   UNL     1      -2.259  -1.980   0.058  0.00  0.00    +0.172 C 
ATOM     18  C   UNL     1      -1.305  -2.993   0.721  0.00  0.00    +0.090 C 
ATOM     19  C   UNL     1      -1.149  -4.081  -0.318  0.00  0.00    +0.075 C 
ATOM     20  N   UNL     1      -1.855  -3.787  -1.358  0.00  0.00    -0.181 NA
BRANCH  17  21
ATOM     21  C   UNL     1      -1.586  -0.641  -0.104  0.00  0.00    +0.128 A 
ATOM     22  C   UNL     1      -1.807   0.447   0.656  0.00  0.00    +0.046 A 
ATOM     23  C   UNL     1      -0.970   1.472   0.158  0.00  0.00    +0.041 A 
ATOM     24  C   UNL     1      -0.287   0.948  -0.877  0.00  0.00    +0.195 A 
ATOM     25  O   UNL     1      -0.661  -0.333  -1.027  0.00  0.00    -0.466 OA
ENDBRANCH  17  21
BRANCH  14  27
ATOM     26  C   UNL     1      -4.489  -1.963  -4.399  0.00  0.00    +0.013 C 
ATOM     27  C   UNL     1      -3.547  -2.775  -3.507  0.00  0.00    +0.094 C 
ENDBRANCH  14  27
ENDBRANCH   1  19
BRANCH   2  28
ATOM     28  C   UNL     1      -2.394  -6.649   0.197  0.00  0.00    -0.016 A 
ATOM     29  C   UNL     1      -3.066  -6.058   1.270  0.00  0.00    +0.008 A 
ATOM     30  C   UNL     1      -4.437  -6.177   1.370  0.00  0.00    +0.001 A 
ATOM     31  C   UNL     1      -5.145  -6.879   0.411  0.00  0.00    +0.000 A 
ATOM     32  C   UNL     1      -4.486  -7.467  -0.654  0.00  0.00    +0.001 A 
ATOM     33  C   UNL     1      -3.116  -7.351  -0.770  0.00  0.00    +0.008 A 
ENDBRANCH   2  28
TORSDOF 4
