REMARK  Name = ZINC66980366
REMARK  7 active torsions:
REMARK  status: ('A' for Active; 'I' for Inactive)
REMARK    1  A    between atoms: C_1  and  C_2
REMARK    2  A    between atoms: C_2  and  C_4
REMARK    3  A    between atoms: C_2  and  N_11
REMARK    4  A    between atoms: N_11  and  C_12
REMARK    5  A    between atoms: N_15  and  C_16
REMARK    6  A    between atoms: C_18  and  N_24
REMARK    7  A    between atoms: C_25  and  C_27
REMARK                            x       y       z     vdW  Elec       q    Type
REMARK                         _______ _______ _______ _____ _____    ______ ____
ROOT
ATOM      1  N   UNL     1       0.699  -0.160  -1.184  0.00  0.00    -0.282 N 
ATOM      2  C   UNL     1       2.124   0.080  -1.425  0.00  0.00    +0.134 C 
ATOM      3  C   UNL     1      -0.026  -0.864  -2.076  0.00  0.00    +0.307 C 
ATOM      4  O   UNL     1      -1.209  -1.063  -1.877  0.00  0.00    -0.252 OA
ATOM      5  N   UNL     1       0.560  -1.346  -3.190  0.00  0.00    -0.267 N 
ATOM      6  H   UNL     1       1.488  -1.136  -3.380  0.00  0.00    +0.156 HD
ENDROOT
BRANCH   5   7
ATOM      7  C   UNL     1      -0.171  -2.152  -4.074  0.00  0.00    +0.072 A 
ATOM      8  C   UNL     1      -1.526  -1.922  -4.264  0.00  0.00    +0.052 A 
ATOM      9  C   UNL     1      -2.247  -2.721  -5.139  0.00  0.00    +0.071 A 
ATOM     10  C   UNL     1      -1.611  -3.751  -5.824  0.00  0.00    +0.147 A 
ATOM     11  C   UNL     1      -0.260  -3.979  -5.632  0.00  0.00    +0.080 A 
ATOM     12  C   UNL     1       0.462  -3.180  -4.764  0.00  0.00    +0.147 A 
ATOM     13  F   UNL     1       1.783  -3.401  -4.583  0.00  0.00    -0.203 F 
ATOM     14  F   UNL     1      -2.313  -4.529  -6.677  0.00  0.00    -0.203 F 
BRANCH   9  15
ATOM     15  N   UNL     1      -3.616  -2.491  -5.333  0.00  0.00    -0.283 N 
ATOM     16  C   UNL     1      -4.104  -1.236  -5.264  0.00  0.00    +0.214 C 
ATOM     17  O   UNL     1      -3.349  -0.298  -5.121  0.00  0.00    -0.276 OA
ATOM     18  C   UNL     1      -5.589  -1.000  -5.365  0.00  0.00    +0.109 C 
ATOM     19  H   UNL     1      -4.211  -3.234  -5.517  0.00  0.00    +0.155 HD
ENDBRANCH   9  15
ENDBRANCH   5   7
BRANCH   1  21
ATOM     20  C   UNL     1       0.293   1.875   0.110  0.00  0.00    +0.033 C 
ATOM     21  C   UNL     1       0.062   0.365   0.026  0.00  0.00    +0.104 C 
BRANCH  21  22
ATOM     22  C   UNL     1       0.659  -0.303   1.238  0.00  0.00    -0.027 A 
ATOM     23  C   UNL     1       2.019  -0.217   1.474  0.00  0.00    +0.008 A 
ATOM     24  C   UNL     1       2.567  -0.829   2.586  0.00  0.00    +0.038 A 
ATOM     25  C   UNL     1       1.755  -1.529   3.462  0.00  0.00    +0.123 A 
ATOM     26  C   UNL     1       0.394  -1.614   3.224  0.00  0.00    +0.038 A 
ATOM     27  C   UNL     1      -0.153  -0.997   2.115  0.00  0.00    +0.008 A 
ATOM     28  F   UNL     1       2.290  -2.128   4.548  0.00  0.00    -0.205 F 
ENDBRANCH  21  22
ENDBRANCH   1  21
TORSDOF 4
