REMARK  Name = ZINC59309638
REMARK  9 active torsions:
REMARK  status: ('A' for Active; 'I' for Inactive)
REMARK    1  A    between atoms: C_4  and  C_7
REMARK    2  A    between atoms: C_7  and  O_8
REMARK    3  A    between atoms: O_8  and  C_9
REMARK    4  A    between atoms: C_12  and  C_15
REMARK    5  A    between atoms: N_16  and  N_17
REMARK    6  A    between atoms: C_20  and  S_23
REMARK    7  A    between atoms: S_23  and  C_24
REMARK    8  A    between atoms: C_24  and  C_25
REMARK    9  A    between atoms: N_27  and  C_28
REMARK                            x       y       z     vdW  Elec       q    Type
REMARK                         _______ _______ _______ _____ _____    ______ ____
ROOT
ATOM      1  N   UNL     1      10.655  -4.593   3.335  0.00  0.00    -0.205 N 
ATOM      2  C   UNL     1      11.127  -4.862   4.607  0.00  0.00    +0.232 A 
ATOM      3  N   UNL     1      10.533  -4.541   5.737  0.00  0.00    -0.186 NA
ATOM      4  C   UNL     1      11.274  -4.958   6.769  0.00  0.00    +0.211 A 
ATOM      5  N   UNL     1      12.351  -5.550   6.309  0.00  0.00    -0.144 NA
ATOM      6  N   UNL     1      12.275  -5.505   4.907  0.00  0.00    -0.245 N 
ATOM      7  H   UNL     1      11.164  -4.874   2.559  0.00  0.00    +0.177 HD
ATOM      8  H   UNL     1      12.922  -5.863   4.279  0.00  0.00    +0.192 HD
ENDROOT
BRANCH   1  10
ATOM      9  C   UNL     1       8.998  -3.661   1.974  0.00  0.00    +0.138 C 
ATOM     10  N   UNL     1       9.441  -3.914   3.168  0.00  0.00    -0.188 NA
BRANCH   9  14
ATOM     11  C   UNL     1       5.318  -1.605   1.466  0.00  0.00    +0.121 A 
ATOM     12  C   UNL     1       6.046  -2.006   0.354  0.00  0.00    +0.046 A 
ATOM     13  C   UNL     1       7.241  -2.674   0.514  0.00  0.00    +0.013 A 
ATOM     14  C   UNL     1       7.720  -2.947   1.798  0.00  0.00    -0.005 A 
ATOM     15  C   UNL     1       6.984  -2.541   2.914  0.00  0.00    +0.013 A 
ATOM     16  C   UNL     1       5.793  -1.869   2.745  0.00  0.00    +0.046 A 
BRANCH  11  17
ATOM     17  O   UNL     1       4.141  -0.946   1.304  0.00  0.00    -0.487 OA
BRANCH  17  18
ATOM     18  C   UNL     1       3.711  -0.707  -0.038  0.00  0.00    +0.264 C 
BRANCH  18  22
ATOM     19  C   UNL     1      -0.017   1.378   0.010  0.00  0.00    +0.000 A 
ATOM     20  C   UNL     1       1.171   2.086   0.002  0.00  0.00    +0.000 A 
ATOM     21  C   UNL     1       2.377   1.411  -0.013  0.00  0.00    +0.007 A 
ATOM     22  C   UNL     1       2.396   0.029  -0.020  0.00  0.00    -0.010 A 
ATOM     23  C   UNL     1       1.208  -0.679  -0.012  0.00  0.00    +0.007 A 
ATOM     24  C   UNL     1       0.002  -0.004   0.002  0.00  0.00    +0.000 A 
ENDBRANCH  18  22
ENDBRANCH  17  18
ENDBRANCH  11  17
ENDBRANCH   9  14
ENDBRANCH   1  10
BRANCH   4  25
ATOM     25  S   UNL     1      10.870  -4.745   8.471  0.00  0.00    -0.075 S 
BRANCH  25  26
ATOM     26  C   UNL     1      12.257  -5.518   9.350  0.00  0.00    +0.173 C 
BRANCH  26  27
ATOM     27  C   UNL     1      12.034  -5.404  10.836  0.00  0.00    +0.224 C 
ATOM     28  O   UNL     1      11.039  -4.856  11.261  0.00  0.00    -0.275 OA
ATOM     29  N   UNL     1      12.942  -5.912  11.694  0.00  0.00    -0.311 N 
ATOM     30  H   UNL     1      13.738  -6.350  11.355  0.00  0.00    +0.149 HD
BRANCH  29  31
ATOM     31  C   UNL     1      12.726  -5.802  13.139  0.00  0.00    +0.079 C 
ATOM     32  C   UNL     1      13.238  -4.446  13.629  0.00  0.00    +0.010 C 
ATOM     33  C   UNL     1      13.012  -4.331  15.138  0.00  0.00    +0.009 C 
ATOM     34  C   UNL     1      13.770  -5.451  15.854  0.00  0.00    -0.010 C 
ATOM     35  C   UNL     1      15.265  -5.330  15.551  0.00  0.00    +0.007 C 
ATOM     36  C   UNL     1      15.490  -5.445  14.042  0.00  0.00    -0.010 C 
ATOM     37  C   UNL     1      14.733  -4.325  13.326  0.00  0.00    +0.009 C 
ATOM     38  C   UNL     1      14.978  -6.801  13.552  0.00  0.00    +0.009 C 
ATOM     39  C   UNL     1      13.483  -6.922  13.855  0.00  0.00    +0.010 C 
ATOM     40  C   UNL     1      13.258  -6.807  15.364  0.00  0.00    +0.009 C 
ENDBRANCH  29  31
ENDBRANCH  26  27
ENDBRANCH  25  26
ENDBRANCH   4  25
TORSDOF 9
