REMARK  Name = ZINC39363176
REMARK  7 active torsions:
REMARK  status: ('A' for Active; 'I' for Inactive)
REMARK    1  A    between atoms: C_3  and  C_11
REMARK    2  A    between atoms: C_5  and  C_7
REMARK    3  A    between atoms: C_11  and  S_12
REMARK    4  A    between atoms: S_12  and  C_13
REMARK    5  A    between atoms: C_16  and  C_26
REMARK    6  A    between atoms: N_18  and  C_19
REMARK    7  A    between atoms: C_26  and  C_27
REMARK                            x       y       z     vdW  Elec       q    Type
REMARK                         _______ _______ _______ _____ _____    ______ ____
ROOT
ATOM      1  C   UNL     1       5.618   3.586   1.513  0.00  0.00    +0.180 C 
ATOM      2  N   UNL     1       6.164   3.852   0.374  0.00  0.00    -0.162 NA
ATOM      3  N   UNL     1       7.479   4.305   0.530  0.00  0.00    -0.246 N 
ATOM      4  C   UNL     1       7.745   4.306   1.979  0.00  0.00    +0.187 C 
ATOM      5  N   UNL     1       6.483   3.829   2.570  0.00  0.00    -0.258 N 
ATOM      6  H   UNL     1       8.093   4.567  -0.175  0.00  0.00    +0.170 HD
ENDROOT
BRANCH   5   7
ATOM      7  C   UNL     1       6.211   3.653   3.930  0.00  0.00    +0.038 A 
ATOM      8  C   UNL     1       6.144   4.753   4.774  0.00  0.00    +0.025 A 
ATOM      9  C   UNL     1       5.875   4.576   6.117  0.00  0.00    +0.022 A 
ATOM     10  C   UNL     1       5.673   3.304   6.622  0.00  0.00    +0.041 A 
ATOM     11  C   UNL     1       5.740   2.205   5.783  0.00  0.00    +0.022 A 
ATOM     12  C   UNL     1       6.003   2.377   4.438  0.00  0.00    +0.025 A 
ATOM     13 CL   UNL     1       5.336   3.085   8.311  0.00  0.00    -0.084 Cl
ENDBRANCH   5   7
BRANCH   1  14
ATOM     14  S   UNL     1       3.969   2.994   1.703  0.00  0.00    -0.084 S 
BRANCH  14  15
ATOM     15  C   UNL     1       3.347   2.876   0.003  0.00  0.00    +0.112 C 
BRANCH  15  18
ATOM     16  C   UNL     1      -0.426   2.810   0.113  0.00  0.00    +0.001 A 
ATOM     17  C   UNL     1       0.877   3.271   0.097  0.00  0.00    +0.004 A 
ATOM     18  C   UNL     1       1.926   2.374   0.022  0.00  0.00    -0.037 A 
ATOM     19  C   UNL     1       1.672   1.016  -0.037  0.00  0.00    +0.016 A 
ATOM     20  C   UNL     1       0.369   0.556  -0.020  0.00  0.00    +0.055 A 
ATOM     21  C   UNL     1      -0.680   1.453   0.054  0.00  0.00    +0.012 A 
BRANCH  20  22
ATOM     22  C   UNL     1       0.091  -0.924  -0.084  0.00  0.00    +0.417 C 
ATOM     23  F   UNL     1       0.046  -1.447   1.212  0.00  0.00    -0.166 F 
ATOM     24  F   UNL     1      -1.137  -1.141  -0.718  0.00  0.00    -0.166 F 
ATOM     25  F   UNL     1       1.108  -1.558  -0.808  0.00  0.00    -0.166 F 
ENDBRANCH  20  22
ENDBRANCH  15  18
ENDBRANCH  14  15
ENDBRANCH   1  14
BRANCH   4  26
ATOM     26  C   UNL     1       8.896   3.355   2.314  0.00  0.00    +0.097 C 
BRANCH  26  27
ATOM     27  C   UNL     1      10.175   3.886   1.718  0.00  0.00    +0.029 A 
ATOM     28  N   UNL     1      10.494   3.610   0.416  0.00  0.00    -0.311 N 
ATOM     29  C   UNL     1      11.632   4.079  -0.125  0.00  0.00    +0.327 A 
ATOM     30  O   UNL     1      11.896   3.821  -1.283  0.00  0.00    -0.247 OA
ATOM     31  N   UNL     1      12.484   4.830   0.598  0.00  0.00    -0.275 N 
ATOM     32  C   UNL     1      12.206   5.124   1.884  0.00  0.00    +0.254 A 
ATOM     33  O   UNL     1      12.976   5.804   2.539  0.00  0.00    -0.268 OA
ATOM     34  C   UNL     1      11.009   4.641   2.465  0.00  0.00    +0.091 A 
ATOM     35  H   UNL     1      13.301   5.160   0.193  0.00  0.00    +0.173 HD
ATOM     36  H   UNL     1       9.893   3.070  -0.121  0.00  0.00    +0.170 HD
ENDBRANCH  26  27
ENDBRANCH   4  26
TORSDOF 7
