REMARK  Name = ZINC01111813
REMARK  5 active torsions:
REMARK  status: ('A' for Active; 'I' for Inactive)
REMARK    1  A    between atoms: C_1  and  C_2
REMARK    2  A    between atoms: C_4  and  C_24
REMARK    3  A    between atoms: C_10  and  N_12
REMARK    4  A    between atoms: C_13  and  C_15
REMARK    5  A    between atoms: C_16  and  C_17
REMARK                            x       y       z     vdW  Elec       q    Type
REMARK                         _______ _______ _______ _____ _____    ______ ____
ROOT
ATOM      1  C   UNL     1      -0.018   1.503   0.010  0.00  0.00    +0.065 C 
ATOM      2  C   UNL     1       0.002  -0.004   0.002  0.00  0.00    +0.040 C 
ATOM      3  C   UNL     1      -1.156  -0.668   0.004  0.00  0.00    +0.025 C 
ATOM      4  C   UNL     1      -1.093  -2.184  -0.005  0.00  0.00    +0.156 C 
ATOM      5  N   UNL     1       0.249  -2.780  -0.015  0.00  0.00    -0.180 N 
ATOM      6  C   UNL     1       1.332  -1.950  -0.016  0.00  0.00    +0.210 C 
ATOM      7  N   UNL     1       1.190  -0.643  -0.013  0.00  0.00    -0.222 NA
ATOM      8  N   UNL     1       2.443  -2.753  -0.026  0.00  0.00    -0.254 N 
ATOM      9  C   UNL     1       2.023  -4.070  -0.031  0.00  0.00    +0.241 C 
ATOM     10  N   UNL     1       0.714  -4.096  -0.025  0.00  0.00    -0.140 NA
ATOM     11  H   UNL     1       3.365  -2.450  -0.028  0.00  0.00    +0.158 HD
ENDROOT
BRANCH   4  12
ATOM     12  C   UNL     1      -1.829  -2.676  -1.225  0.00  0.00    -0.021 A 
ATOM     13  C   UNL     1      -1.206  -2.666  -2.459  0.00  0.00    +0.006 A 
ATOM     14  C   UNL     1      -1.881  -3.117  -3.578  0.00  0.00    +0.000 A 
ATOM     15  C   UNL     1      -3.179  -3.579  -3.462  0.00  0.00    +0.000 A 
ATOM     16  C   UNL     1      -3.802  -3.591  -2.228  0.00  0.00    +0.000 A 
ATOM     17  C   UNL     1      -3.125  -3.143  -1.109  0.00  0.00    +0.006 A 
ENDBRANCH   4  12
BRANCH   9  18
ATOM     18  N   UNL     1       2.834  -5.158  -0.041  0.00  0.00    -0.174 NA
ATOM     19  C   UNL     1       2.314  -6.368  -0.045  0.00  0.00    +0.273 C 
ATOM     20  O   UNL     1       0.970  -6.526  -0.039  0.00  0.00    -0.266 OA
BRANCH  19  21
ATOM     21  C   UNL     1       3.162  -7.505  -0.055  0.00  0.00    +0.073 C 
ATOM     22  C   UNL     1       2.628  -8.745  -0.059  0.00  0.00    +0.013 C 
BRANCH  22  23
ATOM     23  C   UNL     1       3.507  -9.924  -0.070  0.00  0.00    -0.025 A 
ATOM     24  C   UNL     1       4.897  -9.764  -0.070  0.00  0.00    +0.009 A 
ATOM     25  C   UNL     1       5.715 -10.874  -0.080  0.00  0.00    +0.020 A 
ATOM     26  C   UNL     1       5.164 -12.145  -0.089  0.00  0.00    +0.041 A 
ATOM     27  C   UNL     1       3.788 -12.311  -0.090  0.00  0.00    +0.020 A 
ATOM     28  C   UNL     1       2.958 -11.211  -0.074  0.00  0.00    +0.009 A 
ATOM     29 CL   UNL     1       6.202 -13.537  -0.101  0.00  0.00    -0.084 Cl
ENDBRANCH  22  23
ENDBRANCH  19  21
ENDBRANCH   9  18
TORSDOF 4
