REMARK  Name = ZINC11603757
REMARK  9 active torsions:
REMARK  status: ('A' for Active; 'I' for Inactive)
REMARK    1  A    between atoms: C_1  and  N_58
REMARK    2  A    between atoms: C_2  and  N_58
REMARK    3  A    between atoms: C_3  and  C_5
REMARK    4  A    between atoms: C_3  and  C_26
REMARK    5  A    between atoms: C_3  and  N_58
REMARK    6  A    between atoms: C_5  and  N_6
REMARK    7  A    between atoms: C_7  and  C_9
REMARK    8  A    between atoms: C_9  and  C_10
REMARK    9  A    between atoms: C_10  and  C_11
REMARK                            x       y       z     vdW  Elec       q    Type
REMARK                         _______ _______ _______ _____ _____    ______ ____
ROOT
ATOM      1  N   UNL     1       3.259   8.278   0.622  0.00  0.00    -0.317 N 
ATOM      2  C   UNL     1       3.570   6.976   0.782  0.00  0.00    +0.213 C 
ATOM      3  O   UNL     1       4.725   6.614   0.698  0.00  0.00    -0.276 OA
ATOM      4  H   UNL     1       2.336   8.568   0.689  0.00  0.00    +0.149 HD
ENDROOT
BRANCH   1   5
ATOM      5  C   UNL     1       4.316   9.255   0.347  0.00  0.00    +0.093 C 
BRANCH   5   6
ATOM      6  C   UNL     1       3.687  10.624   0.082  0.00  0.00    -0.021 C 
BRANCH   6   7
ATOM      7  C   UNL     1       2.831  10.553  -1.157  0.00  0.00    -0.057 A 
ATOM      8  C   UNL     1       1.460  10.422  -1.042  0.00  0.00    +0.002 A 
ATOM      9  C   UNL     1       0.674  10.356  -2.177  0.00  0.00    +0.003 A 
ATOM     10  C   UNL     1       1.258  10.421  -3.428  0.00  0.00    +0.038 A 
ATOM     11  C   UNL     1       2.631  10.553  -3.544  0.00  0.00    +0.124 A 
ATOM     12  C   UNL     1       3.417  10.624  -2.406  0.00  0.00    +0.040 A 
ATOM     13  F   UNL     1       3.204  10.617  -4.766  0.00  0.00    -0.205 F 
ENDBRANCH   6   7
BRANCH   6  16
ATOM     14  C   UNL     1       4.182  12.960  -0.320  0.00  0.00    -0.096 C 
ATOM     15  C   UNL     1       5.689  11.616   1.015  0.00  0.00    -0.096 C 
ATOM     16  N   UNL     1       4.763  11.614  -0.137  0.00  0.00    +0.382 N 
ATOM     17  H   UNL     1       5.284  11.358  -0.984  0.00  0.00    -0.082 HD
ENDBRANCH   6  16
ENDBRANCH   5   6
ENDBRANCH   1   5
BRANCH   2  18
ATOM     18  C   UNL     1       2.484   5.971   1.064  0.00  0.00    +0.103 C 
BRANCH  18  19
ATOM     19  C   UNL     1       3.101   4.578   1.201  0.00  0.00    +0.083 C 
BRANCH  19  20
ATOM     20  C   UNL     1       2.014   3.572   1.483  0.00  0.00    +0.111 A 
ATOM     21  N   UNL     1       2.361   2.272   1.638  0.00  0.00    -0.310 N 
ATOM     22  H   UNL     1       3.298   2.031   1.562  0.00  0.00    +0.170 HD
ATOM     23  C   UNL     1       1.462   1.293   1.894  0.00  0.00    +0.260 A 
ATOM     24  O   UNL     1       1.793   0.128   2.031  0.00  0.00    -0.267 OA
ATOM     25  C   UNL     1       0.093   1.715   1.995  0.00  0.00    +0.075 A 
ATOM     26  C   UNL     1      -1.060   0.873   2.260  0.00  0.00    -0.023 A 
ATOM     27  C   UNL     1      -2.263   1.491   2.310  0.00  0.00    -0.004 A 
ATOM     28  S   UNL     1      -1.918   3.206   2.010  0.00  0.00    -0.073 S 
ATOM     29  C   UNL     1      -0.167   3.092   1.818  0.00  0.00    +0.116 A 
ATOM     30  N   UNL     1       0.773   3.998   1.569  0.00  0.00    -0.227 NA
ATOM     31  C   UNL     1      -3.597   0.859   2.564  0.00  0.00    +0.043 C 
ATOM     32  C   UNL     1      -3.456  -0.660   2.396  0.00  0.00    +0.005 C 
ATOM     33  C   UNL     1      -2.221  -1.126   3.173  0.00  0.00    +0.005 C 
ATOM     34  C   UNL     1      -0.953  -0.634   2.475  0.00  0.00    +0.037 C 
ENDBRANCH  19  20
ENDBRANCH  18  19
ENDBRANCH   2  18
TORSDOF 7
