REMARK  Name = ZINC21228994
REMARK  12 active torsions:
REMARK  status: ('A' for Active; 'I' for Inactive)
REMARK    1  A    between atoms: C_1  and  C_2
REMARK    2  A    between atoms: C_2  and  C_3
REMARK    3  A    between atoms: C_2  and  O_4
REMARK    4  A    between atoms: O_4  and  C_5
REMARK    5  A    between atoms: C_6  and  C_13
REMARK    6  A    between atoms: C_10  and  O_11
REMARK    7  A    between atoms: O_11  and  C_12
REMARK    8  A    between atoms: C_18  and  C_23
REMARK    9  A    between atoms: C_25  and  O_31
REMARK   10  A    between atoms: C_28  and  O_29
REMARK   11  A    between atoms: O_29  and  C_30
REMARK   12  A    between atoms: O_31  and  C_32
REMARK                            x       y       z     vdW  Elec       q    Type
REMARK                         _______ _______ _______ _____ _____    ______ ____
ROOT
ATOM      1  C   UNL     1       3.308   3.613   1.371  0.00  0.00    +0.140 C 
ATOM      2  C   UNL     1       3.837   2.217   1.592  0.00  0.00    +0.037 C 
ATOM      3  C   UNL     1       3.442   1.111   0.937  0.00  0.00    +0.017 C 
ATOM      4  C   UNL     1       4.067  -0.238   1.251  0.00  0.00    +0.060 C 
ATOM      5  C   UNL     1       4.465  -0.299   2.724  0.00  0.00    +0.036 C 
ATOM      6  C   UNL     1       5.468   0.832   2.984  0.00  0.00    +0.088 C 
ATOM      7  C   UNL     1       4.832   2.132   2.594  0.00  0.00    +0.163 C 
ATOM      8  O   UNL     1       5.184   3.150   3.158  0.00  0.00    -0.292 OA
ATOM      9  N   UNL     1       2.495   1.090  -0.036  0.00  0.00    -0.316 N 
ATOM     10  C   UNL     1       1.263   1.727   0.040  0.00  0.00    +0.052 A 
ATOM     11  C   UNL     1       0.068   1.028   0.031  0.00  0.00    +0.025 A 
ATOM     12  C   UNL     1      -1.127   1.727   0.012  0.00  0.00    +0.002 A 
ATOM     13  C   UNL     1      -1.127   3.110   0.012  0.00  0.00    +0.002 A 
ATOM     14  C   UNL     1       0.067   3.811   0.039  0.00  0.00    +0.025 A 
ATOM     15  C   UNL     1       1.263   3.113   0.070  0.00  0.00    +0.049 A 
ATOM     16  N   UNL     1       2.489   3.769   0.188  0.00  0.00    -0.331 N 
ATOM     17  H   UNL     1       2.679   0.539  -0.970  0.00  0.00    +0.152 HD
ATOM     18  H   UNL     1       2.830   4.412  -0.636  0.00  0.00    +0.147 HD
ENDROOT
BRANCH   1  20
ATOM     19  C   UNL     1       2.925   5.018   3.410  0.00  0.00    +0.168 A 
ATOM     20  C   UNL     1       2.487   4.004   2.573  0.00  0.00    +0.023 A 
ATOM     21  C   UNL     1       1.296   3.355   2.838  0.00  0.00    +0.009 A 
ATOM     22  C   UNL     1       0.543   3.709   3.943  0.00  0.00    +0.004 A 
ATOM     23  C   UNL     1       0.974   4.720   4.782  0.00  0.00    +0.049 A 
ATOM     24  C   UNL     1       2.165   5.378   4.519  0.00  0.00    +0.162 A 
BRANCH  24  25
ATOM     25  O   UNL     1       2.590   6.372   5.343  0.00  0.00    -0.491 OA
ATOM     26  C   UNL     1       1.758   6.688   6.462  0.00  0.00    +0.277 C 
ENDBRANCH  24  25
BRANCH  19  27
ATOM     27  O   UNL     1       4.094   5.662   3.148  0.00  0.00    -0.485 OA
BRANCH  27  29
ATOM     28  C   UNL     1       5.230   7.764   2.789  0.00  0.00    +0.051 C 
ATOM     29  C   UNL     1       4.008   6.907   2.453  0.00  0.00    +0.168 C 
ATOM     30  C   UNL     1       3.965   6.648   0.946  0.00  0.00    +0.051 C 
ENDBRANCH  27  29
ENDBRANCH  19  27
ENDBRANCH   1  20
BRANCH   5  31
ATOM     31  C   UNL     1       5.106  -1.629   3.026  0.00  0.00    +0.002 A 
ATOM     32  C   UNL     1       6.251  -2.012   2.355  0.00  0.00    +0.053 A 
ATOM     33  C   UNL     1       6.843  -3.234   2.636  0.00  0.00    +0.121 A 
ATOM     34  C   UNL     1       6.279  -4.077   3.582  0.00  0.00    +0.049 A 
ATOM     35  C   UNL     1       5.131  -3.697   4.249  0.00  0.00    +0.049 A 
ATOM     36  C   UNL     1       4.542  -2.472   3.972  0.00  0.00    +0.124 A 
BRANCH  36  37
ATOM     37  O   UNL     1       3.411  -2.097   4.628  0.00  0.00    -0.495 OA
ATOM     38  C   UNL     1       2.885  -3.014   5.590  0.00  0.00    +0.277 C 
ENDBRANCH  36  37
BRANCH  33  39
ATOM     39  O   UNL     1       7.974  -3.609   1.979  0.00  0.00    -0.495 OA
ATOM     40  C   UNL     1       8.526  -4.883   2.314  0.00  0.00    +0.277 C 
ENDBRANCH  33  39
ENDBRANCH   5  31
TORSDOF 7
