REMARK  Name = ZINC37546475
REMARK  7 active torsions:
REMARK  status: ('A' for Active; 'I' for Inactive)
REMARK    1  A    between atoms: C_1  and  C_2
REMARK    2  A    between atoms: C_2  and  C_3
REMARK    3  A    between atoms: C_2  and  N_4
REMARK    4  A    between atoms: C_9  and  C_22
REMARK    5  A    between atoms: C_13  and  C_15
REMARK    6  A    between atoms: N_24  and  C_25
REMARK    7  A    between atoms: C_25  and  C_26
REMARK                            x       y       z     vdW  Elec       q    Type
REMARK                         _______ _______ _______ _____ _____    ______ ____
ROOT
ATOM      1  N   UNL     1      -1.586  -0.139  -1.361  0.00  0.00    -0.297 N 
ATOM      2  C   UNL     1      -1.749  -1.475  -1.303  0.00  0.00    +0.303 C 
ATOM      3  O   UNL     1      -0.808  -2.213  -1.527  0.00  0.00    -0.253 OA
ATOM      4  N   UNL     1      -2.954  -1.995  -0.995  0.00  0.00    -0.278 N 
ATOM      5  C   UNL     1      -4.073  -1.119  -0.620  0.00  0.00    +0.122 C 
ATOM      6  C   UNL     1      -4.637  -1.588   0.725  0.00  0.00    +0.092 C 
ATOM      7  C   UNL     1      -5.003  -3.071   0.631  0.00  0.00    +0.016 C 
ATOM      8  C   UNL     1      -3.748  -3.890   0.322  0.00  0.00    +0.028 C 
ATOM      9  C   UNL     1      -3.175  -3.447  -1.033  0.00  0.00    +0.108 C 
ATOM     10  H   UNL     1      -2.317   0.450  -1.116  0.00  0.00    +0.150 HD
ENDROOT
BRANCH   9  11
ATOM     11  C   UNL     1      -1.867  -4.151  -1.285  0.00  0.00    -0.027 A 
ATOM     12  C   UNL     1      -0.877  -4.136  -0.320  0.00  0.00    +0.008 A 
ATOM     13  C   UNL     1       0.323  -4.782  -0.550  0.00  0.00    +0.038 A 
ATOM     14  C   UNL     1       0.534  -5.443  -1.748  0.00  0.00    +0.123 A 
ATOM     15  C   UNL     1      -0.457  -5.457  -2.714  0.00  0.00    +0.038 A 
ATOM     16  C   UNL     1      -1.659  -4.815  -2.480  0.00  0.00    +0.008 A 
ATOM     17  F   UNL     1       1.707  -6.074  -1.974  0.00  0.00    -0.205 F 
ENDBRANCH   9  11
BRANCH   6  18
ATOM     18  C   UNL     1      -3.600  -1.393   1.800  0.00  0.00    +0.218 C 
ATOM     19  O   UNL     1      -3.167  -2.350   2.406  0.00  0.00    -0.275 OA
ATOM     20  N   UNL     1      -3.154  -0.154   2.090  0.00  0.00    -0.311 N 
ATOM     21  H   UNL     1      -3.550   0.618   1.656  0.00  0.00    +0.149 HD
BRANCH  20  22
ATOM     22  C   UNL     1      -2.071   0.027   3.059  0.00  0.00    +0.139 C 
BRANCH  22  23
ATOM     23  C   UNL     1      -1.859   1.498   3.307  0.00  0.00    -0.027 A 
ATOM     24  C   UNL     1      -1.051   2.231   2.458  0.00  0.00    +0.009 A 
ATOM     25  C   UNL     1      -0.854   3.581   2.681  0.00  0.00    +0.050 A 
ATOM     26  C   UNL     1      -1.466   4.203   3.757  0.00  0.00    +0.166 A 
ATOM     27  C   UNL     1      -2.280   3.464   4.612  0.00  0.00    +0.167 A 
ATOM     28  C   UNL     1      -2.477   2.113   4.379  0.00  0.00    +0.054 A 
ATOM     29  O   UNL     1      -2.760   4.295   5.583  0.00  0.00    -0.453 OA
ATOM     30  C   UNL     1      -1.909   5.456   5.551  0.00  0.00    +0.466 C 
ATOM     31  O   UNL     1      -1.436   5.496   4.192  0.00  0.00    -0.453 OA
ENDBRANCH  22  23
ENDBRANCH  20  22
ENDBRANCH   6  18
BRANCH   1  33
ATOM     32  C   UNL     1      -0.516   1.865  -2.269  0.00  0.00    +0.027 C 
ATOM     33  C   UNL     1      -0.306   0.425  -1.795  0.00  0.00    +0.068 C 
ATOM     34  C   UNL     1       0.680   0.413  -0.625  0.00  0.00    +0.027 C 
ENDBRANCH   1  33
TORSDOF 5
