REMARK  Name = ZINC09510465
REMARK  7 active torsions:
REMARK  status: ('A' for Active; 'I' for Inactive)
REMARK    1  A    between atoms: C_4  and  C_7
REMARK    2  A    between atoms: C_9  and  C_13
REMARK    3  A    between atoms: C_16  and  S_19
REMARK    4  A    between atoms: N_17  and  N_18
REMARK    5  A    between atoms: S_19  and  C_20
REMARK    6  A    between atoms: C_20  and  C_21
REMARK    7  A    between atoms: N_23  and  C_24
REMARK                            x       y       z     vdW  Elec       q    Type
REMARK                         _______ _______ _______ _____ _____    ______ ____
ROOT
ATOM      1  C   UNL     1       5.881  -3.637  -0.029  0.00  0.00    +0.202 A 
ATOM      2  N   UNL     1       5.258  -4.792  -0.043  0.00  0.00    -0.125 NA
ATOM      3  N   UNL     1       6.112  -5.751  -0.068  0.00  0.00    -0.120 NA
ATOM      4  C   UNL     1       7.334  -5.267  -0.072  0.00  0.00    +0.209 A 
ATOM      5  N   UNL     1       7.230  -3.905  -0.052  0.00  0.00    -0.222 N 
ENDROOT
BRANCH   1   8
ATOM      6  C   UNL     1       3.701  -0.685   0.046  0.00  0.00    +0.066 A 
ATOM      7  C   UNL     1       3.869  -2.038   0.023  0.00  0.00    +0.061 A 
ATOM      8  C   UNL     1       5.251  -2.298  -0.001  0.00  0.00    +0.132 A 
ATOM      9  N   UNL     1       5.889  -1.145   0.008  0.00  0.00    -0.170 NA
ATOM     10  N   UNL     1       4.940  -0.115   0.032  0.00  0.00    -0.276 N 
ATOM     11  H   UNL     1       5.130   0.836   0.039  0.00  0.00    +0.189 HD
BRANCH   6  15
ATOM     12  C   UNL     1      -0.011   1.381   0.126  0.00  0.00    +0.000 A 
ATOM     13  C   UNL     1       1.174   2.094   0.116  0.00  0.00    +0.001 A 
ATOM     14  C   UNL     1       2.383   1.429   0.090  0.00  0.00    +0.010 A 
ATOM     15  C   UNL     1       2.408   0.035   0.074  0.00  0.00    -0.000 A 
ATOM     16  C   UNL     1       1.209  -0.679   0.085  0.00  0.00    +0.010 A 
ATOM     17  C   UNL     1       0.007  -0.002   0.111  0.00  0.00    +0.001 A 
ENDBRANCH   6  15
ENDBRANCH   1   8
BRANCH   5  18
ATOM     18  N   UNL     1       8.252  -2.999  -0.053  0.00  0.00    -0.295 N 
ATOM     19  H   UNL     1       8.536  -2.773   0.889  0.00  0.00    +0.163 HD
ATOM     20  H   UNL     1       9.033  -3.336  -0.595  0.00  0.00    +0.163 HD
ENDBRANCH   5  18
BRANCH   4  21
ATOM     21  S   UNL     1       8.828  -6.201  -0.103  0.00  0.00    -0.075 S 
BRANCH  21  22
ATOM     22  C   UNL     1       8.267  -7.926  -0.128  0.00  0.00    +0.173 C 
BRANCH  22  23
ATOM     23  C   UNL     1       9.463  -8.842  -0.156  0.00  0.00    +0.228 C 
ATOM     24  O   UNL     1      10.583  -8.378  -0.159  0.00  0.00    -0.275 OA
ATOM     25  N   UNL     1       9.287 -10.178  -0.178  0.00  0.00    -0.284 N 
ATOM     26  H   UNL     1       8.394 -10.552  -0.111  0.00  0.00    +0.155 HD
BRANCH  25  27
ATOM     27  C   UNL     1      10.394 -11.028  -0.299  0.00  0.00    +0.052 A 
ATOM     28  C   UNL     1      11.602 -10.684   0.292  0.00  0.00    +0.026 A 
ATOM     29  C   UNL     1      12.692 -11.524   0.172  0.00  0.00    +0.022 A 
ATOM     30  C   UNL     1      12.581 -12.707  -0.537  0.00  0.00    +0.042 A 
ATOM     31  C   UNL     1      11.379 -13.053  -1.127  0.00  0.00    +0.041 A 
ATOM     32  C   UNL     1      10.283 -12.220  -1.005  0.00  0.00    +0.064 A 
ATOM     33 CL   UNL     1       8.772 -12.657  -1.739  0.00  0.00    -0.082 Cl
ATOM     34 CL   UNL     1      13.954 -13.759  -0.687  0.00  0.00    -0.083 Cl
ENDBRANCH  25  27
ENDBRANCH  22  23
ENDBRANCH  21  22
ENDBRANCH   4  21
TORSDOF 7
