REMARK  Name = ZINC39352701
REMARK  13 active torsions:
REMARK  status: ('A' for Active; 'I' for Inactive)
REMARK    1  A    between atoms: C_1  and  O_2
REMARK    2  A    between atoms: O_2  and  C_3
REMARK    3  A    between atoms: C_3  and  C_4
REMARK    4  A    between atoms: C_4  and  C_5
REMARK    5  A    between atoms: N_7  and  C_8
REMARK    6  A    between atoms: C_12  and  N_34
REMARK    7  A    between atoms: N_16  and  C_23
REMARK    8  A    between atoms: C_17  and  C_19
REMARK    9  A    between atoms: C_19  and  O_21
REMARK   10  A    between atoms: O_21  and  C_22
REMARK   11  A    between atoms: C_23  and  C_24
REMARK   12  A    between atoms: C_24  and  C_25
REMARK   13  A    between atoms: N_34  and  C_35
REMARK                            x       y       z     vdW  Elec       q    Type
REMARK                         _______ _______ _______ _____ _____    ______ ____
ROOT
ATOM      1  C   UNL     1      -3.975  -4.714   0.015  0.00  0.00    +0.138 C 
ATOM      2  C   UNL     1      -4.460  -4.901   1.433  0.00  0.00    +0.015 A 
ATOM      3  C   UNL     1      -4.710  -3.987   2.439  0.00  0.00    +0.033 A 
ATOM      4  C   UNL     1      -5.159  -4.460   3.671  0.00  0.00    +0.044 A 
ATOM      5  C   UNL     1      -5.335  -5.826   3.836  0.00  0.00    +0.107 A 
ATOM      6  N   UNL     1      -5.086  -6.666   2.854  0.00  0.00    -0.348 N 
ATOM      7  C   UNL     1      -4.656  -6.256   1.661  0.00  0.00    +0.105 A 
ATOM      8  N   UNL     1      -4.351  -7.013   0.532  0.00  0.00    -0.301 N 
ATOM      9  C   UNL     1      -3.913  -6.138  -0.563  0.00  0.00    +0.208 C 
ATOM     10  H   UNL     1      -5.220  -7.615   3.003  0.00  0.00    +0.167 HD
ENDROOT
BRANCH   1  13
ATOM     11  C   UNL     1      -2.522  -2.758   0.011  0.00  0.00    +0.216 C 
ATOM     12  O   UNL     1      -3.513  -2.059   0.025  0.00  0.00    -0.276 OA
ATOM     13  N   UNL     1      -2.645  -4.100   0.005  0.00  0.00    -0.306 N 
ATOM     14  H   UNL     1      -1.852  -4.660  -0.005  0.00  0.00    +0.149 HD
BRANCH  11  15
ATOM     15  C   UNL     1      -1.154  -2.126   0.002  0.00  0.00    +0.124 C 
BRANCH  15  16
ATOM     16  C   UNL     1      -1.295  -0.603   0.011  0.00  0.00    +0.168 C 
BRANCH  16  18
ATOM     17  C   UNL     1      -0.017   1.425   0.010  0.00  0.00    +0.194 C 
ATOM     18  O   UNL     1       0.002  -0.004   0.002  0.00  0.00    -0.382 OA
ENDBRANCH  16  18
ENDBRANCH  15  16
ENDBRANCH  11  15
ENDBRANCH   1  13
BRANCH   9  19
ATOM     19  C   UNL     1      -2.502  -6.476  -0.971  0.00  0.00    +0.330 C 
ATOM     20  O   UNL     1      -1.809  -7.150  -0.247  0.00  0.00    -0.249 OA
BRANCH  19  21
ATOM     21  O   UNL     1      -2.016  -6.028  -2.139  0.00  0.00    -0.467 OA
ATOM     22  C   UNL     1      -0.671  -6.387  -2.462  0.00  0.00    +0.280 C 
ENDBRANCH  19  21
ENDBRANCH   9  19
BRANCH   4  23
ATOM     23  N   UNL     1      -5.426  -3.574   4.721  0.00  0.00    -0.339 N 
ATOM     24  H   UNL     1      -5.299  -2.620   4.596  0.00  0.00    +0.146 HD
BRANCH  23  25
ATOM     25  C   UNL     1      -5.897  -4.086   6.011  0.00  0.00    +0.081 C 
ATOM     26  C   UNL     1      -6.734  -3.004   6.692  0.00  0.00    +0.033 C 
ATOM     27  C   UNL     1      -6.661  -3.160   8.236  0.00  0.00    +0.071 C 
ATOM     28  S   UNL     1      -4.879  -3.606   8.418  0.00  0.00    -0.159 S 
ATOM     29  C   UNL     1      -4.677  -4.529   6.842  0.00  0.00    +0.091 C 
ENDBRANCH  23  25
ENDBRANCH   4  23
BRANCH   8  30
ATOM     30  C   UNL     1      -4.453  -8.472   0.448  0.00  0.00    +0.112 C 
BRANCH  30  31
ATOM     31  C   UNL     1      -5.854  -8.858  -0.031  0.00  0.00    +0.056 C 
BRANCH  31  32
ATOM     32  C   UNL     1      -5.959 -10.359  -0.117  0.00  0.00    -0.021 A 
ATOM     33  C   UNL     1      -6.293 -11.273   0.978  0.00  0.00    +0.003 A 
ATOM     34  C   UNL     1      -6.597 -11.099   2.329  0.00  0.00    +0.010 A 
ATOM     35  C   UNL     1      -6.872 -12.187   3.108  0.00  0.00    +0.001 A 
ATOM     36  C   UNL     1      -6.851 -13.465   2.567  0.00  0.00    +0.002 A 
ATOM     37  C   UNL     1      -6.553 -13.660   1.236  0.00  0.00    +0.026 A 
ATOM     38  C   UNL     1      -6.271 -12.567   0.424  0.00  0.00    +0.047 A 
ATOM     39  N   UNL     1      -5.946 -12.434  -0.907  0.00  0.00    -0.360 N 
ATOM     40  C   UNL     1      -5.769 -11.111  -1.213  0.00  0.00    +0.087 A 
ATOM     41  H   UNL     1      -5.859 -13.167  -1.536  0.00  0.00    +0.165 HD
ENDBRANCH  31  32
ENDBRANCH  30  31
ENDBRANCH   8  30
TORSDOF 11
