REMARK  Name = ZINC14244289
REMARK  11 active torsions:
REMARK  status: ('A' for Active; 'I' for Inactive)
REMARK    1  A    between atoms: C_1  and  C_2
REMARK    2  A    between atoms: C_2  and  C_3
REMARK    3  A    between atoms: C_6  and  C_9
REMARK    4  A    between atoms: C_9  and  C_11
REMARK    5  A    between atoms: C_9  and  N_59
REMARK    6  A    between atoms: C_11  and  C_12
REMARK    7  A    between atoms: C_11  and  C_13
REMARK    8  A    between atoms: C_14  and  C_15
REMARK    9  A    between atoms: C_14  and  N_59
REMARK   10  A    between atoms: N_17  and  C_18
REMARK   11  A    between atoms: C_27  and  C_29
REMARK                            x       y       z     vdW  Elec       q    Type
REMARK                         _______ _______ _______ _____ _____    ______ ____
ROOT
ATOM      1  C   UNL     1      -0.575  -4.268   0.452  0.00  0.00    +0.016 C 
ENDROOT
BRANCH   1   2
ATOM      2  C   UNL     1      -0.484  -2.764   0.477  0.00  0.00    +0.200 C 
ATOM      3  O   UNL     1      -1.488  -2.098   0.613  0.00  0.00    -0.278 OA
ATOM      4  N   UNL     1       0.714  -2.159   0.349  0.00  0.00    -0.287 N 
ATOM      5  H   UNL     1       1.524  -2.690   0.307  0.00  0.00    +0.155 HD
BRANCH   4   6
ATOM      6  C   UNL     1       0.788  -0.762   0.278  0.00  0.00    +0.034 A 
ATOM      7  C   UNL     1      -0.086   0.023   1.019  0.00  0.00    +0.025 A 
ATOM      8  C   UNL     1      -0.012   1.397   0.949  0.00  0.00    +0.025 A 
ATOM      9  C   UNL     1       0.941   2.012   0.134  0.00  0.00    +0.040 A 
ATOM     10  C   UNL     1       1.810   1.223  -0.603  0.00  0.00    -0.023 A 
ATOM     11  C   UNL     1       1.737  -0.154  -0.533  0.00  0.00    +0.028 A 
ATOM     12  C   UNL     1       2.730   2.128  -1.392  0.00  0.00    +0.056 C 
ATOM     13  C   UNL     1       2.286   3.552  -1.020  0.00  0.00    +0.118 C 
ATOM     14  N   UNL     1       1.179   3.375  -0.076  0.00  0.00    -0.271 N 
ATOM     15  C   UNL     1       0.492   4.379   0.505  0.00  0.00    +0.217 C 
ATOM     16  O   UNL     1      -0.347   4.132   1.345  0.00  0.00    -0.276 OA
ATOM     17  C   UNL     1       0.766   5.807   0.111  0.00  0.00    +0.109 C 
ENDBRANCH   4   6
ENDBRANCH   1   2
BRANCH   1  18
ATOM     18  N   UNL     1      -1.985  -4.670   0.609  0.00  0.00    +0.389 N 
ATOM     19  H   UNL     1      -2.366  -4.241   1.461  0.00  0.00    -0.084 HD
ATOM     20  H   UNL     1      -2.522  -4.348  -0.205  0.00  0.00    -0.084 HD
BRANCH  18  21
ATOM     21  C   UNL     1      -2.091  -6.137   0.713  0.00  0.00    -0.038 C 
BRANCH  21  25
ATOM     22  C   UNL     1      -1.935  -7.860  -3.192  0.00  0.00    -0.048 A 
ATOM     23  C   UNL     1      -1.282  -8.474  -2.139  0.00  0.00    +0.004 A 
ATOM     24  C   UNL     1      -1.332  -7.916  -0.876  0.00  0.00    +0.002 A 
ATOM     25  C   UNL     1      -2.036  -6.745  -0.664  0.00  0.00    -0.061 A 
ATOM     26  C   UNL     1      -2.693  -6.134  -1.716  0.00  0.00    +0.002 A 
ATOM     27  C   UNL     1      -2.638  -6.689  -2.981  0.00  0.00    +0.004 A 
BRANCH  22  29
ATOM     28  C   UNL     1      -3.049  -9.440  -4.745  0.00  0.00    +0.009 C 
ATOM     29  C   UNL     1      -1.880  -8.469  -4.570  0.00  0.00    +0.032 C 
ENDBRANCH  22  29
ENDBRANCH  21  25
BRANCH  21  30
ATOM     30  C   UNL     1      -3.421  -6.499   1.377  0.00  0.00    -0.027 C 
ATOM     31  C   UNL     1      -3.492  -8.013   1.587  0.00  0.00    +0.006 C 
ATOM     32  C   UNL     1      -3.525  -5.792   2.730  0.00  0.00    +0.006 C 
ENDBRANCH  21  30
ENDBRANCH  18  21
ENDBRANCH   1  18
TORSDOF 7
