REMARK  Name = ZINC32750934
REMARK  10 active torsions:
REMARK  status: ('A' for Active; 'I' for Inactive)
REMARK    1  A    between atoms: C_1  and  C_2
REMARK    2  A    between atoms: C_2  and  C_3
REMARK    3  A    between atoms: C_2  and  N_4
REMARK    4  A    between atoms: N_4  and  C_5
REMARK    5  A    between atoms: N_4  and  S_6
REMARK    6  A    between atoms: S_6  and  C_9
REMARK    7  A    between atoms: C_13  and  C_15
REMARK    8  A    between atoms: N_17  and  N_18
REMARK    9  A    between atoms: C_19  and  C_21
REMARK   10  A    between atoms: C_21  and  C_22
REMARK                            x       y       z     vdW  Elec       q    Type
REMARK                         _______ _______ _______ _____ _____    ______ ____
ROOT
ATOM      1  C   UNL     1      -4.441  -3.706  -0.978  0.00  0.00    +0.262 C 
ATOM      2  O   UNL     1      -5.604  -3.896  -1.278  0.00  0.00    -0.269 OA
ATOM      3  N   UNL     1      -3.499  -4.605  -1.328  0.00  0.00    -0.230 N 
ATOM      4  H   UNL     1      -2.447  -4.433  -1.057  0.00  0.00    +0.173 HD
ENDROOT
BRANCH   1   9
ATOM      5  C   UNL     1      -2.376  -1.129   0.810  0.00  0.00    +0.106 A 
ATOM      6  C   UNL     1      -3.345  -0.210   1.172  0.00  0.00    +0.030 A 
ATOM      7  C   UNL     1      -4.668  -0.419   0.829  0.00  0.00    +0.022 A 
ATOM      8  C   UNL     1      -5.032  -1.555   0.131  0.00  0.00    +0.053 A 
ATOM      9  C   UNL     1      -4.059  -2.489  -0.232  0.00  0.00    +0.058 A 
ATOM     10  C   UNL     1      -2.725  -2.267   0.114  0.00  0.00    +0.043 A 
ATOM     11 CL   UNL     1      -6.695  -1.820  -0.293  0.00  0.00    -0.083 Cl
BRANCH   5  12
ATOM     12  S   UNL     1      -0.692  -0.848   1.246  0.00  0.00    +0.061 S 
ATOM     13  O   UNL     1      -0.062  -2.122   1.274  0.00  0.00    -0.153 OA
ATOM     14  O   UNL     1      -0.703   0.021   2.370  0.00  0.00    -0.153 OA
BRANCH  12  15
ATOM     15  N   UNL     1       0.002  -0.004   0.002  0.00  0.00    -0.177 NA
ATOM     16  C   UNL     1       0.636  -0.722  -1.107  0.00  0.00    +0.132 C 
BRANCH  15  18
ATOM     17  C   UNL     1       1.418   1.990  -0.001  0.00  0.00    +0.025 C 
ATOM     18  C   UNL     1      -0.018   1.461   0.010  0.00  0.00    +0.073 C 
ATOM     19  C   UNL     1      -0.758   1.968  -1.230  0.00  0.00    +0.025 C 
ENDBRANCH  15  18
ENDBRANCH  12  15
ENDBRANCH   5  12
ENDBRANCH   1   9
BRANCH   3  20
ATOM     20  N   UNL     1      -3.861  -5.759  -2.035  0.00  0.00    -0.234 N 
ATOM     21  C   UNL     1      -2.919  -6.658  -2.385  0.00  0.00    +0.233 C 
ATOM     22  O   UNL     1      -1.759  -6.468  -2.086  0.00  0.00    -0.274 OA
ATOM     23  H   UNL     1      -4.913  -5.931  -2.306  0.00  0.00    +0.173 HD
BRANCH  21  24
ATOM     24  C   UNL     1      -3.308  -7.899  -3.146  0.00  0.00    +0.134 C 
BRANCH  24  25
ATOM     25  C   UNL     1      -2.080  -8.731  -3.411  0.00  0.00    -0.014 A 
ATOM     26  C   UNL     1      -1.332  -8.719  -4.525  0.00  0.00    +0.087 A 
ATOM     27  N   UNL     1      -0.297  -9.606  -4.402  0.00  0.00    -0.360 N 
ATOM     28  H   UNL     1       0.426  -9.725  -5.223  0.00  0.00    +0.165 HD
ATOM     29  C   UNL     1      -0.360 -10.232  -3.178  0.00  0.00    +0.047 A 
ATOM     30  C   UNL     1      -1.480  -9.711  -2.503  0.00  0.00    +0.003 A 
ATOM     31  C   UNL     1      -1.795 -10.167  -1.221  0.00  0.00    +0.010 A 
ATOM     32  C   UNL     1      -1.012 -11.118  -0.628  0.00  0.00    +0.001 A 
ATOM     33  C   UNL     1       0.093 -11.635  -1.290  0.00  0.00    +0.002 A 
ATOM     34  C   UNL     1       0.422 -11.199  -2.555  0.00  0.00    +0.026 A 
ENDBRANCH  24  25
ENDBRANCH  21  24
ENDBRANCH   3  20
TORSDOF 7
