REMARK  Name = ZINC08770415
REMARK  7 active torsions:
REMARK  status: ('A' for Active; 'I' for Inactive)
REMARK    1  A    between atoms: C_4  and  O_7
REMARK    2  A    between atoms: O_7  and  C_8
REMARK    3  A    between atoms: C_11  and  N_14
REMARK    4  A    between atoms: C_18  and  N_54
REMARK    5  A    between atoms: C_22  and  C_23
REMARK    6  A    between atoms: C_22  and  N_54
REMARK    7  A    between atoms: C_23  and  C_24
REMARK                            x       y       z     vdW  Elec       q    Type
REMARK                         _______ _______ _______ _____ _____    ______ ____
ROOT
ATOM      1  N   UNL     1       5.901  -1.055   3.721  0.00  0.00    -0.212 N 
ATOM      2  C   UNL     1       6.976  -0.329   3.390  0.00  0.00    +0.225 C 
ATOM      3  O   UNL     1       8.129  -0.672   3.544  0.00  0.00    -0.275 OA
ATOM      4  C   UNL     1       6.525   0.991   2.795  0.00  0.00    +0.090 C 
ATOM      5  C   UNL     1       4.986   0.894   2.838  0.00  0.00    +0.026 C 
ATOM      6  C   UNL     1       4.730  -0.464   3.455  0.00  0.00    +0.213 C 
ATOM      7  O   UNL     1       3.637  -0.941   3.673  0.00  0.00    -0.277 OA
ENDROOT
BRANCH   1  11
ATOM      8  C   UNL     1       6.177  -4.846   5.440  0.00  0.00    +0.129 A 
ATOM      9  C   UNL     1       6.623  -4.639   4.142  0.00  0.00    +0.048 A 
ATOM     10  C   UNL     1       6.532  -3.384   3.573  0.00  0.00    +0.027 A 
ATOM     11  C   UNL     1       5.994  -2.330   4.299  0.00  0.00    +0.044 A 
ATOM     12  C   UNL     1       5.553  -2.537   5.599  0.00  0.00    +0.027 A 
ATOM     13  C   UNL     1       5.639  -3.793   6.166  0.00  0.00    +0.048 A 
BRANCH   8  14
ATOM     14  O   UNL     1       6.267  -6.082   6.000  0.00  0.00    -0.456 OA
BRANCH  14  18
ATOM     15  C   UNL     1       2.816  -8.319   6.320  0.00  0.00    +0.000 A 
ATOM     16  C   UNL     1       3.993  -8.781   6.880  0.00  0.00    +0.004 A 
ATOM     17  C   UNL     1       5.150  -8.034   6.775  0.00  0.00    +0.046 A 
ATOM     18  C   UNL     1       5.130  -6.818   6.106  0.00  0.00    +0.128 A 
ATOM     19  C   UNL     1       3.947  -6.354   5.549  0.00  0.00    +0.046 A 
ATOM     20  C   UNL     1       2.794  -7.108   5.653  0.00  0.00    +0.004 A 
ENDBRANCH  14  18
ENDBRANCH   8  14
ENDBRANCH   1  11
BRANCH   5  21
ATOM     21  N   UNL     1       4.431   0.958   1.473  0.00  0.00    +0.387 N 
ATOM     22  H   UNL     1       4.476   0.026   1.045  0.00  0.00    -0.085 HD
ATOM     23  H   UNL     1       4.983   1.619   0.914  0.00  0.00    -0.085 HD
BRANCH  21  24
ATOM     24  C   UNL     1       3.027   1.409   1.513  0.00  0.00    -0.077 C 
BRANCH  24  25
ATOM     25  C   UNL     1       2.478   1.466   0.085  0.00  0.00    +0.018 C 
BRANCH  25  26
ATOM     26  C   UNL     1       1.044   1.925   0.116  0.00  0.00    -0.024 A 
ATOM     27  C   UNL     1      -0.046   1.141   0.123  0.00  0.00    +0.087 A 
ATOM     28  N   UNL     1      -1.176   1.913   0.148  0.00  0.00    -0.360 N 
ATOM     29  H   UNL     1      -2.084   1.571   0.153  0.00  0.00    +0.165 HD
ATOM     30  C   UNL     1      -0.832   3.247   0.167  0.00  0.00    +0.047 A 
ATOM     31  C   UNL     1       0.573   3.313   0.145  0.00  0.00    +0.004 A 
ATOM     32  C   UNL     1       1.213   4.553   0.152  0.00  0.00    +0.030 A 
ATOM     33  C   UNL     1       0.462   5.707   0.181  0.00  0.00    +0.042 A 
ATOM     34  C   UNL     1      -0.925   5.641   0.204  0.00  0.00    +0.022 A 
ATOM     35  C   UNL     1      -1.571   4.424   0.197  0.00  0.00    +0.027 A 
ATOM     36 CL   UNL     1       1.253   7.253   0.191  0.00  0.00    -0.084 Cl
ENDBRANCH  25  26
ENDBRANCH  24  25
ENDBRANCH  21  24
ENDBRANCH   5  21
TORSDOF 7
