REMARK  Name = ZINC67274722
REMARK  4 active torsions:
REMARK  status: ('A' for Active; 'I' for Inactive)
REMARK    1  A    between atoms: C_4  and  C_7
REMARK    2  A    between atoms: C_7  and  C_14
REMARK    3  A    between atoms: C_14  and  N_15
REMARK    4  A    between atoms: C_16  and  C_18
REMARK                            x       y       z     vdW  Elec       q    Type
REMARK                         _______ _______ _______ _____ _____    ______ ____
ROOT
ATOM      1  N   UNL     1       4.683   1.202   1.141  0.00  0.00    -0.314 N 
ATOM      2  C   UNL     1       5.466   1.819   2.049  0.00  0.00    +0.216 C 
ATOM      3  O   UNL     1       6.056   1.166   2.884  0.00  0.00    -0.276 OA
ATOM      4  H   UNL     1       4.211   1.724   0.474  0.00  0.00    +0.149 HD
ENDROOT
BRANCH   2   5
ATOM      5  C   UNL     1       5.607   3.319   2.027  0.00  0.00    +0.075 C 
ATOM      6  C   UNL     1       6.186   3.757   0.681  0.00  0.00    +0.015 C 
ATOM      7  C   UNL     1       6.318   5.282   0.655  0.00  0.00    +0.036 C 
ATOM      8  C   UNL     1       7.228   5.736   1.791  0.00  0.00    +0.112 C 
ATOM      9  C   UNL     1       6.676   5.285   3.139  0.00  0.00    +0.036 C 
ATOM     10  C   UNL     1       6.543   3.760   3.154  0.00  0.00    +0.015 C 
ATOM     11  C   UNL     1       8.629   5.205   1.590  0.00  0.00    +0.244 C 
ATOM     12  O   UNL     1       8.974   4.044   1.541  0.00  0.00    -0.273 OA
ATOM     13  N   UNL     1       9.415   6.296   1.475  0.00  0.00    -0.238 N 
ATOM     14  C   UNL     1       8.706   7.427   1.576  0.00  0.00    +0.307 C 
ATOM     15  O   UNL     1       9.192   8.539   1.505  0.00  0.00    -0.252 OA
ATOM     16  N   UNL     1       7.393   7.195   1.766  0.00  0.00    -0.285 N 
ATOM     17  H   UNL     1      10.374   6.265   1.337  0.00  0.00    +0.159 HD
ATOM     18  H   UNL     1       6.694   7.861   1.866  0.00  0.00    +0.151 HD
ENDBRANCH   2   5
BRANCH   1  19
ATOM     19  C   UNL     1       4.546  -0.256   1.163  0.00  0.00    +0.115 C 
BRANCH  19  20
ATOM     20  C   UNL     1       3.727  -0.709  -0.048  0.00  0.00    +0.011 C 
ATOM     21  C   UNL     1       4.300  -0.042  -1.313  0.00  0.00    +0.013 C 
ATOM     22  C   UNL     1       5.572  -0.741  -1.832  0.00  0.00    +0.001 C 
ATOM     23  C   UNL     1       6.508  -1.132  -0.721  0.00  0.00    +0.000 C 
ATOM     24  C   UNL     1       6.213  -2.593  -0.324  0.00  0.00    +0.000 C 
ATOM     25  C   UNL     1       5.055  -2.708   0.550  0.00  0.00    +0.001 C 
ATOM     26  C   UNL     1       3.759  -2.211  -0.123  0.00  0.00    +0.013 C 
BRANCH  20  30
ATOM     27  C   UNL     1      -0.318   0.563   0.472  0.00  0.00    +0.000 A 
ATOM     28  C   UNL     1       0.232  -0.362   1.339  0.00  0.00    +0.000 A 
ATOM     29  C   UNL     1       1.541  -0.774   1.171  0.00  0.00    +0.004 A 
ATOM     30  C   UNL     1       2.300  -0.261   0.135  0.00  0.00    -0.040 A 
ATOM     31  C   UNL     1       1.749   0.664  -0.732  0.00  0.00    +0.004 A 
ATOM     32  C   UNL     1       0.441   1.077  -0.563  0.00  0.00    +0.000 A 
ENDBRANCH  20  30
ENDBRANCH  19  20
ENDBRANCH   1  19
TORSDOF 4
