REMARK  Name = ZINC40713474
REMARK  3 active torsions:
REMARK  status: ('A' for Active; 'I' for Inactive)
REMARK    1  A    between atoms: C_5  and  O_7
REMARK    2  A    between atoms: O_7  and  C_8
REMARK    3  A    between atoms: C_9  and  N_15
REMARK                            x       y       z     vdW  Elec       q    Type
REMARK                         _______ _______ _______ _____ _____    ______ ____
ROOT
ATOM      1  C   UNL     1      -0.084   1.350   0.129  0.00  0.00    +0.004 A 
ATOM      2  C   UNL     1       1.079   2.087   0.018  0.00  0.00    +0.005 A 
ATOM      3  C   UNL     1       2.304   1.450  -0.107  0.00  0.00    -0.023 A 
ATOM      4  C   UNL     1       2.357   0.067  -0.117  0.00  0.00    +0.073 A 
ATOM      5  C   UNL     1       1.183  -0.678  -0.006  0.00  0.00    +0.151 A 
ATOM      6  C   UNL     1      -0.036  -0.032   0.116  0.00  0.00    +0.048 A 
ATOM      7  N   UNL     1       3.583  -0.604  -0.232  0.00  0.00    -0.341 N 
ATOM      8  C   UNL     1       4.772   0.156  -0.642  0.00  0.00    +0.102 C 
ATOM      9  C   UNL     1       4.784   1.470   0.149  0.00  0.00    +0.023 C 
ATOM     10  C   UNL     1       3.550   2.287  -0.231  0.00  0.00    +0.038 C 
ATOM     11  H   UNL     1       3.645  -1.554  -0.044  0.00  0.00    +0.146 HD
ENDROOT
BRANCH   5  12
ATOM     12  O   UNL     1       1.235  -2.037  -0.020  0.00  0.00    -0.434 OA
BRANCH  12  13
ATOM     13  C   UNL     1       1.463  -2.677   1.154  0.00  0.00    +0.251 A 
ATOM     14  C   UNL     1       1.603  -4.059   1.168  0.00  0.00    +0.189 A 
ATOM     15  C   UNL     1       1.835  -4.701   2.371  0.00  0.00    +0.055 A 
ATOM     16  C   UNL     1       1.920  -3.933   3.526  0.00  0.00    +0.038 A 
ATOM     17  C   UNL     1       1.770  -2.562   3.438  0.00  0.00    +0.130 A 
ATOM     18  N   UNL     1       1.555  -1.979   2.274  0.00  0.00    -0.218 NA
ATOM     19 BR   UNL     1       2.235  -4.754   5.200  0.00  0.00    -0.049 Br
BRANCH  14  20
ATOM     20  N   UNL     1       1.505  -4.835  -0.089  0.00  0.00    +0.062 N 
ATOM     21  O   UNL     1       1.628  -6.038  -0.068  0.00  0.00    -0.126 OA
ATOM     22  O   UNL     1       1.302  -4.267  -1.136  0.00  0.00    -0.126 OA
ENDBRANCH  14  20
ENDBRANCH  12  13
ENDBRANCH   5  12
TORSDOF 3
