REMARK  Name = ZINC08590250
REMARK  7 active torsions:
REMARK  status: ('A' for Active; 'I' for Inactive)
REMARK    1  A    between atoms: C_1  and  C_2
REMARK    2  A    between atoms: C_2  and  N_3
REMARK    3  A    between atoms: C_9  and  N_25
REMARK    4  A    between atoms: C_10  and  C_11
REMARK    5  A    between atoms: C_11  and  C_13
REMARK    6  A    between atoms: C_11  and  N_14
REMARK    7  A    between atoms: N_17  and  C_18
REMARK                            x       y       z     vdW  Elec       q    Type
REMARK                         _______ _______ _______ _____ _____    ______ ____
ROOT
ATOM      1  N   UNL     1      -1.166  -0.571  -0.358  0.00  0.00    +0.383 N 
ATOM      2  C   UNL     1      -1.173  -2.036  -0.250  0.00  0.00    -0.074 C 
ATOM      3  C   UNL     1      -2.553  -2.529   0.194  0.00  0.00    +0.018 C 
ATOM      4  C   UNL     1      -3.594  -1.930  -0.749  0.00  0.00    -0.034 A 
ATOM      5  C   UNL     1      -3.254  -0.859  -1.518  0.00  0.00    -0.021 A 
ATOM      6  S   UNL     1      -4.729  -0.511  -2.435  0.00  0.00    -0.077 S 
ATOM      7  C   UNL     1      -5.749  -1.810  -1.753  0.00  0.00    +0.090 A 
ATOM      8  C   UNL     1      -4.893  -2.411  -0.883  0.00  0.00    +0.007 A 
ATOM      9  C   UNL     1      -1.933  -0.163  -1.549  0.00  0.00    -0.035 C 
ATOM     10  H   UNL     1      -1.587  -0.171   0.467  0.00  0.00    -0.081 HD
ENDROOT
BRANCH   7  11
ATOM     11  N   UNL     1      -7.081  -2.127  -2.040  0.00  0.00    -0.317 N 
ATOM     12  C   UNL     1      -8.113  -1.237  -2.115  0.00  0.00    +0.092 A 
ATOM     13  C   UNL     1      -9.239  -1.919  -2.411  0.00  0.00    +0.019 A 
ATOM     14  C   UNL     1      -8.891  -3.280  -2.524  0.00  0.00    +0.019 A 
ATOM     15  C   UNL     1      -7.564  -3.378  -2.298  0.00  0.00    +0.092 A 
ENDBRANCH   7  11
BRANCH   1  17
ATOM     16  C   UNL     1       0.236   1.434  -0.469  0.00  0.00    -0.017 C 
ATOM     17  C   UNL     1       0.219  -0.096  -0.481  0.00  0.00    -0.082 C 
ENDBRANCH   1  17
BRANCH   8  18
ATOM     18  C   UNL     1      -5.351  -3.592  -0.066  0.00  0.00    +0.104 C 
ATOM     19  C   UNL     1      -4.703  -4.868  -0.608  0.00  0.00    +0.033 C 
BRANCH  18  20
ATOM     20  N   UNL     1      -4.958  -3.400   1.332  0.00  0.00    -0.292 N 
ATOM     21  C   UNL     1      -5.562  -4.111   2.305  0.00  0.00    +0.304 C 
ATOM     22  O   UNL     1      -6.432  -4.912   2.022  0.00  0.00    -0.252 OA
ATOM     23  N   UNL     1      -5.201  -3.935   3.591  0.00  0.00    -0.269 N 
ATOM     24  H   UNL     1      -4.264  -2.762   1.558  0.00  0.00    +0.151 HD
ATOM     25  H   UNL     1      -4.462  -3.346   3.811  0.00  0.00    +0.156 HD
BRANCH  23  26
ATOM     26  C   UNL     1      -5.892  -4.602   4.610  0.00  0.00    +0.035 A 
ATOM     27  C   UNL     1      -6.104  -3.976   5.831  0.00  0.00    +0.024 A 
ATOM     28  C   UNL     1      -6.786  -4.636   6.835  0.00  0.00    +0.017 A 
ATOM     29  C   UNL     1      -7.258  -5.919   6.623  0.00  0.00    +0.018 A 
ATOM     30  C   UNL     1      -7.049  -6.545   5.407  0.00  0.00    +0.017 A 
ATOM     31  C   UNL     1      -6.372  -5.887   4.399  0.00  0.00    +0.024 A 
ATOM     32 BR   UNL     1      -8.192  -6.820   8.000  0.00  0.00    -0.050 Br
ENDBRANCH  23  26
ENDBRANCH  18  20
ENDBRANCH   8  18
TORSDOF 5
