REMARK  Name = ZINC20994899
REMARK  8 active torsions:
REMARK  status: ('A' for Active; 'I' for Inactive)
REMARK    1  A    between atoms: C_1  and  C_2
REMARK    2  A    between atoms: C_2  and  C_3
REMARK    3  A    between atoms: C_3  and  N_4
REMARK    4  A    between atoms: C_13  and  O_14
REMARK    5  A    between atoms: C_15  and  N_16
REMARK    6  A    between atoms: N_16  and  S_17
REMARK    7  A    between atoms: S_17  and  C_20
REMARK    8  A    between atoms: C_25  and  N_26
REMARK                            x       y       z     vdW  Elec       q    Type
REMARK                         _______ _______ _______ _____ _____    ______ ____
ROOT
ATOM      1  N   UNL     1      -3.266   2.267  -0.373  0.00  0.00    -0.382 N 
ATOM      2  C   UNL     1      -2.157   3.089  -0.472  0.00  0.00    +0.076 A 
ATOM      3  C   UNL     1      -0.862   2.689   0.099  0.00  0.00    +0.042 A 
ATOM      4  C   UNL     1      -0.714   1.468   0.760  0.00  0.00    +0.013 A 
ATOM      5  C   UNL     1       0.511   1.124   1.289  0.00  0.00    +0.001 A 
ATOM      6  C   UNL     1       1.592   1.984   1.169  0.00  0.00    +0.004 A 
ATOM      7  C   UNL     1       1.459   3.193   0.518  0.00  0.00    +0.047 A 
ATOM      8  C   UNL     1       0.233   3.560  -0.023  0.00  0.00    +0.141 A 
ATOM      9  O   UNL     1       0.089   4.741  -0.661  0.00  0.00    -0.424 OA
ATOM     10  C   UNL     1      -1.083   5.122  -1.194  0.00  0.00    +0.310 A 
ATOM     11  C   UNL     1      -2.230   4.311  -1.117  0.00  0.00    +0.152 A 
ATOM     12  H   UNL     1      -3.327   1.351  -0.979  0.00  0.00    +0.160 HD
ENDROOT
BRANCH  10  13
ATOM     13  O   UNL     1      -1.155   6.199  -1.760  0.00  0.00    -0.479 OA
ATOM     14  H   UNL     1      -2.108   6.526  -2.201  0.00  0.00    +0.295 HD
ENDBRANCH  10  13
BRANCH  11  15
ATOM     15  N   UNL     1      -3.442   4.741  -1.686  0.00  0.00    -0.208 N 
ATOM     16  H   UNL     1      -4.347   4.809  -1.065  0.00  0.00    +0.174 HD
BRANCH  15  17
ATOM     17  S   UNL     1      -3.506   5.146  -3.291  0.00  0.00    +0.075 S 
ATOM     18  O   UNL     1      -4.869   5.417  -3.587  0.00  0.00    -0.150 OA
ATOM     19  O   UNL     1      -2.474   6.098  -3.511  0.00  0.00    -0.150 OA
BRANCH  17  20
ATOM     20  C   UNL     1      -3.067   3.707  -4.208  0.00  0.00    +0.139 A 
ATOM     21  C   UNL     1      -1.945   3.718  -5.017  0.00  0.00    +0.031 A 
ATOM     22  C   UNL     1      -1.598   2.588  -5.733  0.00  0.00    +0.002 A 
ATOM     23  C   UNL     1      -2.379   1.450  -5.649  0.00  0.00    +0.002 A 
ATOM     24  C   UNL     1      -3.503   1.440  -4.845  0.00  0.00    +0.035 A 
ATOM     25  C   UNL     1      -3.847   2.569  -4.125  0.00  0.00    +0.153 A 
BRANCH  25  26
ATOM     26  N   UNL     1      -5.051   2.559  -3.264  0.00  0.00    +0.058 N 
ATOM     27  O   UNL     1      -5.806   1.603  -3.284  0.00  0.00    -0.126 OA
ATOM     28  O   UNL     1      -5.288   3.507  -2.537  0.00  0.00    -0.126 OA
ENDBRANCH  25  26
ENDBRANCH  17  20
ENDBRANCH  15  17
ENDBRANCH  11  15
BRANCH   1  29
ATOM     29  C   UNL     1      -4.233   2.803   0.594  0.00  0.00    +0.112 C 
BRANCH  29  31
ATOM     30  C   UNL     1      -6.466   2.445   1.657  0.00  0.00    +0.005 C 
ATOM     31  C   UNL     1      -5.458   1.888   0.650  0.00  0.00    +0.017 C 
ENDBRANCH  29  31
ENDBRANCH   1  29
TORSDOF 7
