REMARK  Name = ZINC20167905
REMARK  11 active torsions:
REMARK  status: ('A' for Active; 'I' for Inactive)
REMARK    1  A    between atoms: C_1  and  C_2
REMARK    2  A    between atoms: C_2  and  O_3
REMARK    3  A    between atoms: O_3  and  C_4
REMARK    4  A    between atoms: C_4  and  C_6
REMARK    5  A    between atoms: C_7  and  N_37
REMARK    6  A    between atoms: C_9  and  C_10
REMARK    7  A    between atoms: C_18  and  C_32
REMARK    8  A    between atoms: C_20  and  C_25
REMARK    9  A    between atoms: C_32  and  O_34
REMARK   10  A    between atoms: O_34  and  C_35
REMARK   11  A    between atoms: C_35  and  C_36
REMARK                            x       y       z     vdW  Elec       q    Type
REMARK                         _______ _______ _______ _____ _____    ______ ____
ROOT
ATOM      1  C   UNL     1      -1.654   1.288  -3.764  0.00  0.00    +0.155 A 
ATOM      2  C   UNL     1      -2.449   2.409  -3.667  0.00  0.00    +0.065 A 
ATOM      3  C   UNL     1      -2.414   3.081  -4.979  0.00  0.00    +0.024 A 
ATOM      4  C   UNL     1      -3.020   4.273  -5.326  0.00  0.00    +0.019 C 
ATOM      5  C   UNL     1      -1.599   2.215  -5.837  0.00  0.00    +0.079 A 
ATOM      6  C   UNL     1      -1.359   2.369  -7.190  0.00  0.00    +0.118 C 
ATOM      7  S   UNL     1      -0.404   1.124  -8.006  0.00  0.00    -0.099 S 
ATOM      8  C   UNL     1       0.647   0.475  -6.674  0.00  0.00    +0.170 C 
ATOM      9  C   UNL     1      -0.175   0.287  -5.427  0.00  0.00    +0.250 C 
ATOM     10  O   UNL     1      -0.012  -0.709  -4.755  0.00  0.00    -0.271 OA
ATOM     11  N   UNL     1      -1.084   1.203  -5.039  0.00  0.00    -0.270 N 
ENDROOT
BRANCH   4  12
ATOM     12  C   UNL     1      -3.650   5.102  -4.295  0.00  0.00    -0.024 A 
ATOM     13  C   UNL     1      -4.883   5.720  -4.544  0.00  0.00    +0.011 A 
ATOM     14  C   UNL     1      -5.470   6.495  -3.569  0.00  0.00    +0.039 A 
ATOM     15  C   UNL     1      -4.840   6.671  -2.345  0.00  0.00    +0.123 A 
ATOM     16  C   UNL     1      -3.618   6.066  -2.092  0.00  0.00    +0.039 A 
ATOM     17  C   UNL     1      -3.019   5.285  -3.056  0.00  0.00    +0.011 A 
ATOM     18  F   UNL     1      -5.421   7.436  -1.395  0.00  0.00    -0.205 F 
ENDBRANCH   4  12
BRANCH   8  19
ATOM     19  C   UNL     1       1.229  -0.850  -7.095  0.00  0.00    -0.025 A 
ATOM     20  C   UNL     1       0.392  -1.907  -7.399  0.00  0.00    +0.008 A 
ATOM     21  C   UNL     1       0.924  -3.121  -7.790  0.00  0.00    +0.038 A 
ATOM     22  C   UNL     1       2.297  -3.281  -7.867  0.00  0.00    +0.123 A 
ATOM     23  C   UNL     1       3.135  -2.223  -7.556  0.00  0.00    +0.038 A 
ATOM     24  C   UNL     1       2.600  -1.009  -7.171  0.00  0.00    +0.008 A 
ATOM     25  F   UNL     1       2.819  -4.469  -8.244  0.00  0.00    -0.205 F 
ENDBRANCH   8  19
BRANCH   2  26
ATOM     26  N   UNL     1      -3.147   2.827  -2.549  0.00  0.00    -0.356 N 
ATOM     27  H   UNL     1      -3.752   3.744  -2.590  0.00  0.00    +0.142 HD
ATOM     28  H   UNL     1      -3.097   2.241  -1.619  0.00  0.00    +0.142 HD
ENDBRANCH   2  26
BRANCH   1  29
ATOM     29  C   UNL     1      -1.441   0.360  -2.723  0.00  0.00    +0.358 C 
ATOM     30  O   UNL     1      -0.329  -0.098  -2.533  0.00  0.00    -0.243 OA
BRANCH  29  31
ATOM     31  O   UNL     1      -2.471  -0.022  -1.937  0.00  0.00    -0.460 OA
BRANCH  31  33
ATOM     32  C   UNL     1      -3.463  -1.273  -0.123  0.00  0.00    +0.048 C 
ATOM     33  C   UNL     1      -2.183  -0.965  -0.903  0.00  0.00    +0.229 C 
ENDBRANCH  31  33
ENDBRANCH  29  31
ENDBRANCH   1  29
BRANCH   6  34
ATOM     34  C   UNL     1      -1.860   3.486  -7.897  0.00  0.00    +0.348 C 
ATOM     35  O   UNL     1      -2.888   3.387  -8.543  0.00  0.00    -0.244 OA
BRANCH  34  36
ATOM     36  O   UNL     1      -1.199   4.663  -7.857  0.00  0.00    -0.461 OA
BRANCH  36  37
ATOM     37  C   UNL     1      -1.762   5.750  -8.595  0.00  0.00    +0.229 C 
ATOM     38  C   UNL     1      -0.881   6.989  -8.431  0.00  0.00    +0.048 C 
ENDBRANCH  36  37
ENDBRANCH  34  36
ENDBRANCH   6  34
TORSDOF 9
