REMARK  Name = ZINC22828631
REMARK  8 active torsions:
REMARK  status: ('A' for Active; 'I' for Inactive)
REMARK    1  A    between atoms: C_1  and  C_2
REMARK    2  A    between atoms: C_2  and  O_3
REMARK    3  A    between atoms: O_3  and  C_4
REMARK    4  A    between atoms: C_4  and  C_6
REMARK    5  A    between atoms: C_7  and  C_21
REMARK    6  A    between atoms: C_12  and  C_14
REMARK    7  A    between atoms: C_21  and  N_22
REMARK    8  A    between atoms: N_25  and  C_28
REMARK                            x       y       z     vdW  Elec       q    Type
REMARK                         _______ _______ _______ _____ _____    ______ ____
ROOT
ATOM      1  C   UNL     1      -2.795  -2.407   0.103  0.00  0.00    +0.079 C 
ATOM      2  C   UNL     1      -2.985  -3.731  -0.085  0.00  0.00    +0.038 C 
ATOM      3  N   UNL     1      -4.241  -4.259  -0.163  0.00  0.00    -0.271 N 
ATOM      4  C   UNL     1      -5.360  -3.530  -0.064  0.00  0.00    +0.304 C 
ATOM      5  O   UNL     1      -6.436  -4.090  -0.146  0.00  0.00    -0.252 OA
ATOM      6  N   UNL     1      -5.333  -2.196   0.125  0.00  0.00    -0.288 N 
ATOM      7  C   UNL     1      -4.024  -1.529   0.229  0.00  0.00    +0.144 C 
ATOM      8  H   UNL     1      -4.329  -5.215  -0.298  0.00  0.00    +0.156 HD
ATOM      9  H   UNL     1      -6.156  -1.687   0.193  0.00  0.00    +0.151 HD
ENDROOT
BRANCH   7  10
ATOM     10  C   UNL     1      -3.957  -0.478  -0.848  0.00  0.00    -0.022 A 
ATOM     11  C   UNL     1      -4.336  -0.787  -2.141  0.00  0.00    +0.007 A 
ATOM     12  C   UNL     1      -4.274   0.177  -3.130  0.00  0.00    +0.020 A 
ATOM     13  C   UNL     1      -3.833   1.452  -2.825  0.00  0.00    +0.041 A 
ATOM     14  C   UNL     1      -3.453   1.761  -1.531  0.00  0.00    +0.020 A 
ATOM     15  C   UNL     1      -3.521   0.798  -0.542  0.00  0.00    +0.007 A 
ATOM     16 CL   UNL     1      -3.754   2.663  -4.066  0.00  0.00    -0.084 Cl
ENDBRANCH   7  10
BRANCH   1  17
ATOM     17  C   UNL     1      -1.494  -1.859   0.184  0.00  0.00    +0.339 C 
ATOM     18  O   UNL     1      -1.020  -1.575   1.269  0.00  0.00    -0.245 OA
BRANCH  17  19
ATOM     19  O   UNL     1      -0.778  -1.650  -0.940  0.00  0.00    -0.462 OA
BRANCH  19  21
ATOM     20  C   UNL     1       1.182  -0.930  -2.158  0.00  0.00    +0.048 C 
ATOM     21  C   UNL     1       0.529  -1.093  -0.783  0.00  0.00    +0.229 C 
ENDBRANCH  19  21
ENDBRANCH  17  19
ENDBRANCH   1  17
BRANCH   2  22
ATOM     22  C   UNL     1      -1.789  -4.640  -0.210  0.00  0.00    +0.135 C 
BRANCH  22  23
ATOM     23  N   UNL     1      -1.770  -5.582   0.917  0.00  0.00    -0.300 NA
ATOM     24  C   UNL     1      -1.537  -4.880   2.187  0.00  0.00    +0.066 C 
ATOM     25  C   UNL     1      -1.584  -5.886   3.339  0.00  0.00    -0.062 C 
ATOM     26  N   UNL     1      -0.556  -6.915   3.133  0.00  0.00    +0.385 N 
ATOM     27  C   UNL     1      -0.817  -7.624   1.873  0.00  0.00    -0.062 C 
ATOM     28  C   UNL     1      -0.764  -6.632   0.709  0.00  0.00    +0.066 C 
ATOM     29  H   UNL     1       0.352  -6.479   3.091  0.00  0.00    -0.081 HD
BRANCH  26  30
ATOM     30  C   UNL     1      -0.590  -7.870   4.248  0.00  0.00    -0.065 C 
ATOM     31  C   UNL     1      -1.968  -8.531   4.313  0.00  0.00    -0.009 C 
ATOM     32  C   UNL     1      -2.003  -9.526   5.474  0.00  0.00    -0.012 C 
ATOM     33  C   UNL     1      -0.933 -10.598   5.260  0.00  0.00    +0.007 C 
ATOM     34  C   UNL     1       0.446  -9.937   5.196  0.00  0.00    -0.012 C 
ATOM     35  C   UNL     1       0.480  -8.942   4.034  0.00  0.00    -0.009 C 
ATOM     36  C   UNL     1       0.719  -9.199   6.508  0.00  0.00    +0.007 C 
ATOM     37  C   UNL     1      -0.352  -8.127   6.722  0.00  0.00    -0.012 C 
ATOM     38  C   UNL     1      -1.730  -8.788   6.786  0.00  0.00    +0.007 C 
ATOM     39  C   UNL     1      -0.317  -7.132   5.561  0.00  0.00    -0.009 C 
ENDBRANCH  26  30
ENDBRANCH  22  23
ENDBRANCH   2  22
TORSDOF 7
