REMARK  Name = ZINC39696060
REMARK  9 active torsions:
REMARK  status: ('A' for Active; 'I' for Inactive)
REMARK    1  A    between atoms: C_1  and  C_2
REMARK    2  A    between atoms: C_2  and  C_3
REMARK    3  A    between atoms: C_6  and  C_9
REMARK    4  A    between atoms: C_9  and  C_11
REMARK    5  A    between atoms: C_9  and  N_12
REMARK    6  A    between atoms: C_13  and  C_15
REMARK    7  A    between atoms: C_26  and  C_28
REMARK    8  A    between atoms: C_29  and  C_40
REMARK    9  A    between atoms: C_32  and  C_33
REMARK                            x       y       z     vdW  Elec       q    Type
REMARK                         _______ _______ _______ _____ _____    ______ ____
ROOT
ATOM      1  C   UNL     1      -6.692  -4.983  -1.997  0.00  0.00    +0.100 C 
ATOM      2  C   UNL     1      -5.375  -5.764  -2.202  0.00  0.00    +0.121 C 
ATOM      3  N   UNL     1      -5.529  -6.981  -1.371  0.00  0.00    -0.296 N 
ATOM      4  C   UNL     1      -6.945  -7.378  -1.558  0.00  0.00    +0.115 C 
ATOM      5  C   UNL     1      -7.721  -6.047  -1.579  0.00  0.00    -0.004 C 
ATOM      6  C   UNL     1      -8.857  -6.113  -2.595  0.00  0.00    -0.010 C 
ATOM      7  C   UNL     1      -9.896  -7.136  -2.128  0.00  0.00    -0.082 C 
ATOM      8  N   UNL     1     -10.413  -6.743  -0.811  0.00  0.00    +0.379 N 
ATOM      9  C   UNL     1      -9.332  -6.772   0.181  0.00  0.00    -0.082 C 
ATOM     10  C   UNL     1      -8.269  -5.734  -0.189  0.00  0.00    -0.010 C 
ATOM     11  C   UNL     1      -4.593  -7.591  -0.617  0.00  0.00    +0.252 C 
ATOM     12  O   UNL     1      -4.876  -8.592   0.012  0.00  0.00    -0.270 OA
ATOM     13  H   UNL     1     -10.793  -5.810  -0.865  0.00  0.00    -0.086 HD
ATOM     14  H   UNL     1     -11.141  -7.384  -0.532  0.00  0.00    -0.086 HD
ENDROOT
BRANCH  11  15
ATOM     15  C   UNL     1      -3.227  -7.044  -0.556  0.00  0.00    +0.106 A 
ATOM     16  C   UNL     1      -2.757  -6.127   0.338  0.00  0.00    +0.147 A 
ATOM     17  O   UNL     1      -1.471  -5.893   0.062  0.00  0.00    -0.359 OA
ATOM     18  N   UNL     1      -1.077  -6.677  -1.047  0.00  0.00    -0.077 NA
ATOM     19  C   UNL     1      -2.104  -7.386  -1.442  0.00  0.00    +0.127 A 
ATOM     20  C   UNL     1      -3.552  -5.488   1.447  0.00  0.00    +0.090 C 
BRANCH  19  21
ATOM     21  C   UNL     1      -2.131  -8.349  -2.570  0.00  0.00    +0.023 A 
ATOM     22  C   UNL     1      -3.307  -9.029  -2.881  0.00  0.00    +0.011 A 
ATOM     23  C   UNL     1      -3.326  -9.923  -3.932  0.00  0.00    +0.001 A 
ATOM     24  C   UNL     1      -2.181 -10.146  -4.676  0.00  0.00    +0.001 A 
ATOM     25  C   UNL     1      -1.011  -9.475  -4.373  0.00  0.00    +0.020 A 
ATOM     26  C   UNL     1      -0.981  -8.572  -3.327  0.00  0.00    +0.050 A 
ATOM     27 CL   UNL     1       0.486  -7.724  -2.952  0.00  0.00    -0.083 Cl
ENDBRANCH  19  21
ENDBRANCH  11  15
BRANCH   1  29
ATOM     28  N   UNL     1      -7.325  -2.866  -0.884  0.00  0.00    -0.308 N 
ATOM     29  C   UNL     1      -6.529  -3.954  -0.909  0.00  0.00    +0.219 C 
ATOM     30  O   UNL     1      -5.681  -4.104  -0.054  0.00  0.00    -0.275 OA
ATOM     31  H   UNL     1      -8.003  -2.746  -1.567  0.00  0.00    +0.149 HD
BRANCH  28  32
ATOM     32  C   UNL     1      -7.166  -1.866   0.174  0.00  0.00    +0.100 C 
ATOM     33  C   UNL     1      -7.964  -2.297   1.407  0.00  0.00    +0.033 C 
BRANCH  32  37
ATOM     34  C   UNL     1      -8.607   1.910  -1.209  0.00  0.00    -0.048 A 
ATOM     35  C   UNL     1      -7.458   1.847  -0.443  0.00  0.00    +0.004 A 
ATOM     36  C   UNL     1      -6.992   0.625   0.004  0.00  0.00    +0.006 A 
ATOM     37  C   UNL     1      -7.675  -0.534  -0.313  0.00  0.00    -0.027 A 
ATOM     38  C   UNL     1      -8.824  -0.471  -1.079  0.00  0.00    +0.006 A 
ATOM     39  C   UNL     1      -9.293   0.751  -1.523  0.00  0.00    +0.004 A 
BRANCH  34  41
ATOM     40  C   UNL     1     -10.073   3.833  -0.662  0.00  0.00    +0.009 C 
ATOM     41  C   UNL     1      -9.115   3.242  -1.698  0.00  0.00    +0.032 C 
ENDBRANCH  34  41
ENDBRANCH  32  37
ENDBRANCH  28  32
ENDBRANCH   1  29
TORSDOF 6
