REMARK  Name = ZINC44457897
REMARK  6 active torsions:
REMARK  status: ('A' for Active; 'I' for Inactive)
REMARK    1  A    between atoms: C_1  and  C_2
REMARK    2  A    between atoms: C_5  and  N_12
REMARK    3  A    between atoms: C_8  and  C_10
REMARK    4  A    between atoms: C_8  and  C_11
REMARK    5  A    between atoms: C_13  and  C_15
REMARK    6  A    between atoms: N_23  and  C_24
REMARK                            x       y       z     vdW  Elec       q    Type
REMARK                         _______ _______ _______ _____ _____    ______ ____
ROOT
ATOM      1  N   UNL     1       1.434  -2.498  -2.469  0.00  0.00    -0.312 N 
ATOM      2  C   UNL     1       0.750  -2.627  -3.623  0.00  0.00    +0.216 C 
ATOM      3  O   UNL     1      -0.430  -2.349  -3.663  0.00  0.00    -0.276 OA
ATOM      4  H   UNL     1       2.378  -2.720  -2.437  0.00  0.00    +0.149 HD
ENDROOT
BRANCH   2   5
ATOM      5  C   UNL     1       1.452  -3.115  -4.864  0.00  0.00    +0.078 C 
ATOM      6  C   UNL     1       2.594  -2.158  -5.214  0.00  0.00    +0.032 C 
ATOM      7  C   UNL     1       3.326  -2.676  -6.456  0.00  0.00    +0.110 C 
ATOM      8  N   UNL     1       2.348  -2.869  -7.535  0.00  0.00    -0.286 N 
ATOM      9  C   UNL     1       1.164  -3.698  -7.276  0.00  0.00    +0.110 C 
ATOM     10  C   UNL     1       0.456  -3.169  -6.025  0.00  0.00    +0.032 C 
ATOM     11  C   UNL     1       2.534  -2.295  -8.741  0.00  0.00    +0.302 C 
ATOM     12  O   UNL     1       3.467  -1.535  -8.915  0.00  0.00    -0.253 OA
ATOM     13  N   UNL     1       1.686  -2.565  -9.753  0.00  0.00    -0.296 N 
ATOM     14  H   UNL     1       0.902  -3.114  -9.596  0.00  0.00    +0.151 HD
BRANCH  13  15
ATOM     15  C   UNL     1       1.949  -2.029 -11.091  0.00  0.00    +0.075 C 
ATOM     16  C   UNL     1       1.755  -2.972 -12.280  0.00  0.00    +0.024 C 
ATOM     17  C   UNL     1       0.752  -1.845 -12.026  0.00  0.00    +0.024 C 
ENDBRANCH  13  15
ENDBRANCH   2   5
BRANCH   1  21
ATOM     18  C   UNL     1       0.010   1.532   0.016  0.00  0.00    +0.007 C 
ATOM     19  C   UNL     1       0.025   0.002   0.007  0.00  0.00    -0.012 C 
ATOM     20  C   UNL     1       0.737  -0.493  -1.253  0.00  0.00    +0.025 C 
ATOM     21  C   UNL     1       0.752  -2.023  -1.262  0.00  0.00    +0.074 C 
ATOM     22  C   UNL     1       1.492  -2.533  -0.024  0.00  0.00    +0.028 C 
ATOM     23  C   UNL     1       0.780  -2.038   1.236  0.00  0.00    -0.033 C 
ATOM     24  C   UNL     1       0.765  -0.508   1.245  0.00  0.00    +0.009 C 
ATOM     25  C   UNL     1      -0.657  -2.562   1.249  0.00  0.00    +0.011 C 
ATOM     26  C   UNL     1       1.520  -2.548   2.474  0.00  0.00    +0.011 C 
ENDBRANCH   1  21
TORSDOF 3
