REMARK  Name = ZINC09088693
REMARK  5 active torsions:
REMARK  status: ('A' for Active; 'I' for Inactive)
REMARK    1  A    between atoms: C_10  and  C_11
REMARK    2  A    between atoms: C_13  and  C_17
REMARK    3  A    between atoms: N_19  and  N_20
REMARK    4  A    between atoms: C_21  and  C_22
REMARK    5  A    between atoms: C_27  and  O_28
REMARK                            x       y       z     vdW  Elec       q    Type
REMARK                         _______ _______ _______ _____ _____    ______ ____
ROOT
ATOM      1  C   UNL     1       4.949   0.138  -0.044  0.00  0.00    +0.094 A 
ATOM      2  C   UNL     1       6.243  -0.409   0.035  0.00  0.00    +0.062 A 
ATOM      3  C   UNL     1       7.100   0.674  -0.009  0.00  0.00    +0.122 A 
ATOM      4  N   UNL     1       6.313   1.787  -0.108  0.00  0.00    -0.272 N 
ATOM      5  H   UNL     1       6.641   2.699  -0.158  0.00  0.00    +0.189 HD
ATOM      6  N   UNL     1       5.075   1.447  -0.131  0.00  0.00    -0.173 NA
ENDROOT
BRANCH   1  16
ATOM      7  C   UNL     1       0.669   0.176  -2.840  0.00  0.00    +0.001 A 
ATOM      8  C   UNL     1       1.858   0.901  -2.866  0.00  0.00    +0.001 A 
ATOM      9  C   UNL     1       2.848   0.657  -1.963  0.00  0.00    +0.009 A 
ATOM     10  C   UNL     1       2.670  -0.338  -0.991  0.00  0.00    -0.009 A 
ATOM     11  C   UNL     1       1.461  -1.076  -0.963  0.00  0.00    -0.017 A 
ATOM     12  C   UNL     1       0.462  -0.797  -1.911  0.00  0.00    +0.008 A 
ATOM     13  C   UNL     1       1.281  -2.073   0.011  0.00  0.00    +0.008 A 
ATOM     14  C   UNL     1       2.265  -2.325   0.920  0.00  0.00    +0.001 A 
ATOM     15  C   UNL     1       3.457  -1.609   0.906  0.00  0.00    +0.011 A 
ATOM     16  C   UNL     1       3.675  -0.620  -0.036  0.00  0.00    +0.010 A 
ENDBRANCH   1  16
BRANCH   3  17
ATOM     17  C   UNL     1       8.570   0.636   0.042  0.00  0.00    +0.281 C 
ATOM     18  O   UNL     1       9.149  -0.430   0.132  0.00  0.00    -0.267 OA
ATOM     19  N   UNL     1       9.276   1.783  -0.011  0.00  0.00    -0.202 N 
ATOM     20  H   UNL     1       8.815   2.634  -0.082  0.00  0.00    +0.178 HD
BRANCH  19  21
ATOM     21  N   UNL     1      10.676   1.748   0.038  0.00  0.00    -0.187 NA
ATOM     22  C   UNL     1      11.355   2.853  -0.013  0.00  0.00    +0.142 C 
BRANCH  22  23
ATOM     23  C   UNL     1      12.828   2.815   0.038  0.00  0.00    +0.037 A 
ATOM     24  C   UNL     1      13.563   4.002  -0.010  0.00  0.00    +0.028 A 
ATOM     25  C   UNL     1      14.941   3.959   0.038  0.00  0.00    +0.019 A 
ATOM     26  C   UNL     1      15.599   2.744   0.135  0.00  0.00    +0.019 A 
ATOM     27  C   UNL     1      14.882   1.563   0.184  0.00  0.00    +0.047 A 
ATOM     28  C   UNL     1      13.498   1.589   0.142  0.00  0.00    +0.126 A 
ATOM     29 BR   UNL     1      15.935   5.566  -0.028  0.00  0.00    -0.050 Br
BRANCH  28  30
ATOM     30  O   UNL     1      12.793   0.429   0.195  0.00  0.00    -0.506 OA
ATOM     31  H   UNL     1      12.618   0.035  -0.670  0.00  0.00    +0.292 HD
ENDBRANCH  28  30
ENDBRANCH  22  23
ENDBRANCH  19  21
ENDBRANCH   3  17
TORSDOF 5
