REMARK  Name = ZINC20682342
REMARK  5 active torsions:
REMARK  status: ('A' for Active; 'I' for Inactive)
REMARK    1  A    between atoms: C_1  and  C_2
REMARK    2  A    between atoms: C_8  and  C_10
REMARK    3  A    between atoms: C_23  and  C_26
REMARK    4  A    between atoms: C_29  and  O_33
REMARK    5  A    between atoms: C_31  and  O_32
REMARK                            x       y       z     vdW  Elec       q    Type
REMARK                         _______ _______ _______ _____ _____    ______ ____
ROOT
ATOM      1  C   UNL     1      -5.236   3.251   1.999  0.00  0.00    +0.037 A 
ATOM      2  C   UNL     1      -4.788   3.518   3.297  0.00  0.00    +0.015 A 
ATOM      3  C   UNL     1      -3.630   2.938   3.757  0.00  0.00    +0.024 A 
ATOM      4  C   UNL     1      -2.893   2.083   2.941  0.00  0.00    +0.031 A 
ATOM      5  C   UNL     1      -3.334   1.820   1.642  0.00  0.00    -0.019 A 
ATOM      6  C   UNL     1      -4.503   2.388   1.179  0.00  0.00    +0.019 A 
ATOM      7  C   UNL     1      -2.546   0.875   0.820  0.00  0.00    +0.049 C 
ATOM      8  C   UNL     1      -2.551   0.932  -0.664  0.00  0.00    -0.023 C 
ATOM      9  C   UNL     1      -1.362   0.542  -1.107  0.00  0.00    -0.030 C 
ATOM     10  C   UNL     1      -0.444   0.221   0.073  0.00  0.00    +0.033 C 
ATOM     11  C   UNL     1      -1.046   1.096   1.181  0.00  0.00    +0.029 C 
ATOM     12  C   UNL     1      -0.897   0.606   2.610  0.00  0.00    +0.108 C 
ATOM     13  N   UNL     1      -1.714   1.524   3.433  0.00  0.00    -0.336 N 
ATOM     14  H   UNL     1      -1.395   1.778   4.454  0.00  0.00    +0.147 HD
ENDROOT
BRANCH   1  22
ATOM     15  C   UNL     1     -11.125   1.655   3.278  0.00  0.00    +0.007 C 
ATOM     16  C   UNL     1     -10.031   2.722   3.202  0.00  0.00    -0.011 C 
ATOM     17  C   UNL     1      -9.940   3.259   1.772  0.00  0.00    +0.022 C 
ATOM     18  C   UNL     1      -8.868   4.351   1.708  0.00  0.00    +0.108 C 
ATOM     19  N   UNL     1      -7.606   3.806   2.229  0.00  0.00    -0.298 N 
ATOM     20  C   UNL     1      -7.603   3.179   3.557  0.00  0.00    +0.108 C 
ATOM     21  C   UNL     1      -8.689   2.105   3.603  0.00  0.00    +0.022 C 
ATOM     22  C   UNL     1      -6.475   3.875   1.499  0.00  0.00    +0.247 C 
ATOM     23  O   UNL     1      -6.476   4.453   0.429  0.00  0.00    -0.270 OA
ENDBRANCH   1  22
BRANCH  12  24
ATOM     24  C   UNL     1       0.547   0.668   3.034  0.00  0.00    +0.015 A 
ATOM     25  C   UNL     1       0.996   1.724   3.805  0.00  0.00    +0.012 A 
ATOM     26  C   UNL     1       2.318   1.781   4.199  0.00  0.00    +0.046 A 
ATOM     27  C   UNL     1       3.203   0.783   3.814  0.00  0.00    +0.120 A 
ATOM     28  C   UNL     1       2.756  -0.275   3.037  0.00  0.00    +0.091 A 
ATOM     29  C   UNL     1       1.427  -0.333   2.646  0.00  0.00    +0.125 A 
BRANCH  29  30
ATOM     30  O   UNL     1       0.987  -1.368   1.884  0.00  0.00    -0.506 OA
ATOM     31  H   UNL     1       1.685  -2.160   1.577  0.00  0.00    +0.292 HD
ENDBRANCH  29  30
BRANCH  27  32
ATOM     32  O   UNL     1       4.505   0.842   4.199  0.00  0.00    -0.507 OA
ATOM     33  H   UNL     1       5.205   0.051   3.893  0.00  0.00    +0.292 HD
ENDBRANCH  27  32
ENDBRANCH  12  24
TORSDOF 4
