REMARK  Name = ZINC14478391
REMARK  7 active torsions:
REMARK  status: ('A' for Active; 'I' for Inactive)
REMARK    1  A    between atoms: C_1  and  C_2
REMARK    2  A    between atoms: C_2  and  C_3
REMARK    3  A    between atoms: C_2  and  C_4
REMARK    4  A    between atoms: C_2  and  N_5
REMARK    5  A    between atoms: C_6  and  C_8
REMARK    6  A    between atoms: C_21  and  C_24
REMARK    7  A    between atoms: C_29  and  N_30
REMARK                            x       y       z     vdW  Elec       q    Type
REMARK                         _______ _______ _______ _____ _____    ______ ____
ROOT
ATOM      1  C   UNL     1       2.848  -2.190  -2.085  0.00  0.00    +0.037 A 
ATOM      2  C   UNL     1       1.774  -2.828  -1.457  0.00  0.00    +0.015 A 
ATOM      3  C   UNL     1       0.823  -2.086  -0.798  0.00  0.00    +0.024 A 
ATOM      4  C   UNL     1       0.918  -0.697  -0.749  0.00  0.00    +0.031 A 
ATOM      5  C   UNL     1       1.988  -0.056  -1.393  0.00  0.00    -0.019 A 
ATOM      6  C   UNL     1       2.944  -0.796  -2.044  0.00  0.00    +0.019 A 
ATOM      7  C   UNL     1       2.018   1.422  -1.356  0.00  0.00    +0.049 C 
ATOM      8  C   UNL     1       3.286   2.187  -1.475  0.00  0.00    -0.023 C 
ATOM      9  C   UNL     1       3.167   3.313  -0.781  0.00  0.00    -0.030 C 
ATOM     10  C   UNL     1       1.795   3.370  -0.106  0.00  0.00    +0.033 C 
ATOM     11  C   UNL     1       1.452   1.879   0.022  0.00  0.00    +0.029 C 
ATOM     12  C   UNL     1      -0.018   1.503  -0.002  0.00  0.00    +0.107 C 
ATOM     13  N   UNL     1      -0.053   0.026  -0.058  0.00  0.00    -0.336 N 
ATOM     14  H   UNL     1      -0.766  -0.450   0.396  0.00  0.00    +0.147 HD
ENDROOT
BRANCH  12  15
ATOM     15  C   UNL     1      -0.700   1.992   1.250  0.00  0.00    +0.003 A 
ATOM     16  C   UNL     1       0.055   2.430   2.322  0.00  0.00    +0.008 A 
ATOM     17  C   UNL     1      -0.570   2.884   3.469  0.00  0.00    +0.000 A 
ATOM     18  C   UNL     1      -1.950   2.889   3.547  0.00  0.00    +0.002 A 
ATOM     19  C   UNL     1      -2.705   2.446   2.477  0.00  0.00    +0.033 A 
ATOM     20  C   UNL     1      -2.080   1.998   1.329  0.00  0.00    +0.131 A 
BRANCH  20  21
ATOM     21  N   UNL     1      -2.888   1.523   0.183  0.00  0.00    +0.057 N 
ATOM     22  O   UNL     1      -4.102   1.624   0.211  0.00  0.00    -0.126 OA
ATOM     23  O   UNL     1      -2.340   1.031  -0.787  0.00  0.00    -0.126 OA
ENDBRANCH  20  21
ENDBRANCH  12  15
BRANCH   1  25
ATOM     24  N   UNL     1       3.780  -4.327  -2.822  0.00  0.00    -0.307 N 
ATOM     25  C   UNL     1       3.875  -2.983  -2.785  0.00  0.00    +0.244 C 
ATOM     26  O   UNL     1       4.808  -2.425  -3.330  0.00  0.00    -0.270 OA
ATOM     27  H   UNL     1       3.035  -4.772  -2.388  0.00  0.00    +0.150 HD
BRANCH  24  29
ATOM     28  C   UNL     1       6.166  -4.859  -2.879  0.00  0.00    +0.031 C 
ATOM     29  C   UNL     1       4.800  -5.115  -3.518  0.00  0.00    +0.026 C 
ATOM     30  C   UNL     1       4.457  -6.602  -3.410  0.00  0.00    +0.031 C 
ATOM     31  C   UNL     1       4.842  -4.707  -4.992  0.00  0.00    +0.031 C 
ENDBRANCH  24  29
ENDBRANCH   1  25
TORSDOF 4
