REMARK  Name = ZINC39363064
REMARK  9 active torsions:
REMARK  status: ('A' for Active; 'I' for Inactive)
REMARK    1  A    between atoms: C_1  and  C_2
REMARK    2  A    between atoms: C_5  and  N_9
REMARK    3  A    between atoms: C_6  and  C_8
REMARK    4  A    between atoms: C_10  and  C_12
REMARK    5  A    between atoms: C_12  and  S_13
REMARK    6  A    between atoms: S_13  and  C_14
REMARK    7  A    between atoms: C_17  and  C_27
REMARK    8  A    between atoms: N_19  and  C_20
REMARK    9  A    between atoms: C_27  and  C_28
REMARK                            x       y       z     vdW  Elec       q    Type
REMARK                         _______ _______ _______ _____ _____    ______ ____
ROOT
ATOM      1  C   UNL     1      -0.343  -8.693  -2.728  0.00  0.00    +0.180 C 
ATOM      2  N   UNL     1      -0.335  -9.312  -1.597  0.00  0.00    -0.162 NA
ATOM      3  N   UNL     1      -0.445 -10.697  -1.769  0.00  0.00    -0.246 N 
ATOM      4  C   UNL     1      -0.530 -10.925  -3.222  0.00  0.00    +0.187 C 
ATOM      5  N   UNL     1      -0.463  -9.570  -3.797  0.00  0.00    -0.258 N 
ATOM      6  H   UNL     1      -0.462 -11.372  -1.072  0.00  0.00    +0.170 HD
ENDROOT
BRANCH   5   7
ATOM      7  C   UNL     1      -0.509  -9.234  -5.153  0.00  0.00    +0.038 A 
ATOM      8  C   UNL     1       0.397  -9.801  -6.041  0.00  0.00    +0.025 A 
ATOM      9  C   UNL     1       0.349  -9.467  -7.380  0.00  0.00    +0.022 A 
ATOM     10  C   UNL     1      -0.600  -8.570  -7.838  0.00  0.00    +0.041 A 
ATOM     11  C   UNL     1      -1.503  -8.004  -6.955  0.00  0.00    +0.022 A 
ATOM     12  C   UNL     1      -1.464  -8.338  -5.616  0.00  0.00    +0.025 A 
ATOM     13 CL   UNL     1      -0.656  -8.152  -9.522  0.00  0.00    -0.084 Cl
ENDBRANCH   5   7
BRANCH   1  14
ATOM     14  S   UNL     1      -0.223  -6.943  -2.897  0.00  0.00    -0.079 S 
BRANCH  14  15
ATOM     15  C   UNL     1      -0.090  -6.346  -1.189  0.00  0.00    +0.173 C 
BRANCH  15  17
ATOM     16  N   UNL     1       0.130  -4.175  -0.025  0.00  0.00    -0.285 N 
ATOM     17  C   UNL     1       0.020  -4.843  -1.190  0.00  0.00    +0.227 C 
ATOM     18  O   UNL     1       0.010  -4.234  -2.239  0.00  0.00    -0.275 OA
ATOM     19  H   UNL     1       0.200  -4.664   0.810  0.00  0.00    +0.155 HD
BRANCH  16  24
ATOM     20  C   UNL     1       0.182   1.498  -0.002  0.00  0.00    +0.044 C 
ATOM     21  C   UNL     1       0.168  -0.009  -0.008  0.00  0.00    -0.050 A 
ATOM     22  C   UNL     1       0.752  -0.700  -1.054  0.00  0.00    +0.005 A 
ATOM     23  C   UNL     1       0.741  -2.081  -1.062  0.00  0.00    +0.024 A 
ATOM     24  C   UNL     1       0.143  -2.775  -0.019  0.00  0.00    +0.036 A 
ATOM     25  C   UNL     1      -0.442  -2.078   1.030  0.00  0.00    -0.029 A 
ATOM     26  C   UNL     1      -0.423  -0.697   1.035  0.00  0.00    +0.008 A 
ATOM     27  C   UNL     1      -1.092  -2.828   2.164  0.00  0.00    +0.045 C 
ENDBRANCH  16  24
ENDBRANCH  15  17
ENDBRANCH  14  15
ENDBRANCH   1  14
BRANCH   4  28
ATOM     28  C   UNL     1      -1.857 -11.594  -3.584  0.00  0.00    +0.097 C 
BRANCH  28  29
ATOM     29  C   UNL     1      -1.945 -12.936  -2.903  0.00  0.00    +0.029 A 
ATOM     30  N   UNL     1      -1.377 -14.039  -3.481  0.00  0.00    -0.311 N 
ATOM     31  C   UNL     1      -1.449 -15.241  -2.881  0.00  0.00    +0.327 A 
ATOM     32  O   UNL     1      -0.937 -16.207  -3.413  0.00  0.00    -0.247 OA
ATOM     33  N   UNL     1      -2.079 -15.388  -1.702  0.00  0.00    -0.275 N 
ATOM     34  C   UNL     1      -2.652 -14.326  -1.099  0.00  0.00    +0.254 A 
ATOM     35  O   UNL     1      -3.223 -14.459  -0.032  0.00  0.00    -0.268 OA
ATOM     36  C   UNL     1      -2.579 -13.055  -1.718  0.00  0.00    +0.091 A 
ATOM     37  H   UNL     1      -2.122 -16.262  -1.283  0.00  0.00    +0.173 HD
ATOM     38  H   UNL     1      -0.918 -13.953  -4.332  0.00  0.00    +0.170 HD
ENDBRANCH  28  29
ENDBRANCH   4  28
TORSDOF 7
