REMARK  Name = ZINC07674952
REMARK  6 active torsions:
REMARK  status: ('A' for Active; 'I' for Inactive)
REMARK    1  A    between atoms: C_1  and  C_2
REMARK    2  A    between atoms: C_3  and  C_15
REMARK    3  A    between atoms: N_5  and  C_7
REMARK    4  A    between atoms: C_7  and  C_8
REMARK    5  A    between atoms: N_16  and  N_17
REMARK    6  A    between atoms: C_19  and  C_23
REMARK                            x       y       z     vdW  Elec       q    Type
REMARK                         _______ _______ _______ _____ _____    ______ ____
ROOT
ATOM      1  C   UNL     1      -0.005  -0.372  -2.548  0.00  0.00    +0.146 C 
ATOM      2  N   UNL     1       0.002  -1.240  -3.512  0.00  0.00    -0.172 NA
ENDROOT
BRANCH   2   3
ATOM      3  N   UNL     1      -0.010  -0.808  -4.845  0.00  0.00    -0.209 N 
ATOM      4  C   UNL     1      -0.025   0.496  -5.278  0.00  0.00    +0.142 A 
ATOM      5  C   UNL     1      -0.033   0.461  -6.635  0.00  0.00    +0.067 A 
ATOM      6  N   UNL     1      -0.024  -0.841  -7.019  0.00  0.00    -0.326 N 
ATOM      7  C   UNL     1      -0.004  -1.604  -5.953  0.00  0.00    +0.192 A 
ATOM      8  N   UNL     1       0.015  -2.989  -5.952  0.00  0.00    -0.329 N 
ATOM      9  H   UNL     1       0.026  -3.473  -5.111  0.00  0.00    +0.145 HD
ATOM     10  H   UNL     1       0.018  -3.474  -6.791  0.00  0.00    +0.145 HD
ATOM     11  H   UNL     1      -0.028  -1.156  -7.936  0.00  0.00    +0.169 HD
BRANCH   5  12
ATOM     12  C   UNL     1      -0.050   1.637  -7.538  0.00  0.00    -0.000 A 
ATOM     13  C   UNL     1      -0.052   2.926  -7.008  0.00  0.00    +0.010 A 
ATOM     14  C   UNL     1      -0.067   4.017  -7.853  0.00  0.00    +0.001 A 
ATOM     15  C   UNL     1      -0.080   3.833  -9.224  0.00  0.00    +0.000 A 
ATOM     16  C   UNL     1      -0.078   2.555  -9.756  0.00  0.00    +0.001 A 
ATOM     17  C   UNL     1      -0.057   1.457  -8.920  0.00  0.00    +0.010 A 
ENDBRANCH   5  12
ENDBRANCH   2   3
BRANCH   1  20
ATOM     18  C   UNL     1      -0.018   1.503   0.010  0.00  0.00    +0.068 C 
ATOM     19  C   UNL     1       0.002  -0.004   0.002  0.00  0.00    +0.070 A 
ATOM     20  C   UNL     1       0.008  -0.827  -1.146  0.00  0.00    +0.054 A 
ATOM     21  C   UNL     1       0.028  -2.137  -0.710  0.00  0.00    +0.136 A 
ATOM     22  N   UNL     1       0.034  -2.112   0.637  0.00  0.00    -0.248 N 
ATOM     23  N   UNL     1       0.023  -0.776   1.054  0.00  0.00    -0.174 NA
ATOM     24 CL   UNL     1       0.042  -3.554  -1.712  0.00  0.00    -0.062 Cl
BRANCH  22  25
ATOM     25  C   UNL     1       0.053  -3.284   1.516  0.00  0.00    +0.180 C 
BRANCH  25  26
ATOM     26  C   UNL     1       1.481  -3.666   1.811  0.00  0.00    -0.026 A 
ATOM     27  C   UNL     1       2.143  -4.555   0.985  0.00  0.00    +0.005 A 
ATOM     28  C   UNL     1       3.452  -4.906   1.256  0.00  0.00    +0.000 A 
ATOM     29  C   UNL     1       4.100  -4.368   2.352  0.00  0.00    +0.000 A 
ATOM     30  C   UNL     1       3.438  -3.478   3.177  0.00  0.00    +0.000 A 
ATOM     31  C   UNL     1       2.130  -3.123   2.904  0.00  0.00    +0.005 A 
ENDBRANCH  25  26
ENDBRANCH  22  25
ENDBRANCH   1  20
TORSDOF 5
