REMARK  Name = ZINC45861176
REMARK  6 active torsions:
REMARK  status: ('A' for Active; 'I' for Inactive)
REMARK    1  A    between atoms: C_1  and  C_2
REMARK    2  A    between atoms: C_2  and  C_3
REMARK    3  A    between atoms: C_3  and  N_4
REMARK    4  A    between atoms: C_13  and  C_15
REMARK    5  A    between atoms: N_17  and  N_18
REMARK    6  A    between atoms: C_19  and  C_21
REMARK                            x       y       z     vdW  Elec       q    Type
REMARK                         _______ _______ _______ _____ _____    ______ ____
ROOT
ATOM      1  C   UNL     1      -1.392  -4.503  -2.618  0.00  0.00    +0.281 C 
ATOM      2  O   UNL     1      -1.375  -5.712  -2.744  0.00  0.00    -0.267 OA
ATOM      3  N   UNL     1      -1.408  -3.712  -3.709  0.00  0.00    -0.229 N 
ATOM      4  H   UNL     1      -1.421  -2.747  -3.609  0.00  0.00    +0.173 HD
ENDROOT
BRANCH   1  14
ATOM      5  N   UNL     1      -1.413  -1.998   0.005  0.00  0.00    -0.228 N 
ATOM      6  C   UNL     1      -1.399  -2.643   1.190  0.00  0.00    +0.275 A 
ATOM      7  O   UNL     1      -1.403  -2.022   2.237  0.00  0.00    -0.266 OA
ATOM      8  C   UNL     1      -1.379  -4.112   1.187  0.00  0.00    +0.050 A 
ATOM      9  C   UNL     1      -1.363  -4.870   2.354  0.00  0.00    +0.014 A 
ATOM     10  C   UNL     1      -1.344  -6.246   2.265  0.00  0.00    +0.001 A 
ATOM     11  C   UNL     1      -1.341  -6.878   1.029  0.00  0.00    +0.001 A 
ATOM     12  C   UNL     1      -1.357  -6.145  -0.139  0.00  0.00    +0.011 A 
ATOM     13  C   UNL     1      -1.376  -4.756  -0.072  0.00  0.00    +0.020 A 
ATOM     14  C   UNL     1      -1.394  -3.901  -1.270  0.00  0.00    +0.155 A 
ATOM     15  N   UNL     1      -1.416  -2.598  -1.125  0.00  0.00    -0.163 NA
BRANCH   5  16
ATOM     16  C   UNL     1      -1.433  -0.534   0.013  0.00  0.00    +0.147 C 
BRANCH  16  18
ATOM     17  C   UNL     1      -0.019   1.526   0.010  0.00  0.00    +0.005 C 
ATOM     18  C   UNL     1       0.002  -0.004   0.002  0.00  0.00    +0.020 C 
ENDBRANCH  16  18
ENDBRANCH   5  16
ENDBRANCH   1  14
BRANCH   3  19
ATOM     19  N   UNL     1      -1.406  -4.283  -4.989  0.00  0.00    -0.234 N 
ATOM     20  C   UNL     1      -1.422  -3.492  -6.080  0.00  0.00    +0.233 C 
ATOM     21  O   UNL     1      -1.438  -2.286  -5.954  0.00  0.00    -0.274 OA
ATOM     22  H   UNL     1      -1.393  -5.248  -5.089  0.00  0.00    +0.173 HD
BRANCH  20  23
ATOM     23  C   UNL     1      -1.420  -4.107  -7.456  0.00  0.00    +0.083 C 
ATOM     24  C   UNL     1      -0.160  -4.956  -7.633  0.00  0.00    +0.002 C 
ATOM     25  C   UNL     1      -0.157  -5.580  -9.030  0.00  0.00    +0.008 C 
ATOM     26  C   UNL     1      -0.178  -4.471 -10.084  0.00  0.00    -0.010 C 
ATOM     27  C   UNL     1       1.060  -3.587  -9.918  0.00  0.00    +0.007 C 
ATOM     28  C   UNL     1       1.058  -2.963  -8.521  0.00  0.00    -0.010 C 
ATOM     29  C   UNL     1       1.078  -4.072  -7.468  0.00  0.00    +0.008 C 
ATOM     30  C   UNL     1      -0.202  -2.114  -8.344  0.00  0.00    +0.008 C 
ATOM     31  C   UNL     1      -1.440  -2.998  -8.510  0.00  0.00    +0.002 C 
ATOM     32  C   UNL     1      -1.438  -3.622  -9.907  0.00  0.00    +0.008 C 
ENDBRANCH  20  23
ENDBRANCH   3  19
TORSDOF 5
