REMARK  Name = ZINC20536957
REMARK  7 active torsions:
REMARK  status: ('A' for Active; 'I' for Inactive)
REMARK    1  A    between atoms: C_4  and  C_7
REMARK    2  A    between atoms: C_8  and  C_9
REMARK    3  A    between atoms: C_9  and  N_10
REMARK    4  A    between atoms: C_16  and  C_18
REMARK    5  A    between atoms: C_18  and  C_19
REMARK    6  A    between atoms: N_21  and  C_22
REMARK    7  A    between atoms: C_22  and  C_23
REMARK                            x       y       z     vdW  Elec       q    Type
REMARK                         _______ _______ _______ _____ _____    ______ ____
ROOT
ATOM      1  N   UNL     1      -1.236  -4.468   2.399  0.00  0.00    +0.391 N 
ATOM      2  C   UNL     1      -1.289  -5.914   2.666  0.00  0.00    -0.058 C 
ATOM      3  C   UNL     1      -1.694  -6.130   4.125  0.00  0.00    +0.085 C 
ATOM      4  N   UNL     1      -0.856  -5.319   5.003  0.00  0.00    -0.318 N 
ATOM      5  C   UNL     1      -0.146  -4.275   4.566  0.00  0.00    +0.200 C 
ATOM      6  O   UNL     1       0.498  -3.636   5.370  0.00  0.00    -0.278 OA
ATOM      7  C   UNL     1      -0.110  -3.860   3.122  0.00  0.00    +0.028 C 
ATOM      8  H   UNL     1      -0.789  -5.557   6.074  0.00  0.00    +0.149 HD
ATOM      9  H   UNL     1      -2.169  -4.010   2.761  0.00  0.00    -0.080 HD
ENDROOT
BRANCH   1  10
ATOM     10  C   UNL     1      -1.142  -4.201   0.958  0.00  0.00    -0.050 C 
BRANCH  10  12
ATOM     11  C   UNL     1      -3.072  -3.571  -0.421  0.00  0.00    +0.002 C 
ATOM     12  C   UNL     1      -2.466  -4.500   0.304  0.00  0.00    -0.045 C 
BRANCH  11  16
ATOM     13  C   UNL     1      -6.805  -4.415  -2.264  0.00  0.00    +0.000 A 
ATOM     14  C   UNL     1      -6.224  -3.169  -2.423  0.00  0.00    +0.001 A 
ATOM     15  C   UNL     1      -5.012  -2.889  -1.827  0.00  0.00    +0.008 A 
ATOM     16  C   UNL     1      -4.371  -3.865  -1.063  0.00  0.00    -0.025 A 
ATOM     17  C   UNL     1      -4.959  -5.121  -0.911  0.00  0.00    +0.008 A 
ATOM     18  C   UNL     1      -6.175  -5.386  -1.507  0.00  0.00    +0.001 A 
ENDBRANCH  11  16
ENDBRANCH  10  12
ENDBRANCH   1  10
BRANCH   7  19
ATOM     19  C   UNL     1      -0.209  -2.336   3.029  0.00  0.00    +0.089 C 
BRANCH  19  20
ATOM     20  C   UNL     1      -1.531  -1.883   3.594  0.00  0.00    +0.212 C 
ATOM     21  O   UNL     1      -2.358  -2.703   3.934  0.00  0.00    -0.276 OA
ATOM     22  N   UNL     1      -1.793  -0.568   3.722  0.00  0.00    -0.310 N 
ATOM     23  H   UNL     1      -1.043   0.175   3.414  0.00  0.00    +0.149 HD
BRANCH  22  24
ATOM     24  C   UNL     1      -3.078  -0.127   4.272  0.00  0.00    +0.161 C 
BRANCH  24  25
ATOM     25  C   UNL     1      -3.119   1.379   4.309  0.00  0.00    +0.077 A 
ATOM     26  C   UNL     1      -3.649   2.172   3.369  0.00  0.00    +0.113 A 
ATOM     27  N   UNL     1      -3.480   3.494   3.788  0.00  0.00    -0.324 N 
ATOM     28  C   UNL     1      -2.842   3.409   4.983  0.00  0.00    +0.169 A 
ATOM     29  N   UNL     1      -2.635   2.155   5.292  0.00  0.00    -0.225 NA
ATOM     30  S   UNL     1      -2.602   5.073   5.559  0.00  0.00    -0.086 S 
ATOM     31  C   UNL     1      -3.376   5.980   4.168  0.00  0.00    +0.099 C 
ATOM     32  C   UNL     1      -3.811   4.816   3.262  0.00  0.00    +0.135 C 
ENDBRANCH  24  25
ENDBRANCH  22  24
ENDBRANCH  19  20
ENDBRANCH   7  19
TORSDOF 7
