REMARK  Name = ZINC44015932
REMARK  6 active torsions:
REMARK  status: ('A' for Active; 'I' for Inactive)
REMARK    1  A    between atoms: C_1  and  C_2
REMARK    2  A    between atoms: C_2  and  C_4
REMARK    3  A    between atoms: C_2  and  N_14
REMARK    4  A    between atoms: N_17  and  C_18
REMARK    5  A    between atoms: C_22  and  N_24
REMARK    6  A    between atoms: C_25  and  C_27
REMARK                            x       y       z     vdW  Elec       q    Type
REMARK                         _______ _______ _______ _____ _____    ______ ____
ROOT
ATOM      1  N   UNL     1       0.727  -0.465  -1.212  0.00  0.00    -0.293 N 
ATOM      2  C   UNL     1       0.039  -0.603  -2.363  0.00  0.00    +0.304 C 
ATOM      3  O   UNL     1      -1.146  -0.331  -2.399  0.00  0.00    -0.252 OA
ATOM      4  N   UNL     1       0.664  -1.041  -3.474  0.00  0.00    -0.269 N 
ATOM      5  H   UNL     1       1.672  -0.681  -1.183  0.00  0.00    +0.151 HD
ATOM      6  H   UNL     1       1.622  -1.194  -3.462  0.00  0.00    +0.156 HD
ENDROOT
BRANCH   4   7
ATOM      7  C   UNL     1      -0.069  -1.275  -4.644  0.00  0.00    +0.037 A 
ATOM      8  C   UNL     1      -1.146  -0.460  -4.963  0.00  0.00    +0.026 A 
ATOM      9  C   UNL     1      -1.871  -0.689  -6.117  0.00  0.00    +0.042 A 
ATOM     10  C   UNL     1      -1.525  -1.732  -6.958  0.00  0.00    +0.145 A 
ATOM     11  C   UNL     1      -0.447  -2.553  -6.642  0.00  0.00    +0.071 A 
ATOM     12  C   UNL     1       0.285  -2.319  -5.487  0.00  0.00    +0.049 A 
ATOM     13  F   UNL     1      -2.236  -1.955  -8.085  0.00  0.00    -0.204 F 
BRANCH  11  14
ATOM     14  N   UNL     1      -0.098  -3.609  -7.492  0.00  0.00    -0.283 N 
ATOM     15  C   UNL     1       0.391  -4.755  -6.977  0.00  0.00    +0.214 C 
ATOM     16  O   UNL     1       0.605  -4.842  -5.787  0.00  0.00    -0.276 OA
ATOM     17  C   UNL     1       0.671  -5.928  -7.881  0.00  0.00    +0.109 C 
ATOM     18  H   UNL     1      -0.207  -3.516  -8.451  0.00  0.00    +0.155 HD
ENDBRANCH  11  14
ENDBRANCH   4   7
BRANCH   1  20
ATOM     19  C   UNL     1       0.024   1.542  -0.003  0.00  0.00    +0.033 C 
ATOM     20  C   UNL     1       0.047   0.012  -0.005  0.00  0.00    +0.102 C 
BRANCH  20  21
ATOM     21  C   UNL     1       0.784  -0.481   1.214  0.00  0.00    -0.027 A 
ATOM     22  C   UNL     1       2.166  -0.490   1.232  0.00  0.00    +0.006 A 
ATOM     23  C   UNL     1       2.833  -0.945   2.350  0.00  0.00    +0.004 A 
ATOM     24  C   UNL     1       2.127  -1.393   3.460  0.00  0.00    -0.044 A 
ATOM     25  C   UNL     1       0.751  -1.379   3.443  0.00  0.00    -0.044 A 
ATOM     26  C   UNL     1       0.081  -0.919   2.317  0.00  0.00    +0.009 A 
ATOM     27  C   UNL     1      -0.078  -1.835   4.615  0.00  0.00    +0.035 C 
ATOM     28  C   UNL     1       0.760  -2.685   5.568  0.00  0.00    +0.005 C 
ATOM     29  C   UNL     1       2.046  -1.918   5.896  0.00  0.00    +0.005 C 
ATOM     30  C   UNL     1       2.919  -1.884   4.644  0.00  0.00    +0.035 C 
ENDBRANCH  20  21
ENDBRANCH   1  20
TORSDOF 4
