REMARK  Name = ZINC02094677
REMARK  9 active torsions:
REMARK  status: ('A' for Active; 'I' for Inactive)
REMARK    1  A    between atoms: C_1  and  C_2
REMARK    2  A    between atoms: N_7  and  C_8
REMARK    3  A    between atoms: C_8  and  C_10
REMARK    4  A    between atoms: C_8  and  C_24
REMARK    5  A    between atoms: C_13  and  O_16
REMARK    6  A    between atoms: O_16  and  C_17
REMARK    7  A    between atoms: C_17  and  C_18
REMARK    8  A    between atoms: C_30  and  C_35
REMARK    9  A    between atoms: C_33  and  O_34
REMARK                            x       y       z     vdW  Elec       q    Type
REMARK                         _______ _______ _______ _____ _____    ______ ____
ROOT
ATOM      1  C   UNL     1       4.797   4.114  -0.022  0.00  0.00    +0.136 C 
ENDROOT
BRANCH   1   2
ATOM      2  C   UNL     1       3.570   3.240   0.016  0.00  0.00    +0.021 A 
ATOM      3  C   UNL     1       3.705   1.861  -0.121  0.00  0.00    +0.010 A 
ATOM      4  C   UNL     1       2.616   1.044  -0.090  0.00  0.00    +0.010 A 
ATOM      5  C   UNL     1       1.336   1.596   0.081  0.00  0.00    +0.004 A 
ATOM      6  C   UNL     1       0.187   0.784   0.117  0.00  0.00    +0.012 A 
ATOM      7  C   UNL     1      -1.026   1.390   0.281  0.00  0.00    +0.023 A 
ATOM      8  C   UNL     1      -1.098   2.775   0.416  0.00  0.00    +0.039 A 
ATOM      9  N   UNL     1      -0.025   3.528   0.382  0.00  0.00    -0.248 NA
ATOM     10  C   UNL     1       1.191   2.998   0.220  0.00  0.00    +0.113 A 
ATOM     11  C   UNL     1       2.341   3.813   0.184  0.00  0.00    +0.148 A 
ATOM     12  C   UNL     1      -2.445   3.425   0.601  0.00  0.00    +0.065 C 
BRANCH  11  13
ATOM     13  O   UNL     1       2.229   5.160   0.316  0.00  0.00    -0.504 OA
ATOM     14  H   UNL     1       2.113   5.630  -0.522  0.00  0.00    +0.292 HD
ENDBRANCH  11  13
ENDBRANCH   1   2
BRANCH   1  21
ATOM     15  C   UNL     1       8.600   1.280   3.840  0.00  0.00    +0.063 C 
ATOM     16  C   UNL     1       7.457   2.179   3.446  0.00  0.00    +0.014 A 
ATOM     17  C   UNL     1       6.697   2.785   4.427  0.00  0.00    +0.021 A 
ATOM     18  C   UNL     1       5.645   3.612   4.058  0.00  0.00    +0.005 A 
ATOM     19  C   UNL     1       5.395   3.801   2.711  0.00  0.00    +0.041 A 
ATOM     20  C   UNL     1       6.201   3.160   1.776  0.00  0.00    +0.097 A 
ATOM     21  N   UNL     1       5.961   3.341   0.419  0.00  0.00    -0.320 N 
ATOM     22  H   UNL     1       6.563   2.955  -0.236  0.00  0.00    +0.148 HD
ATOM     23  N   UNL     1       7.237   2.338   2.114  0.00  0.00    -0.347 N 
ATOM     24  H   UNL     1       7.813   1.868   1.406  0.00  0.00    +0.167 HD
ENDBRANCH   1  21
BRANCH   1  25
ATOM     25  C   UNL     1       5.023   4.602  -1.430  0.00  0.00    -0.023 A 
ATOM     26  C   UNL     1       5.511   3.736  -2.390  0.00  0.00    +0.009 A 
ATOM     27  C   UNL     1       5.713   4.180  -3.683  0.00  0.00    +0.046 A 
ATOM     28  C   UNL     1       5.437   5.498  -4.014  0.00  0.00    +0.121 A 
ATOM     29  C   UNL     1       4.953   6.367  -3.046  0.00  0.00    +0.046 A 
ATOM     30  C   UNL     1       4.747   5.917  -1.757  0.00  0.00    +0.009 A 
BRANCH  28  31
ATOM     31  O   UNL     1       5.640   5.939  -5.284  0.00  0.00    -0.487 OA
BRANCH  31  32
ATOM     32  C   UNL     1       6.141   4.989  -6.227  0.00  0.00    +0.264 C 
BRANCH  32  33
ATOM     33  C   UNL     1       6.302   5.653  -7.570  0.00  0.00    -0.010 A 
ATOM     34  C   UNL     1       5.256   5.645  -8.475  0.00  0.00    +0.007 A 
ATOM     35  C   UNL     1       5.402   6.259  -9.705  0.00  0.00    +0.000 A 
ATOM     36  C   UNL     1       6.597   6.870 -10.035  0.00  0.00    +0.000 A 
ATOM     37  C   UNL     1       7.644   6.873  -9.133  0.00  0.00    +0.000 A 
ATOM     38  C   UNL     1       7.497   6.264  -7.901  0.00  0.00    +0.007 A 
ENDBRANCH  32  33
ENDBRANCH  31  32
ENDBRANCH  28  31
ENDBRANCH   1  25
TORSDOF 7
