REMARK  Name = ZINC16957062
REMARK  9 active torsions:
REMARK  status: ('A' for Active; 'I' for Inactive)
REMARK    1  A    between atoms: C_1  and  O_2
REMARK    2  A    between atoms: O_2  and  C_3
REMARK    3  A    between atoms: C_3  and  C_5
REMARK    4  A    between atoms: C_11  and  C_24
REMARK    5  A    between atoms: C_12  and  C_19
REMARK    6  A    between atoms: C_14  and  C_17
REMARK    7  A    between atoms: C_15  and  N_16
REMARK    8  A    between atoms: N_26  and  C_27
REMARK    9  A    between atoms: C_27  and  C_28
REMARK                            x       y       z     vdW  Elec       q    Type
REMARK                         _______ _______ _______ _____ _____    ______ ____
ROOT
ATOM      1  C   UNL     1       0.175   9.148  -1.430  0.00  0.00    +0.112 C 
ATOM      2  C   UNL     1       0.657   7.906  -1.165  0.00  0.00    +0.086 A 
ATOM      3  C   UNL     1       0.924   7.259   0.141  0.00  0.00    +0.272 A 
ATOM      4  O   UNL     1       0.711   7.844   1.184  0.00  0.00    -0.266 OA
ATOM      5  N   UNL     1       1.409   6.001   0.138  0.00  0.00    -0.257 N 
ATOM      6  C   UNL     1       1.626   5.398  -1.086  0.00  0.00    +0.099 A 
ATOM      7  C   UNL     1       2.110   4.141  -1.243  0.00  0.00    +0.058 C 
ATOM      8  C   UNL     1       2.437   3.335  -0.003  0.00  0.00    +0.107 C 
ATOM      9  C   UNL     1       2.186   4.030   1.320  0.00  0.00    +0.080 C 
ATOM     10  C   UNL     1       1.699   5.290   1.309  0.00  0.00    +0.119 C 
ATOM     11  S   UNL     1       1.142   6.613  -2.296  0.00  0.00    -0.065 S 
ENDROOT
BRANCH   8  12
ATOM     12  C   UNL     1       1.619   2.070  -0.033  0.00  0.00    +0.003 A 
ATOM     13  C   UNL     1       2.039   0.781  -0.045  0.00  0.00    +0.012 A 
ATOM     14  C   UNL     1       1.098  -0.231  -0.074  0.00  0.00    +0.008 A 
ATOM     15  C   UNL     1      -0.218   0.095  -0.090  0.00  0.00    +0.045 A 
ATOM     16  S   UNL     1      -0.156   1.879  -0.064  0.00  0.00    -0.101 S 
ENDBRANCH   8  12
BRANCH   7  17
ATOM     17  C   UNL     1       2.303   3.599  -2.528  0.00  0.00    +0.244 C 
ATOM     18  O   UNL     1       2.035   4.260  -3.516  0.00  0.00    -0.270 OA
ATOM     19  N   UNL     1       2.785   2.347  -2.666  0.00  0.00    -0.307 N 
ATOM     20  H   UNL     1       2.998   1.821  -1.880  0.00  0.00    +0.149 HD
BRANCH  19  21
ATOM     21  C   UNL     1       2.986   1.783  -4.003  0.00  0.00    +0.139 C 
BRANCH  21  22
ATOM     22  C   UNL     1       3.529   0.382  -3.880  0.00  0.00    -0.030 A 
ATOM     23  C   UNL     1       4.895   0.171  -3.844  0.00  0.00    +0.005 A 
ATOM     24  C   UNL     1       5.393  -1.113  -3.727  0.00  0.00    +0.000 A 
ATOM     25  C   UNL     1       4.525  -2.187  -3.656  0.00  0.00    +0.000 A 
ATOM     26  C   UNL     1       3.160  -1.976  -3.697  0.00  0.00    +0.000 A 
ATOM     27  C   UNL     1       2.662  -0.692  -3.810  0.00  0.00    +0.005 A 
ENDBRANCH  21  22
ENDBRANCH  19  21
ENDBRANCH   7  17
BRANCH  10  28
ATOM     28  N   UNL     1       1.475   5.909   2.515  0.00  0.00    -0.343 N 
ATOM     29  H   UNL     1       0.788   6.590   2.590  0.00  0.00    +0.144 HD
ATOM     30  H   UNL     1       2.004   5.666   3.291  0.00  0.00    +0.144 HD
ENDBRANCH  10  28
BRANCH   1  31
ATOM     31  C   UNL     1      -0.010   9.581  -2.815  0.00  0.00    +0.333 C 
ATOM     32  O   UNL     1       0.268   8.829  -3.730  0.00  0.00    -0.246 OA
BRANCH  31  34
ATOM     33  C   UNL     1      -0.644  11.170  -4.454  0.00  0.00    +0.280 C 
ATOM     34  O   UNL     1      -0.489  10.815  -3.079  0.00  0.00    -0.465 OA
ENDBRANCH  31  34
ENDBRANCH   1  31
BRANCH   9  35
ATOM     35  C   UNL     1       2.459   3.365   2.558  0.00  0.00    +0.099 C 
ATOM     36  N   UNL     1       2.676   2.837   3.540  0.00  0.00    -0.191 NA
ENDBRANCH   9  35
TORSDOF 8
