REMARK  Name = ZINC09125369
REMARK  11 active torsions:
REMARK  status: ('A' for Active; 'I' for Inactive)
REMARK    1  A    between atoms: C_1  and  C_2
REMARK    2  A    between atoms: C_2  and  C_3
REMARK    3  A    between atoms: C_2  and  C_4
REMARK    4  A    between atoms: C_4  and  N_5
REMARK    5  A    between atoms: C_6  and  N_32
REMARK    6  A    between atoms: C_7  and  N_14
REMARK    7  A    between atoms: N_14  and  C_15
REMARK    8  A    between atoms: C_15  and  C_16
REMARK    9  A    between atoms: C_16  and  O_17
REMARK   10  A    between atoms: O_17  and  C_18
REMARK   11  A    between atoms: C_19  and  C_21
REMARK                            x       y       z     vdW  Elec       q    Type
REMARK                         _______ _______ _______ _____ _____    ______ ____
ROOT
ATOM      1  N   UNL     1       1.200   3.457   0.007  0.00  0.00    -0.258 N 
ATOM      2  C   UNL     1      -0.020   4.016   0.136  0.00  0.00    +0.259 C 
ATOM      3  O   UNL     1      -1.013   3.313   0.142  0.00  0.00    -0.269 OA
ENDROOT
BRANCH   2   4
ATOM      4  C   UNL     1      -0.150   5.472   0.267  0.00  0.00    +0.094 A 
ATOM      5  C   UNL     1      -1.274   6.206   0.493  0.00  0.00    +0.068 A 
ATOM      6  C   UNL     1      -1.188   7.607   0.591  0.00  0.00    +0.008 A 
ATOM      7  C   UNL     1      -2.234   8.536   0.824  0.00  0.00    +0.013 A 
ATOM      8  C   UNL     1      -1.980   9.868   0.886  0.00  0.00    +0.039 A 
ATOM      9  C   UNL     1      -0.694  10.374   0.724  0.00  0.00    +0.124 A 
ATOM     10  C   UNL     1       0.355   9.502   0.495  0.00  0.00    +0.054 A 
ATOM     11  C   UNL     1       0.110   8.148   0.431  0.00  0.00    +0.024 A 
ATOM     12  S   UNL     1       1.125   6.716   0.164  0.00  0.00    -0.082 S 
ATOM     13  F   UNL     1      -0.471  11.705   0.790  0.00  0.00    -0.205 F 
ATOM     14 CL   UNL     1      -2.809   5.415   0.663  0.00  0.00    -0.082 Cl
ENDBRANCH   2   4
BRANCH   1  17
ATOM     15  N   UNL     1       2.126   0.035   0.970  0.00  0.00    -0.280 N 
ATOM     16  C   UNL     1       2.012   1.405   1.009  0.00  0.00    +0.127 A 
ATOM     17  C   UNL     1       1.335   2.053  -0.004  0.00  0.00    +0.140 A 
ATOM     18  C   UNL     1       0.782   1.289  -1.049  0.00  0.00    +0.277 A 
ATOM     19  O   UNL     1       0.179   1.837  -1.957  0.00  0.00    -0.266 OA
ATOM     20  N   UNL     1       0.923  -0.051  -1.040  0.00  0.00    -0.273 N 
ATOM     21  H   UNL     1       0.531  -0.594  -1.782  0.00  0.00    +0.173 HD
ATOM     22  C   UNL     1       1.585  -0.665  -0.044  0.00  0.00    +0.331 A 
ATOM     23  O   UNL     1       1.698  -1.876  -0.060  0.00  0.00    -0.246 OA
BRANCH  16  24
ATOM     24  N   UNL     1       2.559   2.119   2.048  0.00  0.00    -0.343 N 
ATOM     25  H   UNL     1       2.966   1.654   2.795  0.00  0.00    +0.144 HD
ATOM     26  H   UNL     1       2.539   3.089   2.033  0.00  0.00    +0.144 HD
ENDBRANCH  16  24
BRANCH  15  27
ATOM     27  C   UNL     1       2.841  -0.667   2.039  0.00  0.00    +0.131 C 
BRANCH  27  29
ATOM     28  C   UNL     1       0.838  -2.042   2.621  0.00  0.00    +0.009 C 
ATOM     29  C   UNL     1       1.859  -1.035   3.153  0.00  0.00    +0.003 C 
ATOM     30  C   UNL     1       2.625  -1.655   4.324  0.00  0.00    +0.009 C 
ENDBRANCH  27  29
ENDBRANCH  15  27
ENDBRANCH   1  17
BRANCH   1  31
ATOM     31  C   UNL     1       2.386   4.308  -0.120  0.00  0.00    +0.142 C 
BRANCH  31  32
ATOM     32  C   UNL     1       2.579   4.697  -1.587  0.00  0.00    +0.179 C 
BRANCH  32  33
ATOM     33  O   UNL     1       1.483   5.510  -2.013  0.00  0.00    -0.381 OA
ATOM     34  C   UNL     1       1.566   5.930  -3.376  0.00  0.00    +0.194 C 
ENDBRANCH  32  33
ENDBRANCH  31  32
ENDBRANCH   1  31
TORSDOF 8
