REMARK  Name = ZINC35026792
REMARK  10 active torsions:
REMARK  status: ('A' for Active; 'I' for Inactive)
REMARK    1  A    between atoms: C_1  and  C_2
REMARK    2  A    between atoms: C_2  and  C_3
REMARK    3  A    between atoms: C_3  and  N_4
REMARK    4  A    between atoms: N_4  and  C_5
REMARK    5  A    between atoms: C_5  and  C_7
REMARK    6  A    between atoms: C_5  and  C_8
REMARK    7  A    between atoms: N_23  and  C_24
REMARK    8  A    between atoms: C_24  and  C_25
REMARK    9  A    between atoms: C_24  and  C_26
REMARK   10  A    between atoms: C_24  and  C_27
REMARK                            x       y       z     vdW  Elec       q    Type
REMARK                         _______ _______ _______ _____ _____    ______ ____
ROOT
ATOM      1  C   UNL     1      -0.155  -2.800  -1.868  0.00  0.00    +0.140 C 
ATOM      2  C   UNL     1      -0.812  -3.612  -0.750  0.00  0.00    +0.036 C 
ENDROOT
BRANCH   1   3
ATOM      3  C   UNL     1       0.534  -3.735  -2.829  0.00  0.00    +0.131 A 
ATOM      4  N   UNL     1      -0.196  -4.734  -3.391  0.00  0.00    -0.309 N 
ATOM      5  H   UNL     1      -1.135  -4.827  -3.167  0.00  0.00    +0.170 HD
ATOM      6  C   UNL     1       0.376  -5.600  -4.260  0.00  0.00    +0.259 A 
ATOM      7  O   UNL     1      -0.266  -6.499  -4.771  0.00  0.00    -0.267 OA
ATOM      8  C   UNL     1       1.802  -5.412  -4.564  0.00  0.00    +0.065 A 
ATOM      9  C   UNL     1       2.485  -6.247  -5.445  0.00  0.00    +0.017 A 
ATOM     10  C   UNL     1       3.812  -6.029  -5.693  0.00  0.00    +0.021 A 
ATOM     11  C   UNL     1       4.486  -4.983  -5.076  0.00  0.00    +0.043 A 
ATOM     12  C   UNL     1       3.834  -4.142  -4.199  0.00  0.00    +0.048 A 
ATOM     13  C   UNL     1       2.479  -4.345  -3.931  0.00  0.00    +0.080 A 
ATOM     14  N   UNL     1       1.793  -3.541  -3.081  0.00  0.00    -0.232 NA
ATOM     15 CL   UNL     1       6.171  -4.732  -5.411  0.00  0.00    -0.083 Cl
ENDBRANCH   1   3
BRANCH   1  16
ATOM     16  N   UNL     1       0.829  -1.881  -1.291  0.00  0.00    -0.276 N 
ATOM     17  C   UNL     1       1.851  -2.362  -0.556  0.00  0.00    +0.303 C 
ATOM     18  O   UNL     1       1.956  -3.559  -0.371  0.00  0.00    -0.253 OA
ATOM     19  N   UNL     1       2.756  -1.516  -0.025  0.00  0.00    -0.294 N 
ATOM     20  H   UNL     1       2.672  -0.561  -0.172  0.00  0.00    +0.151 HD
BRANCH  19  21
ATOM     21  C   UNL     1       3.867  -2.039   0.775  0.00  0.00    +0.028 C 
ATOM     22  C   UNL     1       4.707  -2.991  -0.080  0.00  0.00    +0.031 C 
ATOM     23  C   UNL     1       4.741  -0.879   1.254  0.00  0.00    +0.031 C 
ATOM     24  C   UNL     1       3.313  -2.795   1.984  0.00  0.00    +0.031 C 
ENDBRANCH  19  21
BRANCH  16  25
ATOM     25  C   UNL     1       0.702  -0.438  -1.513  0.00  0.00    +0.110 C 
BRANCH  25  27
ATOM     26  C   UNL     1      -0.058   1.717  -0.504  0.00  0.00    +0.005 C 
ATOM     27  C   UNL     1      -0.033   0.197  -0.332  0.00  0.00    +0.016 C 
ENDBRANCH  25  27
ENDBRANCH  16  25
ENDBRANCH   1  16
TORSDOF 5
