REMARK  Name = ZINC03581714
REMARK  11 active torsions:
REMARK  status: ('A' for Active; 'I' for Inactive)
REMARK    1  A    between atoms: C_1  and  C_2
REMARK    2  A    between atoms: C_2  and  O_3
REMARK    3  A    between atoms: O_3  and  C_4
REMARK    4  A    between atoms: C_4  and  C_6
REMARK    5  A    between atoms: C_10  and  N_11
REMARK    6  A    between atoms: C_12  and  C_14
REMARK    7  A    between atoms: C_14  and  S_15
REMARK    8  A    between atoms: S_15  and  C_16
REMARK    9  A    between atoms: N_18  and  C_25
REMARK   10  A    between atoms: C_25  and  C_26
REMARK   11  A    between atoms: C_31  and  C_32
REMARK                            x       y       z     vdW  Elec       q    Type
REMARK                         _______ _______ _______ _____ _____    ______ ____
ROOT
ATOM      1  C   UNL     1       0.335   8.237   0.136  0.00  0.00    +0.170 C 
ENDROOT
BRANCH   1   3
ATOM      2  N   UNL     1       0.129  10.701   0.219  0.00  0.00    -0.279 N 
ATOM      3  C   UNL     1      -0.484   9.502   0.178  0.00  0.00    +0.228 C 
ATOM      4  O   UNL     1      -1.696   9.440   0.176  0.00  0.00    -0.275 OA
ATOM      5  H   UNL     1       1.098  10.750   0.221  0.00  0.00    +0.155 HD
BRANCH   2  10
ATOM      6  C   UNL     1      -0.179  13.179   0.308  0.00  0.00    +0.091 A 
ATOM      7  C   UNL     1      -1.186  14.227   0.336  0.00  0.00    -0.021 A 
ATOM      8  C   UNL     1      -2.466  13.796   0.322  0.00  0.00    -0.004 A 
ATOM      9  S   UNL     1      -2.348  12.030   0.263  0.00  0.00    -0.077 S 
ATOM     10  C   UNL     1      -0.624  11.864   0.258  0.00  0.00    +0.086 A 
ATOM     11  C   UNL     1      -3.703  14.639   0.351  0.00  0.00    +0.043 C 
ATOM     12  C   UNL     1      -3.310  16.061   0.777  0.00  0.00    +0.005 C 
ATOM     13  C   UNL     1      -2.096  16.504  -0.045  0.00  0.00    +0.005 C 
ATOM     14  C   UNL     1      -0.859  15.714   0.385  0.00  0.00    +0.037 C 
BRANCH   6  15
ATOM     15  C   UNL     1       1.250  13.497   0.326  0.00  0.00    +0.342 C 
ATOM     16  O   UNL     1       1.849  13.668  -0.719  0.00  0.00    -0.245 OA
BRANCH  15  17
ATOM     17  O   UNL     1       1.903  13.601   1.502  0.00  0.00    -0.461 OA
BRANCH  17  19
ATOM     18  C   UNL     1       3.882  13.995   2.864  0.00  0.00    +0.048 C 
ATOM     19  C   UNL     1       3.318  13.919   1.444  0.00  0.00    +0.229 C 
ENDBRANCH  17  19
ENDBRANCH  15  17
ENDBRANCH   6  15
ENDBRANCH   2  10
ENDBRANCH   1   3
BRANCH   1  20
ATOM     20  S   UNL     1      -0.773   6.801   0.088  0.00  0.00    -0.114 S 
BRANCH  20  21
ATOM     21  C   UNL     1       0.322   5.421   0.042  0.00  0.00    +0.034 A 
ATOM     22  C   UNL     1       1.667   5.465   0.044  0.00  0.00    +0.102 A 
ATOM     23  N   UNL     1       2.174   4.186   0.002  0.00  0.00    -0.341 N 
ATOM     24  C   UNL     1       1.142   3.275  -0.029  0.00  0.00    +0.050 A 
ATOM     25  C   UNL     1      -0.061   4.005  -0.006  0.00  0.00    +0.013 A 
ATOM     26  C   UNL     1      -1.283   3.332  -0.030  0.00  0.00    +0.011 A 
ATOM     27  C   UNL     1      -1.306   1.967  -0.082  0.00  0.00    +0.001 A 
ATOM     28  C   UNL     1      -0.123   1.242  -0.100  0.00  0.00    +0.002 A 
ATOM     29  C   UNL     1       1.095   1.885  -0.077  0.00  0.00    +0.026 A 
BRANCH  23  30
ATOM     30  C   UNL     1       3.599   3.844  -0.008  0.00  0.00    +0.157 C 
BRANCH  30  31
ATOM     31  C   UNL     1       4.026   3.514  -1.415  0.00  0.00    -0.025 A 
ATOM     32  C   UNL     1       4.005   2.203  -1.854  0.00  0.00    +0.005 A 
ATOM     33  C   UNL     1       4.397   1.900  -3.144  0.00  0.00    +0.000 A 
ATOM     34  C   UNL     1       4.810   2.907  -3.996  0.00  0.00    +0.000 A 
ATOM     35  C   UNL     1       4.831   4.218  -3.557  0.00  0.00    +0.004 A 
ATOM     36  C   UNL     1       4.435   4.522  -2.268  0.00  0.00    -0.046 A 
ATOM     37  C   UNL     1       4.453   5.951  -1.791  0.00  0.00    +0.044 C 
ENDBRANCH  30  31
ENDBRANCH  23  30
ENDBRANCH  20  21
ENDBRANCH   1  20
TORSDOF 9
