REMARK  Name = ZINC05494704
REMARK  4 active torsions:
REMARK  status: ('A' for Active; 'I' for Inactive)
REMARK    1  A    between atoms: C_1  and  C_2
REMARK    2  A    between atoms: C_2  and  C_13
REMARK    3  A    between atoms: N_3  and  N_4
REMARK    4  A    between atoms: N_4  and  C_5
REMARK                            x       y       z     vdW  Elec       q    Type
REMARK                         _______ _______ _______ _____ _____    ______ ____
ROOT
ATOM      1  C   UNL     1       0.049   1.821   2.482  0.00  0.00    -0.001 A 
ATOM      2  C   UNL     1       1.429   1.607   2.504  0.00  0.00    +0.011 A 
ATOM      3  C   UNL     1       2.140   1.845   3.661  0.00  0.00    +0.017 A 
ATOM      4  C   UNL     1       1.492   2.294   4.805  0.00  0.00    +0.034 A 
ATOM      5  C   UNL     1       0.114   2.507   4.796  0.00  0.00    +0.046 A 
ATOM      6  C   UNL     1      -0.603   2.277   3.630  0.00  0.00    +0.034 A 
ATOM      7  N   UNL     1      -0.569   2.948   5.926  0.00  0.00    -0.313 N 
ATOM      8  C   UNL     1       0.003   3.659   6.977  0.00  0.00    +0.045 A 
ATOM      9  C   UNL     1      -0.814   4.458   7.771  0.00  0.00    +0.024 A 
ATOM     10  C   UNL     1      -0.280   5.173   8.825  0.00  0.00    +0.002 A 
ATOM     11  C   UNL     1       1.073   5.100   9.101  0.00  0.00    +0.001 A 
ATOM     12  C   UNL     1       1.895   4.311   8.318  0.00  0.00    +0.017 A 
ATOM     13  C   UNL     1       1.365   3.591   7.256  0.00  0.00    +0.034 A 
ATOM     14  S   UNL     1       2.428   2.594   6.267  0.00  0.00    -0.086 S 
ATOM     15  H   UNL     1      -1.516   2.744   5.986  0.00  0.00    +0.152 HD
ENDROOT
BRANCH   1  17
ATOM     16  C   UNL     1      -0.013   1.086   0.008  0.00  0.00    +0.068 C 
ATOM     17  C   UNL     1      -0.718   1.572   1.248  0.00  0.00    +0.063 C 
ATOM     18  N   UNL     1      -2.000   1.771   1.229  0.00  0.00    -0.191 NA
BRANCH  18  19
ATOM     19  N   UNL     1      -2.729   1.534   0.056  0.00  0.00    -0.264 N 
ATOM     20  H   UNL     1      -2.275   1.221  -0.742  0.00  0.00    +0.168 HD
BRANCH  19  21
ATOM     21  C   UNL     1      -4.176   1.759   0.035  0.00  0.00    +0.112 C 
ATOM     22  C   UNL     1      -4.909   0.459   0.408  0.00  0.00    +0.048 C 
ATOM     23  C   UNL     1      -6.416   0.591   0.081  0.00  0.00    +0.168 C 
ATOM     24  S   UNL     1      -6.424   1.793  -1.311  0.00  0.00    -0.029 S 
ATOM     25  O   UNL     1      -7.124   2.962  -0.907  0.00  0.00    -0.174 OA
ATOM     26  O   UNL     1      -6.812   1.120  -2.501  0.00  0.00    -0.174 OA
ATOM     27  C   UNL     1      -4.623   2.172  -1.397  0.00  0.00    +0.189 C 
ENDBRANCH  19  21
ENDBRANCH  18  19
ENDBRANCH   1  17
TORSDOF 3
