REMARK  Name = ZINC65397536
REMARK  7 active torsions:
REMARK  status: ('A' for Active; 'I' for Inactive)
REMARK    1  A    between atoms: C_1  and  N_2
REMARK    2  A    between atoms: N_2  and  C_3
REMARK    3  A    between atoms: N_2  and  C_4
REMARK    4  A    between atoms: C_7  and  C_10
REMARK    5  A    between atoms: C_19  and  O_23
REMARK    6  A    between atoms: C_20  and  O_22
REMARK    7  A    between atoms: O_23  and  C_24
REMARK                            x       y       z     vdW  Elec       q    Type
REMARK                         _______ _______ _______ _____ _____    ______ ____
ROOT
ATOM      1  C   UNL     1      -0.006  -2.813  -4.924  0.00  0.00    +0.060 C 
ATOM      2  C   UNL     1       1.233  -2.427  -5.732  0.00  0.00    +0.109 C 
ATOM      3  C   UNL     1       1.095  -1.018  -6.240  0.00  0.00    +0.218 C 
ATOM      4  O   UNL     1       2.077  -0.309  -6.316  0.00  0.00    -0.275 OA
ATOM      5  N   UNL     1      -0.104  -0.534  -6.613  0.00  0.00    -0.285 N 
ATOM      6  C   UNL     1      -1.251  -1.332  -6.518  0.00  0.00    +0.041 A 
ATOM      7  C   UNL     1      -1.246  -2.457  -5.704  0.00  0.00    -0.015 A 
ATOM      8  C   UNL     1      -2.375  -3.247  -5.608  0.00  0.00    +0.055 A 
ATOM      9  C   UNL     1      -3.515  -2.919  -6.324  0.00  0.00    +0.162 A 
ATOM     10  C   UNL     1      -3.523  -1.793  -7.141  0.00  0.00    +0.160 A 
ATOM     11  C   UNL     1      -2.391  -1.001  -7.237  0.00  0.00    +0.072 A 
ATOM     12  H   UNL     1      -0.175   0.373  -6.948  0.00  0.00    +0.155 HD
ENDROOT
BRANCH   1  16
ATOM     13  C   UNL     1       0.000  -0.696  -1.211  0.00  0.00    +0.029 A 
ATOM     14  C   UNL     1       0.013  -2.085  -1.221  0.00  0.00    +0.023 A 
ATOM     15  C   UNL     1       0.010  -2.766  -2.422  0.00  0.00    +0.006 A 
ATOM     16  C   UNL     1      -0.005  -2.066  -3.615  0.00  0.00    -0.039 A 
ATOM     17  C   UNL     1      -0.018  -0.684  -3.609  0.00  0.00    +0.006 A 
ATOM     18  C   UNL     1      -0.021   0.004  -2.411  0.00  0.00    +0.023 A 
BRANCH  13  20
ATOM     19  C   UNL     1      -0.018   1.461   0.010  0.00  0.00    +0.129 C 
ATOM     20  N   UNL     1       0.002  -0.004   0.002  0.00  0.00    -0.336 N 
ATOM     21  C   UNL     1       0.024  -0.743   1.267  0.00  0.00    +0.129 C 
ENDBRANCH  13  20
ENDBRANCH   1  16
BRANCH  10  22
ATOM     22  O   UNL     1      -4.641  -1.470  -7.845  0.00  0.00    -0.503 OA
ATOM     23  H   UNL     1      -5.249  -0.886  -7.370  0.00  0.00    +0.292 HD
ENDBRANCH  10  22
BRANCH   9  24
ATOM     24  O   UNL     1      -4.626  -3.699  -6.229  0.00  0.00    -0.491 OA
ATOM     25  C   UNL     1      -4.547  -4.839  -5.373  0.00  0.00    +0.277 C 
ENDBRANCH   9  24
TORSDOF 4
