REMARK  Name = ZINC62876946
REMARK  5 active torsions:
REMARK  status: ('A' for Active; 'I' for Inactive)
REMARK    1  A    between atoms: C_1  and  C_2
REMARK    2  A    between atoms: C_9  and  C_11
REMARK    3  A    between atoms: C_11  and  N_12
REMARK    4  A    between atoms: C_16  and  C_18
REMARK    5  A    between atoms: C_16  and  C_19
REMARK                            x       y       z     vdW  Elec       q    Type
REMARK                         _______ _______ _______ _____ _____    ______ ____
ROOT
ATOM      1  N   UNL     1       2.963  -4.837   1.557  0.00  0.00    +0.386 N 
ATOM      2  C   UNL     1       3.559  -4.448   2.841  0.00  0.00    -0.078 C 
ATOM      3  C   UNL     1       4.983  -4.999   2.933  0.00  0.00    -0.018 C 
ATOM      4  C   UNL     1       4.942  -6.526   2.829  0.00  0.00    +0.014 C 
ATOM      5  C   UNL     1       4.252  -6.920   1.520  0.00  0.00    +0.055 C 
ATOM      6  C   UNL     1       2.854  -6.298   1.480  0.00  0.00    -0.060 C 
ATOM      7  C   UNL     1       5.073  -6.408   0.335  0.00  0.00    +0.021 C 
ATOM      8  H   UNL     1       3.545  -4.503   0.803  0.00  0.00    -0.081 HD
ENDROOT
BRANCH   5   9
ATOM      9  C   UNL     1       4.137  -8.421   1.444  0.00  0.00    +0.360 C 
ATOM     10  O   UNL     1       4.568  -9.112   2.351  0.00  0.00    -0.246 OA
ATOM     11  O   UNL     1       3.614  -8.944   0.474  0.00  0.00    -0.246 OA
ENDBRANCH   5   9
BRANCH   1  12
ATOM     12  C   UNL     1       1.625  -4.241   1.440  0.00  0.00    +0.019 C 
BRANCH  12  20
ATOM     13  C   UNL     1      -0.019   1.526   0.010  0.00  0.00    +0.009 C 
ATOM     14  C   UNL     1       0.002  -0.004   0.002  0.00  0.00    +0.003 C 
ATOM     15  C   UNL     1      -1.433  -0.534   0.015  0.00  0.00    +0.006 C 
ATOM     16  C   UNL     1      -1.414  -2.064  -0.027  0.00  0.00    +0.019 C 
ATOM     17  C   UNL     1      -0.692  -2.596   1.215  0.00  0.00    +0.107 C 
ATOM     18  N   UNL     1       0.639  -1.977   1.288  0.00  0.00    -0.303 N 
ATOM     19  C   UNL     1       0.742  -0.512   1.244  0.00  0.00    +0.111 C 
ATOM     20  C   UNL     1       1.746  -2.740   1.395  0.00  0.00    +0.199 C 
ATOM     21  O   UNL     1       2.838  -2.217   1.455  0.00  0.00    -0.278 OA
ENDBRANCH  12  20
ENDBRANCH   1  12
TORSDOF 3
