REMARK  Name = ZINC04556842
REMARK  14 active torsions:
REMARK  status: ('A' for Active; 'I' for Inactive)
REMARK    1  A    between atoms: C_1  and  C_2
REMARK    2  A    between atoms: N_4  and  C_5
REMARK    3  A    between atoms: C_7  and  O_37
REMARK    4  A    between atoms: C_9  and  O_36
REMARK    5  A    between atoms: C_11  and  C_34
REMARK    6  A    between atoms: C_14  and  O_16
REMARK    7  A    between atoms: O_16  and  C_17
REMARK    8  A    between atoms: C_17  and  C_18
REMARK    9  A    between atoms: C_20  and  O_33
REMARK   10  A    between atoms: C_22  and  O_32
REMARK   11  A    between atoms: C_24  and  O_31
REMARK   12  A    between atoms: C_26  and  O_29
REMARK   13  A    between atoms: O_29  and  C_30
REMARK   14  A    between atoms: C_34  and  O_35
REMARK                            x       y       z     vdW  Elec       q    Type
REMARK                         _______ _______ _______ _____ _____    ______ ____
ROOT
ATOM      1  C   UNL     1       1.150   3.527   0.260  0.00  0.00    +0.160 C 
ATOM      2  C   UNL     1       2.538   4.171   0.189  0.00  0.00    +0.171 C 
ATOM      3  C   UNL     1       3.160   3.868  -1.178  0.00  0.00    +0.176 C 
ATOM      4  C   UNL     1       3.212   2.352  -1.381  0.00  0.00    +0.178 C 
ATOM      5  O   UNL     1       1.894   1.812  -1.272  0.00  0.00    -0.341 OA
ATOM      6  C   UNL     1       1.280   2.024   0.001  0.00  0.00    +0.273 C 
ENDROOT
BRANCH   1  10
ATOM      7  C   UNL     1      -1.352   3.960   3.125  0.00  0.00    +0.109 C 
ATOM      8  C   UNL     1      -0.761   3.734   1.757  0.00  0.00    +0.210 C 
ATOM      9  O   UNL     1      -1.489   3.541   0.806  0.00  0.00    -0.276 OA
ATOM     10  N   UNL     1       0.576   3.747   1.590  0.00  0.00    -0.305 N 
ATOM     11  H   UNL     1       1.159   3.901   2.350  0.00  0.00    +0.149 HD
ENDBRANCH   1  10
BRANCH   3  12
ATOM     12  O   UNL     1       2.365   4.461  -2.207  0.00  0.00    -0.387 OA
ATOM     13  H   UNL     1       2.698   4.305  -3.101  0.00  0.00    +0.210 HD
ENDBRANCH   3  12
BRANCH   2  14
ATOM     14  O   UNL     1       3.368   3.634   1.221  0.00  0.00    -0.387 OA
ATOM     15  H   UNL     1       4.266   3.994   1.231  0.00  0.00    +0.210 HD
ENDBRANCH   2  14
BRANCH   6  16
ATOM     16  O   UNL     1      -0.017   1.425   0.010  0.00  0.00    -0.347 OA
BRANCH  16  17
ATOM     17  C   UNL     1       0.002  -0.004   0.002  0.00  0.00    +0.197 C 
BRANCH  17  18
ATOM     18  C   UNL     1      -1.433  -0.534   0.013  0.00  0.00    +0.178 C 
ATOM     19  C   UNL     1      -1.413  -2.060   0.130  0.00  0.00    +0.177 C 
ATOM     20  C   UNL     1      -2.851  -2.587   0.080  0.00  0.00    +0.179 C 
ATOM     21  C   UNL     1      -3.512  -2.112  -1.218  0.00  0.00    +0.201 C 
ATOM     22  C   UNL     1      -3.451  -0.584  -1.283  0.00  0.00    +0.281 C 
ATOM     23  O   UNL     1      -2.089  -0.159  -1.200  0.00  0.00    -0.341 OA
BRANCH  22  24
ATOM     24  O   UNL     1      -4.015  -0.137  -2.517  0.00  0.00    -0.352 OA
ATOM     25  C   UNL     1      -4.111   1.285  -2.632  0.00  0.00    +0.197 C 
ENDBRANCH  22  24
BRANCH  21  26
ATOM     26  O   UNL     1      -2.818  -2.666  -2.337  0.00  0.00    -0.384 OA
ATOM     27  H   UNL     1      -3.183  -2.407  -3.194  0.00  0.00    +0.210 HD
ENDBRANCH  21  26
BRANCH  20  28
ATOM     28  O   UNL     1      -2.838  -4.015   0.115  0.00  0.00    -0.386 OA
ATOM     29  H   UNL     1      -3.717  -4.418   0.086  0.00  0.00    +0.210 HD
ENDBRANCH  20  28
BRANCH  19  30
ATOM     30  O   UNL     1      -0.664  -2.613  -0.954  0.00  0.00    -0.386 OA
ATOM     31  H   UNL     1      -0.610  -3.578  -0.943  0.00  0.00    +0.210 HD
ENDBRANCH  19  30
ENDBRANCH  17  18
ENDBRANCH  16  17
ENDBRANCH   6  16
BRANCH   4  32
ATOM     32  C   UNL     1       3.777   2.042  -2.769  0.00  0.00    +0.190 C 
BRANCH  32  33
ATOM     33  O   UNL     1       3.934   0.629  -2.916  0.00  0.00    -0.392 OA
ATOM     34  H   UNL     1       4.288   0.360  -3.774  0.00  0.00    +0.210 HD
ENDBRANCH  32  33
ENDBRANCH   4  32
TORSDOF 12
