REMARK  Name = ZINC39991137
REMARK  9 active torsions:
REMARK  status: ('A' for Active; 'I' for Inactive)
REMARK    1  A    between atoms: C_1  and  C_2
REMARK    2  A    between atoms: C_2  and  C_3
REMARK    3  A    between atoms: C_2  and  C_4
REMARK    4  A    between atoms: C_2  and  N_5
REMARK    5  A    between atoms: C_6  and  C_8
REMARK    6  A    between atoms: C_8  and  S_9
REMARK    7  A    between atoms: S_9  and  C_10
REMARK    8  A    between atoms: C_14  and  C_23
REMARK    9  A    between atoms: N_15  and  C_16
REMARK                            x       y       z     vdW  Elec       q    Type
REMARK                         _______ _______ _______ _____ _____    ______ ____
ROOT
ATOM      1  C   UNL     1       4.721  -0.749  -3.979  0.00  0.00    +0.241 C 
ATOM      2  N   UNL     1       4.744  -2.203  -4.203  0.00  0.00    -0.237 N 
ATOM      3  N   UNL     1       4.388  -2.405  -5.542  0.00  0.00    -0.169 NA
ATOM      4  C   UNL     1       4.155  -1.270  -6.147  0.00  0.00    +0.151 C 
ATOM      5  N   UNL     1       4.331  -0.184  -5.281  0.00  0.00    -0.254 N 
ATOM      6  H   UNL     1       4.964  -2.887  -3.552  0.00  0.00    +0.171 HD
ENDROOT
BRANCH   4   7
ATOM      7  C   UNL     1       3.778  -1.155  -7.494  0.00  0.00    +0.022 C 
ATOM      8  C   UNL     1       3.684  -2.182  -8.435  0.00  0.00    +0.006 A 
ATOM      9  C   UNL     1       3.918  -3.571  -8.356  0.00  0.00    +0.010 A 
ATOM     10  C   UNL     1       3.742  -4.347  -9.456  0.00  0.00    +0.001 A 
ATOM     11  C   UNL     1       3.333  -3.804 -10.676  0.00  0.00    +0.002 A 
ATOM     12  C   UNL     1       3.091  -2.478 -10.824  0.00  0.00    +0.026 A 
ATOM     13  C   UNL     1       3.252  -1.604  -9.718  0.00  0.00    +0.043 A 
ATOM     14  N   UNL     1       3.083  -0.301  -9.604  0.00  0.00    -0.380 N 
ATOM     15  C   UNL     1       3.382   0.107  -8.228  0.00  0.00    +0.152 C 
ATOM     16  H   UNL     1       2.801   0.292 -10.317  0.00  0.00    +0.160 HD
ENDBRANCH   4   7
BRANCH   5  17
ATOM     17  C   UNL     1       4.168   1.169  -5.590  0.00  0.00    +0.038 A 
ATOM     18  C   UNL     1       2.911   1.755  -5.513  0.00  0.00    +0.025 A 
ATOM     19  C   UNL     1       2.753   3.092  -5.819  0.00  0.00    +0.022 A 
ATOM     20  C   UNL     1       3.846   3.849  -6.203  0.00  0.00    +0.041 A 
ATOM     21  C   UNL     1       5.100   3.268  -6.282  0.00  0.00    +0.022 A 
ATOM     22  C   UNL     1       5.265   1.933  -5.971  0.00  0.00    +0.025 A 
ATOM     23 CL   UNL     1       3.644   5.530  -6.588  0.00  0.00    -0.084 Cl
ENDBRANCH   5  17
BRANCH   1  24
ATOM     24  S   UNL     1       3.496  -0.322  -2.711  0.00  0.00    -0.108 S 
BRANCH  24  25
ATOM     25  C   UNL     1       1.943  -1.007  -3.352  0.00  0.00    +0.168 C 
BRANCH  25  27
ATOM     26  N   UNL     1      -0.425  -1.137  -2.649  0.00  0.00    -0.310 N 
ATOM     27  C   UNL     1       0.828  -0.719  -2.380  0.00  0.00    +0.223 C 
ATOM     28  O   UNL     1       1.058  -0.111  -1.356  0.00  0.00    -0.275 OA
ATOM     29  H   UNL     1      -0.609  -1.623  -3.469  0.00  0.00    +0.149 HD
BRANCH  26  31
ATOM     30  C   UNL     1      -1.654   0.656  -1.529  0.00  0.00    +0.031 C 
ATOM     31  C   UNL     1      -1.509  -0.857  -1.705  0.00  0.00    +0.026 C 
ATOM     32  C   UNL     1      -1.188  -1.499  -0.354  0.00  0.00    +0.031 C 
ATOM     33  C   UNL     1      -2.819  -1.435  -2.246  0.00  0.00    +0.031 C 
ENDBRANCH  26  31
ENDBRANCH  25  27
ENDBRANCH  24  25
ENDBRANCH   1  24
TORSDOF 6
