REMARK  Name = ZINC04307340
REMARK  5 active torsions:
REMARK  status: ('A' for Active; 'I' for Inactive)
REMARK    1  A    between atoms: C_1  and  C_2
REMARK    2  A    between atoms: C_2  and  C_18
REMARK    3  A    between atoms: N_5  and  C_9
REMARK    4  A    between atoms: C_9  and  C_10
REMARK    5  A    between atoms: C_21  and  N_24
REMARK                            x       y       z     vdW  Elec       q    Type
REMARK                         _______ _______ _______ _____ _____    ______ ____
ROOT
ATOM      1  C   UNL     1       4.456   0.155  -4.596  0.00  0.00    +0.047 C 
ATOM      2  C   UNL     1       5.054  -0.729  -3.500  0.00  0.00    +0.135 C 
ATOM      3  C   UNL     1       4.883  -0.083  -2.140  0.00  0.00    +0.251 C 
ATOM      4  O   UNL     1       5.333   0.982  -1.773  0.00  0.00    -0.272 OA
ATOM      5  N   UNL     1       4.125  -0.937  -1.424  0.00  0.00    -0.220 N 
ATOM      6  C   UNL     1       3.802  -2.024  -2.133  0.00  0.00    +0.310 C 
ATOM      7  O   UNL     1       3.128  -2.938  -1.700  0.00  0.00    -0.252 OA
ATOM      8  N   UNL     1       4.303  -1.991  -3.381  0.00  0.00    -0.281 N 
ATOM      9  H   UNL     1       4.193  -2.667  -4.068  0.00  0.00    +0.152 HD
ENDROOT
BRANCH   2  10
ATOM     10  C   UNL     1       6.510  -1.003  -3.777  0.00  0.00    -0.015 A 
ATOM     11  C   UNL     1       7.482  -0.183  -3.237  0.00  0.00    +0.008 A 
ATOM     12  C   UNL     1       8.818  -0.437  -3.488  0.00  0.00    +0.033 A 
ATOM     13  C   UNL     1       9.181  -1.505  -4.286  0.00  0.00    +0.126 A 
ATOM     14  C   UNL     1       8.208  -2.323  -4.830  0.00  0.00    +0.033 A 
ATOM     15  C   UNL     1       6.872  -2.071  -4.576  0.00  0.00    +0.008 A 
BRANCH  13  16
ATOM     16  N   UNL     1      10.610  -1.774  -4.559  0.00  0.00    +0.056 N 
ATOM     17  O   UNL     1      10.930  -2.716  -5.262  0.00  0.00    -0.126 OA
ATOM     18  O   UNL     1      11.468  -1.054  -4.079  0.00  0.00    -0.126 OA
ENDBRANCH  13  16
ENDBRANCH   2  10
BRANCH   5  19
ATOM     19  C   UNL     1       3.712  -0.706  -0.037  0.00  0.00    +0.153 C 
BRANCH  19  20
ATOM     20  C   UNL     1       2.397   0.029  -0.021  0.00  0.00    -0.028 A 
ATOM     21  C   UNL     1       2.378   1.412  -0.013  0.00  0.00    +0.007 A 
ATOM     22  C   UNL     1       1.172   2.087   0.002  0.00  0.00    +0.022 A 
ATOM     23  C   UNL     1      -0.017   1.380   0.010  0.00  0.00    +0.059 A 
ATOM     24  C   UNL     1       0.002  -0.004   0.002  0.00  0.00    +0.060 A 
ATOM     25  C   UNL     1       1.210  -0.679  -0.013  0.00  0.00    +0.026 A 
ATOM     26 CL   UNL     1      -1.489  -0.893   0.011  0.00  0.00    -0.082 Cl
ATOM     27 CL   UNL     1      -1.532   2.228   0.021  0.00  0.00    -0.082 Cl
ENDBRANCH  19  20
ENDBRANCH   5  19
TORSDOF 4
