REMARK  Name = ZINC13369283
REMARK  10 active torsions:
REMARK  status: ('A' for Active; 'I' for Inactive)
REMARK    1  A    between atoms: C_1  and  C_2
REMARK    2  A    between atoms: C_5  and  C_34
REMARK    3  A    between atoms: C_9  and  C_10
REMARK    4  A    between atoms: C_9  and  N_65
REMARK    5  A    between atoms: C_10  and  C_11
REMARK    6  A    between atoms: C_11  and  N_12
REMARK    7  A    between atoms: C_13  and  C_15
REMARK    8  A    between atoms: C_15  and  C_17
REMARK    9  A    between atoms: C_15  and  N_18
REMARK   10  A    between atoms: C_25  and  C_27
REMARK                            x       y       z     vdW  Elec       q    Type
REMARK                         _______ _______ _______ _____ _____    ______ ____
ROOT
ATOM      1  C   UNL     1       0.256   0.907   4.905  0.00  0.00    +0.190 C 
ATOM      2  C   UNL     1       1.691   1.437   4.894  0.00  0.00    +0.042 C 
ENDROOT
BRANCH   1   3
ATOM      3  N   UNL     1      -0.430   1.380   6.110  0.00  0.00    -0.251 N 
ATOM      4  C   UNL     1      -0.971   0.577   7.082  0.00  0.00    +0.070 A 
ATOM      5  C   UNL     1      -1.054  -0.803   7.254  0.00  0.00    +0.029 A 
ATOM      6  C   UNL     1      -1.673  -1.315   8.359  0.00  0.00    +0.022 A 
ATOM      7  C   UNL     1      -2.224  -0.474   9.319  0.00  0.00    +0.042 A 
ATOM      8  C   UNL     1      -2.156   0.883   9.175  0.00  0.00    +0.032 A 
ATOM      9  C   UNL     1      -1.528   1.429   8.053  0.00  0.00    +0.029 A 
ATOM     10  C   UNL     1      -1.280   2.798   7.590  0.00  0.00    +0.100 A 
ATOM     11  N   UNL     1      -0.631   2.720   6.454  0.00  0.00    -0.169 NA
ATOM     12 CL   UNL     1      -3.005  -1.154  10.712  0.00  0.00    -0.084 Cl
BRANCH  10  13
ATOM     13  C   UNL     1      -1.685   4.044   8.284  0.00  0.00    +0.003 A 
ATOM     14  C   UNL     1      -2.885   4.093   8.993  0.00  0.00    +0.010 A 
ATOM     15  C   UNL     1      -3.254   5.254   9.640  0.00  0.00    +0.001 A 
ATOM     16  C   UNL     1      -2.441   6.372   9.580  0.00  0.00    +0.000 A 
ATOM     17  C   UNL     1      -1.251   6.331   8.875  0.00  0.00    +0.001 A 
ATOM     18  C   UNL     1      -0.869   5.174   8.227  0.00  0.00    +0.010 A 
ENDBRANCH  10  13
ENDBRANCH   1   3
BRANCH   1  20
ATOM     19  N   UNL     1      -0.020   1.094   2.454  0.00  0.00    -0.314 N 
ATOM     20  C   UNL     1      -0.473   1.407   3.684  0.00  0.00    +0.237 C 
ATOM     21  O   UNL     1      -1.468   2.090   3.808  0.00  0.00    -0.273 OA
ATOM     22  H   UNL     1       0.775   0.547   2.354  0.00  0.00    +0.149 HD
BRANCH  19  23
ATOM     23  C   UNL     1      -0.729   1.579   1.267  0.00  0.00    +0.102 C 
BRANCH  23  24
ATOM     24  C   UNL     1      -0.013   1.086   0.008  0.00  0.00    +0.000 C 
BRANCH  24  25
ATOM     25  C   UNL     1      -0.753   1.593  -1.232  0.00  0.00    -0.077 C 
BRANCH  25  33
ATOM     26  C   UNL     1       2.164  -0.411  -3.512  0.00  0.00    +0.005 C 
ATOM     27  C   UNL     1       2.011   1.095  -3.740  0.00  0.00    -0.031 C 
ATOM     28  C   UNL     1       1.210   1.339  -5.022  0.00  0.00    +0.003 C 
ATOM     29  C   UNL     1      -0.193   0.748  -4.858  0.00  0.00    -0.031 C 
ATOM     30  C   UNL     1      -0.870   1.381  -3.640  0.00  0.00    -0.076 C 
ATOM     31  C   UNL     1       1.271   1.718  -2.555  0.00  0.00    -0.076 C 
ATOM     32  C   UNL     1      -1.020   1.040  -6.112  0.00  0.00    +0.005 C 
ATOM     33  N   UNL     1      -0.062   1.089  -2.437  0.00  0.00    +0.380 N 
ATOM     34  H   UNL     1       0.055   0.073  -2.353  0.00  0.00    -0.082 HD
ENDBRANCH  25  33
ENDBRANCH  24  25
ENDBRANCH  23  24
ENDBRANCH  19  23
ENDBRANCH   1  20
TORSDOF 7
