REMARK  Name = ZINC20615373
REMARK  3 active torsions:
REMARK  status: ('A' for Active; 'I' for Inactive)
REMARK    1  A    between atoms: C_3  and  N_8
REMARK    2  A    between atoms: N_8  and  N_9
REMARK    3  A    between atoms: C_10  and  C_11
REMARK                            x       y       z     vdW  Elec       q    Type
REMARK                         _______ _______ _______ _____ _____    ______ ____
ROOT
ATOM      1  N   UNL     1       4.764   1.405   0.371  0.00  0.00    -0.313 N 
ATOM      2  C   UNL     1       5.908   2.099   0.467  0.00  0.00    +0.110 C 
ATOM      3  H   UNL     1       4.752   0.459   0.583  0.00  0.00    +0.184 HD
ENDROOT
BRANCH   2   4
ATOM      4  C   UNL     1       7.103   1.439   0.764  0.00  0.00    +0.041 A 
ATOM      5  C   UNL     1       8.333   2.134   0.758  0.00  0.00    +0.028 A 
ATOM      6  C   UNL     1       9.485   1.474   1.050  0.00  0.00    +0.020 A 
ATOM      7  C   UNL     1       9.488   0.116   1.359  0.00  0.00    +0.034 A 
ATOM      8  C   UNL     1       8.337  -0.612   1.382  0.00  0.00    +0.066 A 
ATOM      9  C   UNL     1       7.107   0.009   1.096  0.00  0.00    +0.201 A 
ATOM     10  O   UNL     1       6.065  -0.631   1.118  0.00  0.00    -0.286 OA
ATOM     11 BR   UNL     1       8.390  -2.453   1.807  0.00  0.00    -0.046 Br
ATOM     12 BR   UNL     1      11.122   2.421   1.036  0.00  0.00    -0.050 Br
ENDBRANCH   2   4
BRANCH   1  13
ATOM     13  N   UNL     1       3.587   2.047  -0.035  0.00  0.00    -0.257 N 
ATOM     14  H   UNL     1       3.615   2.973  -0.324  0.00  0.00    +0.172 HD
BRANCH  13  17
ATOM     15  C   UNL     1       0.888  -0.247   0.941  0.00  0.00    +0.132 A 
ATOM     16  C   UNL     1       2.099   0.416   0.967  0.00  0.00    +0.083 A 
ATOM     17  C   UNL     1       2.378   1.356  -0.025  0.00  0.00    +0.086 A 
ATOM     18  C   UNL     1       1.414   1.587  -1.007  0.00  0.00    +0.083 A 
ATOM     19  C   UNL     1       0.228   0.882  -0.961  0.00  0.00    +0.132 A 
ATOM     20  N   UNL     1       0.002  -0.000  -0.006  0.00  0.00    -0.260 NA
ATOM     21 CL   UNL     1       1.701   2.745  -2.268  0.00  0.00    -0.080 Cl
ATOM     22 CL   UNL     1       3.257   0.085   2.216  0.00  0.00    -0.080 Cl
ENDBRANCH  13  17
ENDBRANCH   1  13
TORSDOF 3
