REMARK  Name = ZINC39678268
REMARK  8 active torsions:
REMARK  status: ('A' for Active; 'I' for Inactive)
REMARK    1  A    between atoms: C_1  and  C_2
REMARK    2  A    between atoms: C_2  and  C_3
REMARK    3  A    between atoms: C_3  and  C_5
REMARK    4  A    between atoms: C_3  and  C_6
REMARK    5  A    between atoms: C_10  and  C_19
REMARK    6  A    between atoms: N_21  and  C_22
REMARK    7  A    between atoms: C_22  and  C_23
REMARK    8  A    between atoms: C_28  and  N_29
REMARK                            x       y       z     vdW  Elec       q    Type
REMARK                         _______ _______ _______ _____ _____    ______ ____
ROOT
ATOM      1  C   UNL     1       1.011  -2.840   0.983  0.00  0.00    +0.218 C 
ATOM      2  O   UNL     1       0.427  -3.556   0.197  0.00  0.00    -0.275 OA
ATOM      3  N   UNL     1       1.395  -3.327   2.180  0.00  0.00    -0.300 N 
ATOM      4  C   UNL     1       2.014  -2.587   3.305  0.00  0.00    +0.121 C 
ATOM      5  C   UNL     1       1.360  -3.183   4.571  0.00  0.00    +0.100 C 
ATOM      6  C   UNL     1       0.891  -4.585   4.148  0.00  0.00    -0.004 C 
ATOM      7  C   UNL     1       1.288  -4.722   2.671  0.00  0.00    +0.115 C 
ATOM      8  C   UNL     1      -0.623  -4.703   4.294  0.00  0.00    -0.010 C 
ATOM      9  C   UNL     1      -1.058  -6.123   3.921  0.00  0.00    -0.082 C 
ATOM     10  N   UNL     1      -0.385  -7.089   4.798  0.00  0.00    +0.379 N 
ATOM     11  C   UNL     1       1.066  -7.034   4.584  0.00  0.00    -0.082 C 
ATOM     12  C   UNL     1       1.591  -5.652   4.984  0.00  0.00    -0.010 C 
ATOM     13  H   UNL     1      -0.591  -6.867   5.761  0.00  0.00    -0.086 HD
ATOM     14  H   UNL     1      -0.720  -8.018   4.592  0.00  0.00    -0.086 HD
ENDROOT
BRANCH   5  15
ATOM     15  C   UNL     1       2.368  -3.279   5.687  0.00  0.00    +0.218 C 
ATOM     16  O   UNL     1       3.497  -3.658   5.454  0.00  0.00    -0.275 OA
ATOM     17  N   UNL     1       2.016  -2.944   6.944  0.00  0.00    -0.311 N 
ATOM     18  H   UNL     1       1.114  -2.641   7.131  0.00  0.00    +0.149 HD
BRANCH  17  19
ATOM     19  C   UNL     1       2.997  -3.038   8.029  0.00  0.00    +0.141 C 
BRANCH  19  20
ATOM     20  C   UNL     1       2.355  -2.610   9.324  0.00  0.00    -0.009 A 
ATOM     21  C   UNL     1       2.567  -1.335   9.811  0.00  0.00    +0.007 A 
ATOM     22  C   UNL     1       1.979  -0.941  10.999  0.00  0.00    +0.000 A 
ATOM     23  C   UNL     1       1.178  -1.822  11.704  0.00  0.00    +0.002 A 
ATOM     24  C   UNL     1       0.962  -3.098  11.222  0.00  0.00    +0.023 A 
ATOM     25  C   UNL     1       1.547  -3.494  10.025  0.00  0.00    +0.034 A 
BRANCH  25  26
ATOM     26  N   UNL     1       1.327  -4.783   9.532  0.00  0.00    -0.330 N 
ATOM     27  C   UNL     1       2.214  -5.891   9.910  0.00  0.00    +0.105 C 
ATOM     28  C   UNL     1       1.363  -7.035  10.470  0.00  0.00    +0.019 C 
ATOM     29  C   UNL     1       0.287  -7.412   9.450  0.00  0.00    +0.003 C 
ATOM     30  C   UNL     1      -0.625  -6.209   9.200  0.00  0.00    +0.019 C 
ATOM     31  C   UNL     1       0.200  -5.056   8.630  0.00  0.00    +0.105 C 
ENDBRANCH  25  26
ENDBRANCH  19  20
ENDBRANCH  17  19
ENDBRANCH   5  15
BRANCH   1  32
ATOM     32  C   UNL     1       1.307  -1.408   0.622  0.00  0.00    +0.072 C 
ATOM     33  C   UNL     1       0.178  -0.509   1.131  0.00  0.00    +0.017 C 
BRANCH  32  35
ATOM     34  C   UNL     1       1.839   0.148  -1.259  0.00  0.00    +0.004 C 
ATOM     35  C   UNL     1       1.416  -1.277  -0.898  0.00  0.00    +0.009 C 
ENDBRANCH  32  35
ENDBRANCH   1  32
TORSDOF 6
