REMARK  Name = ZINC11973779
REMARK  7 active torsions:
REMARK  status: ('A' for Active; 'I' for Inactive)
REMARK    1  A    between atoms: C_1  and  S_2
REMARK    2  A    between atoms: S_2  and  C_3
REMARK    3  A    between atoms: C_8  and  C_18
REMARK    4  A    between atoms: C_18  and  N_19
REMARK    5  A    between atoms: N_19  and  C_20
REMARK    6  A    between atoms: C_20  and  C_21
REMARK    7  A    between atoms: C_30  and  C_32
REMARK                            x       y       z     vdW  Elec       q    Type
REMARK                         _______ _______ _______ _____ _____    ______ ____
ROOT
ATOM      1  C   UNL     1      11.005   1.833   4.951  0.00  0.00    +0.010 A 
ATOM      2  C   UNL     1      10.004   2.809   4.868  0.00  0.00    +0.015 A 
ATOM      3  C   UNL     1       8.912   2.619   4.081  0.00  0.00    +0.011 A 
ATOM      4  C   UNL     1       8.781   1.433   3.340  0.00  0.00    -0.001 A 
ATOM      5  C   UNL     1       7.660   1.210   2.516  0.00  0.00    +0.018 A 
ATOM      6  C   UNL     1       7.590   0.039   1.821  0.00  0.00    +0.009 A 
ATOM      7  C   UNL     1       8.616  -0.908   1.943  0.00  0.00    +0.104 A 
ATOM      8  C   UNL     1       9.788   0.439   3.416  0.00  0.00    +0.049 A 
ATOM      9  C   UNL     1      10.905   0.658   4.236  0.00  0.00    +0.041 A 
ATOM     10  N   UNL     1       8.527  -2.097   1.235  0.00  0.00    -0.312 N 
ATOM     11  C   UNL     1       8.320  -3.236   2.142  0.00  0.00    +0.134 C 
ATOM     12  C   UNL     1       8.169  -4.517   1.317  0.00  0.00    +0.178 C 
ATOM     13  O   UNL     1       9.325  -4.685   0.491  0.00  0.00    -0.377 OA
ATOM     14  C   UNL     1       9.556  -3.595  -0.405  0.00  0.00    +0.178 C 
ATOM     15  C   UNL     1       9.721  -2.304   0.402  0.00  0.00    +0.134 C 
ATOM     16  N   UNL     1       9.719  -0.746   2.715  0.00  0.00    -0.343 N 
ATOM     17  H   UNL     1      10.456  -1.459   2.773  0.00  0.00    +0.167 HD
ENDROOT
BRANCH   1  19
ATOM     18  C   UNL     1      12.107   3.747   6.702  0.00  0.00    +0.090 C 
ATOM     19  S   UNL     1      12.408   2.110   5.981  0.00  0.00    -0.129 S 
ENDBRANCH   1  19
BRANCH   6  20
ATOM     20  C   UNL     1       6.408  -0.239   0.929  0.00  0.00    +0.147 C 
BRANCH  20  21
ATOM     21  N   UNL     1       5.537   0.938   0.890  0.00  0.00    -0.286 N 
ATOM     22  C   UNL     1       4.625   1.135   1.863  0.00  0.00    +0.282 C 
ATOM     23  O   UNL     1       3.957   2.151   1.875  0.00  0.00    -0.267 OA
BRANCH  22  24
ATOM     24  C   UNL     1       4.439   0.123   2.909  0.00  0.00    +0.189 A 
ATOM     25  C   UNL     1       3.478   0.138   3.878  0.00  0.00    +0.054 A 
ATOM     26  C   UNL     1       3.670  -1.014   4.656  0.00  0.00    +0.042 A 
ATOM     27  C   UNL     1       4.728  -1.674   4.133  0.00  0.00    +0.196 A 
ATOM     28  O   UNL     1       5.185  -0.989   3.078  0.00  0.00    -0.458 OA
ENDBRANCH  22  24
BRANCH  21  29
ATOM     29  C   UNL     1       5.657   1.902  -0.206  0.00  0.00    +0.143 C 
BRANCH  29  30
ATOM     30  C   UNL     1       4.659   1.564  -1.284  0.00  0.00    -0.026 A 
ATOM     31  C   UNL     1       3.362   2.034  -1.195  0.00  0.00    +0.009 A 
ATOM     32  C   UNL     1       2.443   1.726  -2.181  0.00  0.00    +0.050 A 
ATOM     33  C   UNL     1       2.820   0.946  -3.261  0.00  0.00    +0.166 A 
ATOM     34  C   UNL     1       4.127   0.472  -3.351  0.00  0.00    +0.167 A 
ATOM     35  C   UNL     1       5.043   0.785  -2.360  0.00  0.00    +0.054 A 
ATOM     36  O   UNL     1       4.247  -0.264  -4.494  0.00  0.00    -0.453 OA
ATOM     37  C   UNL     1       3.116   0.102  -5.307  0.00  0.00    +0.466 C 
ATOM     38  O   UNL     1       2.121   0.505  -4.348  0.00  0.00    -0.453 OA
ENDBRANCH  29  30
ENDBRANCH  21  29
ENDBRANCH  20  21
ENDBRANCH   6  20
TORSDOF 6
