REMARK  Name = ZINC30979612
REMARK  7 active torsions:
REMARK  status: ('A' for Active; 'I' for Inactive)
REMARK    1  A    between atoms: C_1  and  C_2
REMARK    2  A    between atoms: C_2  and  C_35
REMARK    3  A    between atoms: C_4  and  N_13
REMARK    4  A    between atoms: C_14  and  C_16
REMARK    5  A    between atoms: N_19  and  C_22
REMARK    6  A    between atoms: C_22  and  C_23
REMARK    7  A    between atoms: C_25  and  C_28
REMARK                            x       y       z     vdW  Elec       q    Type
REMARK                         _______ _______ _______ _____ _____    ______ ____
ROOT
ATOM      1  C   UNL     1       8.069   1.742   3.583  0.00  0.00    +0.071 C 
ATOM      2  C   UNL     1       8.493   0.489   2.812  0.00  0.00    -0.006 C 
ATOM      3  C   UNL     1       8.021   0.605   1.360  0.00  0.00    -0.077 C 
ATOM      4  N   UNL     1       6.561   0.750   1.329  0.00  0.00    +0.386 N 
ATOM      5  C   UNL     1       6.133   1.972   2.023  0.00  0.00    -0.077 C 
ATOM      6  C   UNL     1       6.548   1.896   3.494  0.00  0.00    -0.006 C 
ATOM      7  H   UNL     1       6.127  -0.108   1.863  0.00  0.00    -0.081 HD
ENDROOT
BRANCH   1   9
ATOM      8  N   UNL     1       8.205   2.597   5.900  0.00  0.00    -0.308 N 
ATOM      9  C   UNL     1       8.478   1.607   5.027  0.00  0.00    +0.216 C 
ATOM     10  O   UNL     1       9.052   0.607   5.404  0.00  0.00    -0.276 OA
ATOM     11  H   UNL     1       7.685   3.503   5.558  0.00  0.00    +0.149 HD
BRANCH   8  15
ATOM     12  C   UNL     1      10.031   2.734   9.768  0.00  0.00    +0.055 C 
ATOM     13  C   UNL     1       8.892   3.701   9.440  0.00  0.00    +0.107 C 
ATOM     14  C   UNL     1       8.770   3.857   7.918  0.00  0.00    +0.074 C 
ATOM     15  C   UNL     1       8.603   2.465   7.304  0.00  0.00    +0.110 C 
ATOM     16  C   UNL     1       7.542   1.703   8.056  0.00  0.00    +0.015 A 
ATOM     17  C   UNL     1       6.973   0.589   7.460  0.00  0.00    +0.009 A 
ATOM     18  C   UNL     1       6.002  -0.136   8.122  0.00  0.00    +0.001 A 
ATOM     19  C   UNL     1       5.593   0.249   9.386  0.00  0.00    +0.004 A 
ATOM     20  C   UNL     1       6.154   1.358   9.983  0.00  0.00    +0.046 A 
ATOM     21  C   UNL     1       7.133   2.091   9.319  0.00  0.00    +0.126 A 
ATOM     22  O   UNL     1       7.660   3.179   9.939  0.00  0.00    -0.486 OA
ATOM     23  C   UNL     1       9.172   5.063  10.077  0.00  0.00    +0.055 C 
ENDBRANCH   8  15
ENDBRANCH   1   9
BRANCH   4  24
ATOM     24  C   UNL     1       6.059   0.726  -0.051  0.00  0.00    +0.022 C 
BRANCH  24  25
ATOM     25  C   UNL     1       4.555   0.629  -0.038  0.00  0.00    +0.211 A 
ATOM     26  N   UNL     1       3.711   1.631  -0.030  0.00  0.00    -0.193 NA
ATOM     27  C   UNL     1       2.481   1.069  -0.015  0.00  0.00    +0.202 A 
ATOM     28  N   UNL     1       2.648  -0.228  -0.024  0.00  0.00    -0.056 NA
ATOM     29  O   UNL     1       3.832  -0.495  -0.037  0.00  0.00    -0.340 OA
BRANCH  27  30
ATOM     30  C   UNL     1       1.184   1.790   0.000  0.00  0.00    +0.023 A 
ATOM     31  C   UNL     1      -0.013   1.076   0.008  0.00  0.00    +0.013 A 
ATOM     32  C   UNL     1      -1.216   1.751   0.017  0.00  0.00    +0.016 A 
ATOM     33  C   UNL     1      -1.236   3.135   0.031  0.00  0.00    +0.018 A 
ATOM     34  C   UNL     1      -0.051   3.849   0.023  0.00  0.00    +0.016 A 
ATOM     35  C   UNL     1       1.158   3.183   0.008  0.00  0.00    +0.013 A 
ATOM     36 BR   UNL     1      -2.889   4.053   0.052  0.00  0.00    -0.050 Br
ENDBRANCH  27  30
ENDBRANCH  24  25
ENDBRANCH   4  24
TORSDOF 5
