REMARK  Name = ZINC14471825
REMARK  4 active torsions:
REMARK  status: ('A' for Active; 'I' for Inactive)
REMARK    1  A    between atoms: C_3  and  C_10
REMARK    2  A    between atoms: C_5  and  N_7
REMARK    3  A    between atoms: C_23  and  C_26
REMARK    4  A    between atoms: N_28  and  C_29
REMARK                            x       y       z     vdW  Elec       q    Type
REMARK                         _______ _______ _______ _____ _____    ______ ____
ROOT
ATOM      1  C   UNL     1       3.565  -1.976  -0.592  0.00  0.00    +0.105 C 
ATOM      2  C   UNL     1       2.541  -2.825   0.166  0.00  0.00    +0.029 C 
ATOM      3  C   UNL     1       2.349  -4.153  -0.619  0.00  0.00    +0.033 C 
ATOM      4  C   UNL     1       1.362  -3.783  -1.707  0.00  0.00    -0.030 C 
ATOM      5  C   UNL     1       0.673  -2.707  -1.368  0.00  0.00    -0.023 C 
ATOM      6  C   UNL     1       1.141  -2.202  -0.022  0.00  0.00    +0.049 C 
ATOM      7  C   UNL     1       1.201  -0.703  -0.012  0.00  0.00    -0.019 A 
ATOM      8  C   UNL     1       0.002  -0.004   0.002  0.00  0.00    +0.006 A 
ATOM      9  C   UNL     1      -0.017   1.378   0.010  0.00  0.00    +0.001 A 
ATOM     10  C   UNL     1       1.164   2.088   0.002  0.00  0.00    +0.015 A 
ATOM     11  C   UNL     1       2.380   1.405  -0.013  0.00  0.00    +0.058 A 
ATOM     12  C   UNL     1       2.396  -0.004  -0.019  0.00  0.00    +0.044 A 
ATOM     13  N   UNL     1       3.627  -0.641   0.005  0.00  0.00    -0.336 N 
ATOM     14  H   UNL     1       4.009  -0.679   0.938  0.00  0.00    +0.147 HD
ENDROOT
BRANCH   1  17
ATOM     15  C   UNL     1       6.934  -3.075   0.711  0.00  0.00    +0.003 A 
ATOM     16  C   UNL     1       5.692  -2.473   0.631  0.00  0.00    +0.005 A 
ATOM     17  C   UNL     1       4.921  -2.628  -0.506  0.00  0.00    -0.025 A 
ATOM     18  C   UNL     1       5.395  -3.378  -1.566  0.00  0.00    +0.038 A 
ATOM     19  C   UNL     1       6.639  -3.977  -1.487  0.00  0.00    +0.127 A 
ATOM     20  C   UNL     1       7.408  -3.825  -0.348  0.00  0.00    +0.033 A 
BRANCH  19  21
ATOM     21  N   UNL     1       7.146  -4.780  -2.622  0.00  0.00    +0.056 N 
ATOM     22  O   UNL     1       6.469  -4.914  -3.625  0.00  0.00    -0.126 OA
ATOM     23  O   UNL     1       8.242  -5.308  -2.552  0.00  0.00    -0.126 OA
ENDBRANCH  19  21
ENDBRANCH   1  17
BRANCH  11  24
ATOM     24  C   UNL     1       3.648   2.156  -0.022  0.00  0.00    +0.246 C 
ATOM     25  O   UNL     1       4.708   1.560  -0.034  0.00  0.00    -0.270 OA
ATOM     26  N   UNL     1       3.633   3.504  -0.016  0.00  0.00    -0.308 N 
ATOM     27  H   UNL     1       2.788   3.979  -0.006  0.00  0.00    +0.149 HD
BRANCH  26  28
ATOM     28  C   UNL     1       4.894   4.250  -0.025  0.00  0.00    +0.073 C 
ATOM     29  C   UNL     1       5.410   4.396   1.408  0.00  0.00    +0.022 C 
ATOM     30  C   UNL     1       6.726   5.176   1.399  0.00  0.00    +0.002 C 
ATOM     31  C   UNL     1       6.493   6.563   0.797  0.00  0.00    +0.000 C 
ATOM     32  C   UNL     1       5.976   6.417  -0.636  0.00  0.00    +0.002 C 
ATOM     33  C   UNL     1       4.660   5.638  -0.626  0.00  0.00    +0.022 C 
ENDBRANCH  26  28
ENDBRANCH  11  24
TORSDOF 4
