REMARK  Name = ZINC21258793
REMARK  8 active torsions:
REMARK  status: ('A' for Active; 'I' for Inactive)
REMARK    1  A    between atoms: C_1  and  C_2
REMARK    2  A    between atoms: C_2  and  C_3
REMARK    3  A    between atoms: C_2  and  O_4
REMARK    4  A    between atoms: O_4  and  C_5
REMARK    5  A    between atoms: C_8  and  C_13
REMARK    6  A    between atoms: C_10  and  O_11
REMARK    7  A    between atoms: O_11  and  C_12
REMARK    8  A    between atoms: C_18  and  C_28
REMARK                            x       y       z     vdW  Elec       q    Type
REMARK                         _______ _______ _______ _____ _____    ______ ____
ROOT
ATOM      1  C   UNL     1      -1.613   1.779   0.973  0.00  0.00    +0.032 C 
ATOM      2  C   UNL     1      -0.694   2.299  -0.131  0.00  0.00    +0.059 C 
ATOM      3  C   UNL     1       0.650   1.592  -0.059  0.00  0.00    +0.017 C 
ATOM      4  C   UNL     1       0.721   0.312   0.340  0.00  0.00    +0.036 C 
ATOM      5  C   UNL     1       1.977  -0.525   0.414  0.00  0.00    +0.136 C 
ATOM      6  N   UNL     1       3.204   0.229   0.266  0.00  0.00    -0.331 N 
ATOM      7  C   UNL     1       3.503   0.887  -0.924  0.00  0.00    +0.049 A 
ATOM      8  C   UNL     1       4.572   0.495  -1.716  0.00  0.00    +0.025 A 
ATOM      9  C   UNL     1       4.808   1.146  -2.913  0.00  0.00    +0.002 A 
ATOM     10  C   UNL     1       3.984   2.177  -3.325  0.00  0.00    +0.002 A 
ATOM     11  C   UNL     1       2.926   2.584  -2.529  0.00  0.00    +0.025 A 
ATOM     12  C   UNL     1       2.704   1.949  -1.320  0.00  0.00    +0.052 A 
ATOM     13  N   UNL     1       1.709   2.356  -0.437  0.00  0.00    -0.316 N 
ATOM     14  C   UNL     1      -0.449  -0.378   0.736  0.00  0.00    +0.163 C 
ATOM     15  O   UNL     1      -0.355  -1.542   1.073  0.00  0.00    -0.292 OA
ATOM     16  C   UNL     1      -1.800   0.271   0.749  0.00  0.00    +0.088 C 
ATOM     17  H   UNL     1       3.917   0.288   1.101  0.00  0.00    +0.147 HD
ATOM     18  H   UNL     1       1.822   3.374  -0.037  0.00  0.00    +0.152 HD
ENDROOT
BRANCH   5  19
ATOM     19  C   UNL     1       1.921  -1.569  -0.672  0.00  0.00    -0.019 A 
ATOM     20  C   UNL     1       1.938  -1.184  -2.000  0.00  0.00    +0.009 A 
ATOM     21  C   UNL     1       1.893  -2.138  -2.999  0.00  0.00    +0.050 A 
ATOM     22  C   UNL     1       1.819  -3.482  -2.672  0.00  0.00    +0.166 A 
ATOM     23  C   UNL     1       1.797  -3.869  -1.335  0.00  0.00    +0.167 A 
ATOM     24  C   UNL     1       1.849  -2.908  -0.338  0.00  0.00    +0.055 A 
ATOM     25  O   UNL     1       1.722  -5.231  -1.276  0.00  0.00    -0.453 OA
ATOM     26  C   UNL     1       1.288  -5.649  -2.583  0.00  0.00    +0.466 C 
ATOM     27  O   UNL     1       1.758  -4.601  -3.452  0.00  0.00    -0.453 OA
ENDBRANCH   5  19
BRANCH   1  31
ATOM     28  C   UNL     1      -5.402   3.749   0.749  0.00  0.00    +0.162 A 
ATOM     29  C   UNL     1      -4.941   3.005  -0.324  0.00  0.00    +0.050 A 
ATOM     30  C   UNL     1      -3.716   2.369  -0.249  0.00  0.00    +0.008 A 
ATOM     31  C   UNL     1      -2.948   2.474   0.896  0.00  0.00    -0.040 A 
ATOM     32  C   UNL     1      -3.405   3.211   1.973  0.00  0.00    +0.053 A 
ATOM     33  C   UNL     1      -4.630   3.855   1.902  0.00  0.00    +0.162 A 
BRANCH  33  34
ATOM     34  O   UNL     1      -5.078   4.584   2.959  0.00  0.00    -0.491 OA
ATOM     35  C   UNL     1      -4.232   4.648   4.109  0.00  0.00    +0.277 C 
ENDBRANCH  33  34
BRANCH  28  36
ATOM     36  O   UNL     1      -6.607   4.375   0.677  0.00  0.00    -0.486 OA
BRANCH  36  38
ATOM     37  C   UNL     1      -8.116   3.040  -0.658  0.00  0.00    +0.051 C 
ATOM     38  C   UNL     1      -7.290   4.326  -0.577  0.00  0.00    +0.167 C 
ATOM     39  C   UNL     1      -8.218   5.536  -0.701  0.00  0.00    +0.051 C 
ENDBRANCH  36  38
ENDBRANCH  28  36
ENDBRANCH   1  31
TORSDOF 5
