REMARK  Name = ZINC02727739
REMARK  12 active torsions:
REMARK  status: ('A' for Active; 'I' for Inactive)
REMARK    1  A    between atoms: C_1  and  C_2
REMARK    2  A    between atoms: C_4  and  C_33
REMARK    3  A    between atoms: C_5  and  C_18
REMARK    4  A    between atoms: C_7  and  C_8
REMARK    5  A    between atoms: C_8  and  S_9
REMARK    6  A    between atoms: S_9  and  C_10
REMARK    7  A    between atoms: C_20  and  C_31
REMARK    8  A    between atoms: C_21  and  N_30
REMARK    9  A    between atoms: C_23  and  C_29
REMARK   10  A    between atoms: C_24  and  C_25
REMARK   11  A    between atoms: C_25  and  O_27
REMARK   12  A    between atoms: O_27  and  C_28
REMARK                            x       y       z     vdW  Elec       q    Type
REMARK                         _______ _______ _______ _____ _____    ______ ____
ROOT
ATOM      1  C   UNL     1      -1.738  -2.102   7.079  0.00  0.00    +0.044 C 
ATOM      2  C   UNL     1      -1.425  -0.956   6.153  0.00  0.00    -0.046 A 
ATOM      3  C   UNL     1      -0.549   0.037   6.553  0.00  0.00    +0.007 A 
ATOM      4  C   UNL     1      -0.262   1.088   5.703  0.00  0.00    -0.046 A 
ATOM      5  C   UNL     1      -0.849   1.148   4.453  0.00  0.00    -0.031 A 
ATOM      6  C   UNL     1      -1.729   0.159   4.056  0.00  0.00    +0.009 A 
ATOM      7  C   UNL     1      -2.013  -0.896   4.903  0.00  0.00    -0.034 A 
ATOM      8  C   UNL     1       0.693   2.170   6.139  0.00  0.00    +0.044 C 
ENDROOT
BRANCH   5   9
ATOM      9  C   UNL     1      -0.536   2.295   3.527  0.00  0.00    +0.105 C 
ATOM     10  C   UNL     1      -1.779   3.113   3.306  0.00  0.00    +0.098 C 
ATOM     11  C   UNL     1      -2.475   3.015   2.147  0.00  0.00    +0.198 C 
ATOM     12  O   UNL     1      -2.091   2.195   1.157  0.00  0.00    -0.445 OA
ATOM     13  C   UNL     1      -0.831   1.736   1.131  0.00  0.00    +0.115 C 
ATOM     14  C   UNL     1      -0.041   1.755   2.213  0.00  0.00    +0.087 C 
ATOM     15  C   UNL     1      -0.282   1.186  -0.160  0.00  0.00    +0.087 C 
BRANCH  11  16
ATOM     16  N   UNL     1      -3.603   3.780   1.980  0.00  0.00    -0.328 N 
ATOM     17  H   UNL     1      -3.892   4.380   2.686  0.00  0.00    +0.145 HD
ATOM     18  H   UNL     1      -4.112   3.720   1.156  0.00  0.00    +0.145 HD
ENDBRANCH  11  16
BRANCH  14  19
ATOM     19  C   UNL     1       1.282   1.260   2.117  0.00  0.00    +0.339 C 
ATOM     20  O   UNL     1       1.729   0.922   1.037  0.00  0.00    -0.245 OA
BRANCH  19  21
ATOM     21  O   UNL     1       2.048   1.162   3.224  0.00  0.00    -0.465 OA
ATOM     22  C   UNL     1       3.372   0.654   3.054  0.00  0.00    +0.280 C 
ENDBRANCH  19  21
ENDBRANCH  14  19
BRANCH  10  23
ATOM     23  C   UNL     1      -2.231   4.006   4.330  0.00  0.00    +0.101 C 
ATOM     24  N   UNL     1      -2.590   4.714   5.143  0.00  0.00    -0.191 NA
ENDBRANCH  10  23
ENDBRANCH   5   9
BRANCH   7  25
ATOM     25  C   UNL     1      -2.966  -1.978   4.467  0.00  0.00    +0.109 C 
BRANCH  25  26
ATOM     26  S   UNL     1      -4.656  -1.525   4.949  0.00  0.00    -0.119 S 
BRANCH  26  27
ATOM     27  C   UNL     1      -5.638  -2.872   4.376  0.00  0.00    +0.028 A 
ATOM     28  C   UNL     1      -5.039  -3.942   3.724  0.00  0.00    +0.036 A 
ATOM     29  C   UNL     1      -5.812  -4.996   3.276  0.00  0.00    +0.042 A 
ATOM     30  C   UNL     1      -7.181  -4.987   3.477  0.00  0.00    +0.021 A 
ATOM     31  C   UNL     1      -7.781  -3.923   4.126  0.00  0.00    +0.022 A 
ATOM     32  C   UNL     1      -7.013  -2.868   4.582  0.00  0.00    +0.054 A 
ATOM     33 CL   UNL     1      -7.765  -1.536   5.403  0.00  0.00    -0.082 Cl
ATOM     34 CL   UNL     1      -5.065  -6.335   2.461  0.00  0.00    -0.084 Cl
ENDBRANCH  26  27
ENDBRANCH  25  26
ENDBRANCH   7  25
TORSDOF 8
