REMARK  Name = ZINC39689323
REMARK  6 active torsions:
REMARK  status: ('A' for Active; 'I' for Inactive)
REMARK    1  A    between atoms: C_1  and  C_2
REMARK    2  A    between atoms: C_6  and  C_8
REMARK    3  A    between atoms: C_8  and  C_9
REMARK    4  A    between atoms: C_9  and  N_10
REMARK    5  A    between atoms: C_11  and  C_13
REMARK    6  A    between atoms: C_24  and  C_26
REMARK                            x       y       z     vdW  Elec       q    Type
REMARK                         _______ _______ _______ _____ _____    ______ ____
ROOT
ATOM      1  C   UNL     1       2.571  -5.014   6.277  0.00  0.00    +0.100 C 
ATOM      2  C   UNL     1       1.878  -6.375   6.044  0.00  0.00    +0.121 C 
ATOM      3  N   UNL     1       2.978  -7.296   5.671  0.00  0.00    -0.296 N 
ATOM      4  C   UNL     1       4.103  -6.905   6.554  0.00  0.00    +0.115 C 
ATOM      5  C   UNL     1       4.030  -5.366   6.614  0.00  0.00    -0.004 C 
ATOM      6  C   UNL     1       4.973  -4.753   5.584  0.00  0.00    -0.010 C 
ATOM      7  C   UNL     1       6.420  -5.069   5.972  0.00  0.00    -0.082 C 
ATOM      8  N   UNL     1       6.701  -4.524   7.306  0.00  0.00    +0.379 N 
ATOM      9  C   UNL     1       5.853  -5.186   8.305  0.00  0.00    -0.082 C 
ATOM     10  C   UNL     1       4.382  -4.875   8.015  0.00  0.00    -0.010 C 
ATOM     11  C   UNL     1       2.959  -8.270   4.739  0.00  0.00    +0.247 C 
ATOM     12  O   UNL     1       3.919  -9.004   4.608  0.00  0.00    -0.270 OA
ATOM     13  H   UNL     1       7.671  -4.680   7.534  0.00  0.00    -0.086 HD
ATOM     14  H   UNL     1       6.512  -3.533   7.310  0.00  0.00    -0.086 HD
ENDROOT
BRANCH  11  15
ATOM     15  C   UNL     1       1.773  -8.444   3.876  0.00  0.00    +0.045 A 
ATOM     16  C   UNL     1       0.496  -8.526   4.445  0.00  0.00    +0.014 A 
ATOM     17  C   UNL     1      -0.612  -8.688   3.643  0.00  0.00    +0.001 A 
ATOM     18  C   UNL     1      -0.477  -8.773   2.266  0.00  0.00    +0.012 A 
ATOM     19  C   UNL     1       0.782  -8.694   1.681  0.00  0.00    +0.031 A 
ATOM     20  C   UNL     1       1.919  -8.522   2.486  0.00  0.00    +0.006 A 
ATOM     21  C   UNL     1       3.117  -8.463   1.611  0.00  0.00    -0.006 A 
ATOM     22  C   UNL     1       4.468  -8.312   1.897  0.00  0.00    +0.009 A 
ATOM     23  C   UNL     1       5.396  -8.289   0.868  0.00  0.00    +0.001 A 
ATOM     24  C   UNL     1       4.989  -8.416  -0.445  0.00  0.00    +0.001 A 
ATOM     25  C   UNL     1       3.645  -8.568  -0.748  0.00  0.00    +0.012 A 
ATOM     26  C   UNL     1       2.704  -8.593   0.274  0.00  0.00    +0.030 A 
ATOM     27  C   UNL     1       1.229  -8.751   0.269  0.00  0.00    +0.194 C 
ATOM     28  O   UNL     1       0.521  -8.888  -0.708  0.00  0.00    -0.287 OA
ENDBRANCH  11  15
BRANCH   1  30
ATOM     29  N   UNL     1       2.481  -2.829   5.121  0.00  0.00    -0.315 N 
ATOM     30  C   UNL     1       2.510  -4.173   5.028  0.00  0.00    +0.218 C 
ATOM     31  O   UNL     1       2.486  -4.707   3.939  0.00  0.00    -0.275 OA
ATOM     32  H   UNL     1       2.500  -2.403   5.992  0.00  0.00    +0.149 HD
BRANCH  29  33
ATOM     33  C   UNL     1       2.421  -2.012   3.906  0.00  0.00    +0.109 C 
BRANCH  33  34
ATOM     34  C   UNL     1       2.399  -0.531   4.288  0.00  0.00    +0.054 C 
BRANCH  34  40
ATOM     35  C   UNL     1       4.722   1.948   0.614  0.00  0.00    +0.044 C 
ATOM     36  C   UNL     1       3.449   1.496   1.282  0.00  0.00    -0.050 A 
ATOM     37  C   UNL     1       2.224   1.853   0.748  0.00  0.00    +0.003 A 
ATOM     38  C   UNL     1       1.057   1.438   1.360  0.00  0.00    +0.001 A 
ATOM     39  C   UNL     1       1.113   0.667   2.506  0.00  0.00    +0.004 A 
ATOM     40  C   UNL     1       2.337   0.310   3.039  0.00  0.00    -0.046 A 
ATOM     41  C   UNL     1       3.505   0.721   2.424  0.00  0.00    +0.007 A 
ENDBRANCH  34  40
ENDBRANCH  33  34
ENDBRANCH  29  33
ENDBRANCH   1  30
TORSDOF 5
