REMARK  Name = ZINC39396418
REMARK  4 active torsions:
REMARK  status: ('A' for Active; 'I' for Inactive)
REMARK    1  A    between atoms: C_7  and  C_10
REMARK    2  A    between atoms: N_11  and  N_12
REMARK    3  A    between atoms: C_13  and  C_15
REMARK    4  A    between atoms: C_20  and  O_21
REMARK                            x       y       z     vdW  Elec       q    Type
REMARK                         _______ _______ _______ _____ _____    ______ ____
ROOT
ATOM      1  N   UNL     1       0.256  -5.437  -0.031  0.00  0.00    -0.203 N 
ATOM      2  C   UNL     1       0.733  -6.698  -0.043  0.00  0.00    +0.267 C 
ATOM      3  O   UNL     1       1.933  -6.893  -0.055  0.00  0.00    -0.268 OA
ATOM      4  H   UNL     1      -0.702  -5.282  -0.021  0.00  0.00    +0.178 HD
ENDROOT
BRANCH   2   5
ATOM      5  C   UNL     1      -0.199  -7.839  -0.040  0.00  0.00    +0.082 A 
ATOM      6  C   UNL     1      -1.580  -7.620  -0.032  0.00  0.00    +0.032 A 
ATOM      7  C   UNL     1      -2.446  -8.691  -0.029  0.00  0.00    +0.020 A 
ATOM      8  C   UNL     1      -1.956  -9.988  -0.036  0.00  0.00    +0.034 A 
ATOM      9  C   UNL     1      -0.594 -10.219  -0.044  0.00  0.00    +0.061 A 
ATOM     10  C   UNL     1       0.293  -9.152  -0.052  0.00  0.00    +0.143 A 
ATOM     11 BR   UNL     1       0.063 -11.992  -0.051  0.00  0.00    -0.046 Br
ATOM     12 BR   UNL     1      -4.314  -8.392  -0.017  0.00  0.00    -0.050 Br
BRANCH  10  13
ATOM     13  O   UNL     1       1.631  -9.377  -0.067  0.00  0.00    -0.505 OA
ATOM     14  H   UNL     1       2.027  -9.448   0.812  0.00  0.00    +0.292 HD
ENDBRANCH  10  13
ENDBRANCH   2   5
BRANCH   1  16
ATOM     15  C   UNL     1       0.678  -3.128  -0.022  0.00  0.00    +0.136 C 
ATOM     16  N   UNL     1       1.142  -4.352  -0.034  0.00  0.00    -0.188 NA
BRANCH  15  23
ATOM     17  C   UNL     1      -0.016   1.353   0.009  0.00  0.00    +0.001 A 
ATOM     18  C   UNL     1       1.164   2.102   0.002  0.00  0.00    +0.002 A 
ATOM     19  C   UNL     1       2.384   1.513  -0.013  0.00  0.00    +0.026 A 
ATOM     20  C   UNL     1       2.485   0.097  -0.021  0.00  0.00    +0.043 A 
ATOM     21  N   UNL     1       3.531  -0.702  -0.036  0.00  0.00    -0.380 N 
ATOM     22  C   UNL     1       3.076  -2.096  -0.040  0.00  0.00    +0.150 C 
ATOM     23  C   UNL     1       1.564  -2.042  -0.025  0.00  0.00    +0.000 C 
ATOM     24  C   UNL     1       1.238  -0.688  -0.013  0.00  0.00    +0.004 A 
ATOM     25  C   UNL     1       0.002  -0.004   0.002  0.00  0.00    +0.010 A 
ATOM     26  H   UNL     1       4.457  -0.414  -0.044  0.00  0.00    +0.160 HD
ENDBRANCH  15  23
ENDBRANCH   1  16
TORSDOF 4
