REMARK  Name = ZINC39016130
REMARK  7 active torsions:
REMARK  status: ('A' for Active; 'I' for Inactive)
REMARK    1  A    between atoms: C_4  and  C_7
REMARK    2  A    between atoms: C_7  and  O_8
REMARK    3  A    between atoms: O_8  and  C_9
REMARK    4  A    between atoms: C_14  and  C_15
REMARK    5  A    between atoms: C_18  and  C_21
REMARK    6  A    between atoms: N_23  and  N_24
REMARK    7  A    between atoms: C_25  and  C_26
REMARK                            x       y       z     vdW  Elec       q    Type
REMARK                         _______ _______ _______ _____ _____    ______ ____
ROOT
ATOM      1  C   UNL     1       5.008  -1.430   3.949  0.00  0.00    +0.129 C 
ATOM      2  C   UNL     1       5.284   0.054   4.263  0.00  0.00    +0.091 C 
ATOM      3  C   UNL     1       5.890   0.027   5.648  0.00  0.00    +0.124 C 
ATOM      4  N   UNL     1       5.960  -1.196   6.064  0.00  0.00    -0.186 NA
ATOM      5  N   UNL     1       5.471  -2.136   5.154  0.00  0.00    -0.261 N 
ATOM      6  H   UNL     1       5.441  -3.095   5.292  0.00  0.00    +0.169 HD
ENDROOT
BRANCH   1  12
ATOM      7  C   UNL     1       5.319  -1.605   1.466  0.00  0.00    +0.126 A 
ATOM      8  C   UNL     1       6.048  -2.007   0.357  0.00  0.00    +0.046 A 
ATOM      9  C   UNL     1       7.245  -2.676   0.525  0.00  0.00    +0.004 A 
ATOM     10  C   UNL     1       7.716  -2.945   1.797  0.00  0.00    +0.001 A 
ATOM     11  C   UNL     1       6.991  -2.545   2.904  0.00  0.00    +0.009 A 
ATOM     12  C   UNL     1       5.796  -1.871   2.742  0.00  0.00    +0.016 A 
BRANCH   7  13
ATOM     13  O   UNL     1       4.141  -0.946   1.304  0.00  0.00    -0.487 OA
BRANCH  13  14
ATOM     14  C   UNL     1       3.711  -0.707  -0.038  0.00  0.00    +0.264 C 
BRANCH  14  18
ATOM     15  C   UNL     1      -0.017   1.378   0.010  0.00  0.00    +0.000 A 
ATOM     16  C   UNL     1       1.171   2.086   0.002  0.00  0.00    +0.000 A 
ATOM     17  C   UNL     1       2.377   1.411  -0.013  0.00  0.00    +0.007 A 
ATOM     18  C   UNL     1       2.396   0.029  -0.020  0.00  0.00    -0.010 A 
ATOM     19  C   UNL     1       1.208  -0.679  -0.012  0.00  0.00    +0.007 A 
ATOM     20  C   UNL     1       0.002  -0.004   0.002  0.00  0.00    +0.000 A 
ENDBRANCH  14  18
ENDBRANCH  13  14
ENDBRANCH   7  13
ENDBRANCH   1  12
BRANCH   3  21
ATOM     21  C   UNL     1       6.329   1.201   6.399  0.00  0.00    +0.279 C 
ATOM     22  O   UNL     1       6.219   2.312   5.913  0.00  0.00    -0.267 OA
ATOM     23  N   UNL     1       6.857   1.054   7.631  0.00  0.00    -0.202 N 
ATOM     24  H   UNL     1       6.945   0.169   8.018  0.00  0.00    +0.178 HD
BRANCH  23  25
ATOM     25  N   UNL     1       7.278   2.180   8.351  0.00  0.00    -0.188 NA
ATOM     26  C   UNL     1       7.791   2.037   9.549  0.00  0.00    +0.136 C 
BRANCH  26  27
ATOM     27  C   UNL     1       8.212   3.162  10.269  0.00  0.00    +0.000 C 
ATOM     28  C   UNL     1       8.780   3.184  11.542  0.00  0.00    +0.004 A 
ATOM     29  C   UNL     1       9.096   2.161  12.463  0.00  0.00    +0.010 A 
ATOM     30  C   UNL     1       9.655   2.481  13.657  0.00  0.00    +0.001 A 
ATOM     31  C   UNL     1       9.930   3.807  14.006  0.00  0.00    +0.002 A 
ATOM     32  C   UNL     1       9.653   4.838  13.172  0.00  0.00    +0.026 A 
ATOM     33  C   UNL     1       9.067   4.582  11.904  0.00  0.00    +0.043 A 
ATOM     34  N   UNL     1       8.708   5.393  10.931  0.00  0.00    -0.380 N 
ATOM     35  C   UNL     1       8.152   4.607   9.826  0.00  0.00    +0.150 C 
ATOM     36  H   UNL     1       8.800   6.359  10.942  0.00  0.00    +0.160 HD
ENDBRANCH  26  27
ENDBRANCH  23  25
ENDBRANCH   3  21
TORSDOF 7
