REMARK  Name = ZINC21256620
REMARK  9 active torsions:
REMARK  status: ('A' for Active; 'I' for Inactive)
REMARK    1  A    between atoms: C_1  and  C_2
REMARK    2  A    between atoms: C_2  and  O_3
REMARK    3  A    between atoms: O_3  and  C_4
REMARK    4  A    between atoms: C_6  and  C_14
REMARK    5  A    between atoms: C_9  and  O_10
REMARK    6  A    between atoms: O_10  and  C_11
REMARK    7  A    between atoms: C_11  and  C_12
REMARK    8  A    between atoms: C_11  and  C_13
REMARK    9  A    between atoms: C_19  and  C_24
REMARK                            x       y       z     vdW  Elec       q    Type
REMARK                         _______ _______ _______ _____ _____    ______ ____
ROOT
ATOM      1  C   UNL     1       6.386  -2.057  -0.325  0.00  0.00    +0.136 C 
ATOM      2  C   UNL     1       5.189  -1.192  -0.640  0.00  0.00    +0.036 C 
ATOM      3  C   UNL     1       4.754  -0.866  -1.868  0.00  0.00    +0.017 C 
ATOM      4  C   UNL     1       3.515  -0.003  -2.041  0.00  0.00    +0.059 C 
ATOM      5  C   UNL     1       3.409   0.991  -0.886  0.00  0.00    +0.033 C 
ATOM      6  C   UNL     1       3.316   0.186   0.415  0.00  0.00    +0.088 C 
ATOM      7  C   UNL     1       4.512  -0.714   0.506  0.00  0.00    +0.163 C 
ATOM      8  O   UNL     1       4.915  -1.044   1.605  0.00  0.00    -0.292 OA
ATOM      9  N   UNL     1       5.340  -1.255  -3.029  0.00  0.00    -0.316 N 
ATOM     10  C   UNL     1       5.751  -2.553  -3.314  0.00  0.00    +0.052 A 
ATOM     11  C   UNL     1       5.215  -3.284  -4.360  0.00  0.00    +0.025 A 
ATOM     12  C   UNL     1       5.744  -4.528  -4.658  0.00  0.00    +0.002 A 
ATOM     13  C   UNL     1       6.795  -5.035  -3.917  0.00  0.00    +0.002 A 
ATOM     14  C   UNL     1       7.318  -4.314  -2.857  0.00  0.00    +0.025 A 
ATOM     15  C   UNL     1       6.780  -3.076  -2.545  0.00  0.00    +0.049 A 
ATOM     16  N   UNL     1       7.242  -2.333  -1.460  0.00  0.00    -0.331 N 
ATOM     17  H   UNL     1       5.520  -0.520  -3.827  0.00  0.00    +0.152 HD
ATOM     18  H   UNL     1       8.274  -1.955  -1.475  0.00  0.00    +0.147 HD
ENDROOT
BRANCH   5  19
ATOM     19  C   UNL     1       2.172   1.837  -1.052  0.00  0.00    -0.025 A 
ATOM     20  C   UNL     1       0.926   1.240  -1.088  0.00  0.00    +0.005 A 
ATOM     21  C   UNL     1      -0.207   2.015  -1.245  0.00  0.00    +0.000 A 
ATOM     22  C   UNL     1      -0.096   3.389  -1.356  0.00  0.00    +0.001 A 
ATOM     23  C   UNL     1       1.149   3.987  -1.320  0.00  0.00    +0.020 A 
ATOM     24  C   UNL     1       2.285   3.211  -1.168  0.00  0.00    +0.044 A 
ATOM     25 CL   UNL     1       3.849   3.961  -1.123  0.00  0.00    -0.083 Cl
ENDBRANCH   5  19
BRANCH   1  28
ATOM     26  C   UNL     1       5.727  -4.914   2.058  0.00  0.00    +0.162 A 
ATOM     27  C   UNL     1       6.178  -3.710   1.543  0.00  0.00    +0.055 A 
ATOM     28  C   UNL     1       5.895  -3.368   0.233  0.00  0.00    -0.019 A 
ATOM     29  C   UNL     1       5.157  -4.224  -0.563  0.00  0.00    +0.009 A 
ATOM     30  C   UNL     1       4.709  -5.430  -0.058  0.00  0.00    +0.050 A 
ATOM     31  C   UNL     1       4.989  -5.778   1.254  0.00  0.00    +0.162 A 
BRANCH  26  32
ATOM     32  O   UNL     1       6.005  -5.252   3.345  0.00  0.00    -0.489 OA
BRANCH  32  34
ATOM     33  C   UNL     1       6.978  -4.866   5.523  0.00  0.00    +0.048 C 
ATOM     34  C   UNL     1       6.767  -4.317   4.111  0.00  0.00    +0.226 C 
ENDBRANCH  32  34
ENDBRANCH  26  32
BRANCH  31  35
ATOM     35  O   UNL     1       4.545  -6.962   1.754  0.00  0.00    -0.486 OA
BRANCH  35  36
ATOM     36  C   UNL     1       3.697  -7.745   0.912  0.00  0.00    +0.167 C 
ATOM     37  C   UNL     1       4.555  -8.621  -0.003  0.00  0.00    +0.051 C 
ATOM     38  C   UNL     1       2.801  -8.635   1.776  0.00  0.00    +0.051 C 
ENDBRANCH  35  36
ENDBRANCH  31  35
ENDBRANCH   1  28
TORSDOF 6
