REMARK  Name = ZINC21231227
REMARK  6 active torsions:
REMARK  status: ('A' for Active; 'I' for Inactive)
REMARK    1  A    between atoms: C_1  and  C_2
REMARK    2  A    between atoms: C_11  and  N_27
REMARK    3  A    between atoms: C_13  and  S_15
REMARK    4  A    between atoms: S_15  and  C_16
REMARK    5  A    between atoms: C_16  and  C_18
REMARK    6  A    between atoms: C_16  and  C_19
REMARK                            x       y       z     vdW  Elec       q    Type
REMARK                         _______ _______ _______ _____ _____    ______ ____
ROOT
ATOM      1  C   UNL     1     -11.232   5.963  -0.827  0.00  0.00    +0.008 C 
ATOM      2  C   UNL     1      -9.853   5.301  -0.812  0.00  0.00    -0.009 C 
ATOM      3  C   UNL     1      -8.822   6.275  -0.233  0.00  0.00    +0.008 C 
ATOM      4  C   UNL     1      -7.412   5.722  -0.441  0.00  0.00    +0.037 C 
ATOM      5  C   UNL     1      -7.355   4.299   0.110  0.00  0.00    -0.025 A 
ATOM      6  C   UNL     1      -8.486   3.596   0.320  0.00  0.00    -0.004 A 
ATOM      7  S   UNL     1      -7.946   2.031   0.954  0.00  0.00    -0.073 S 
ATOM      8  C   UNL     1      -6.197   2.324   0.935  0.00  0.00    +0.115 A 
ATOM      9  C   UNL     1      -6.090   3.636   0.433  0.00  0.00    +0.051 A 
ATOM     10  C   UNL     1      -4.765   4.140   0.310  0.00  0.00    +0.129 A 
ATOM     11  N   UNL     1      -3.746   3.373   0.661  0.00  0.00    -0.207 NA
ATOM     12  C   UNL     1      -3.918   2.142   1.128  0.00  0.00    +0.192 A 
ATOM     13  N   UNL     1      -5.130   1.619   1.259  0.00  0.00    -0.214 NA
ATOM     14  C   UNL     1      -9.893   4.045   0.071  0.00  0.00    +0.046 C 
ENDROOT
BRANCH  10  15
ATOM     15  N   UNL     1      -4.545   5.418  -0.172  0.00  0.00    -0.343 N 
ATOM     16  H   UNL     1      -3.518   5.801  -0.265  0.00  0.00    +0.144 HD
ATOM     17  H   UNL     1      -5.397   6.050  -0.462  0.00  0.00    +0.144 HD
ENDBRANCH  10  15
BRANCH  12  18
ATOM     18  S   UNL     1      -2.509   1.183   1.575  0.00  0.00    -0.073 S 
BRANCH  18  19
ATOM     19  C   UNL     1      -1.191   2.362   1.190  0.00  0.00    +0.137 C 
ATOM     20  C   UNL     1      -1.171   2.630  -0.316  0.00  0.00    +0.029 C 
BRANCH  19  21
ATOM     21  C   UNL     1       0.136   1.789   1.616  0.00  0.00    +0.229 C 
ATOM     22  O   UNL     1       0.280   0.588   1.697  0.00  0.00    -0.274 OA
ATOM     23  N   UNL     1       1.165   2.612   1.902  0.00  0.00    -0.296 N 
ATOM     24  C   UNL     1       1.016   4.072   1.805  0.00  0.00    +0.136 C 
ATOM     25  C   UNL     1       1.520   4.694   3.118  0.00  0.00    +0.179 C 
ATOM     26  O   UNL     1       2.836   4.207   3.392  0.00  0.00    -0.377 OA
ATOM     27  C   UNL     1       2.906   2.794   3.597  0.00  0.00    +0.179 C 
ATOM     28  C   UNL     1       2.471   2.075   2.315  0.00  0.00    +0.136 C 
ENDBRANCH  19  21
ENDBRANCH  18  19
ENDBRANCH  12  18
TORSDOF 4
