REMARK  Name = ZINC13034008
REMARK  15 active torsions:
REMARK  status: ('A' for Active; 'I' for Inactive)
REMARK    1  A    between atoms: C_1  and  C_2
REMARK    2  A    between atoms: C_2  and  C_3
REMARK    3  A    between atoms: C_10  and  C_15
REMARK    4  A    between atoms: C_15  and  N_68
REMARK    5  A    between atoms: C_16  and  C_17
REMARK    6  A    between atoms: C_16  and  N_68
REMARK    7  A    between atoms: C_22  and  C_24
REMARK    8  A    between atoms: C_22  and  C_26
REMARK    9  A    between atoms: C_22  and  N_68
REMARK   10  A    between atoms: C_24  and  C_25
REMARK   11  A    between atoms: N_30  and  C_31
REMARK   12  A    between atoms: C_31  and  C_32
REMARK   13  A    between atoms: C_31  and  C_33
REMARK   14  A    between atoms: C_31  and  C_34
REMARK   15  A    between atoms: C_34  and  C_35
REMARK                            x       y       z     vdW  Elec       q    Type
REMARK                         _______ _______ _______ _____ _____    ______ ____
ROOT
ATOM      1  N   UNL     1      -1.810   1.656   1.355  0.00  0.00    +0.392 N 
ATOM      2  H   UNL     1      -2.157   2.176   2.169  0.00  0.00    -0.080 HD
ENDROOT
BRANCH   1   3
ATOM      3  C   UNL     1      -2.710   1.904   0.208  0.00  0.00    -0.036 C 
BRANCH   3  11
ATOM      4  C   UNL     1      -8.229   3.712   2.344  0.00  0.00    -0.047 A 
ATOM      5  C   UNL     1      -8.807   2.450   2.368  0.00  0.00    +0.005 A 
ATOM      6  C   UNL     1      -8.092   1.341   1.971  0.00  0.00    +0.026 A 
ATOM      7  C   UNL     1      -6.777   1.484   1.541  0.00  0.00    +0.049 A 
ATOM      8  C   UNL     1      -6.194   2.765   1.519  0.00  0.00    -0.001 A 
ATOM      9  C   UNL     1      -6.939   3.877   1.926  0.00  0.00    +0.013 A 
ATOM     10  C   UNL     1      -4.809   2.907   1.065  0.00  0.00    +0.017 A 
ATOM     11  C   UNL     1      -4.136   1.794   0.681  0.00  0.00    +0.001 A 
ATOM     12  C   UNL     1      -4.770   0.533   0.717  0.00  0.00    +0.251 A 
ATOM     13  O   UNL     1      -4.148  -0.455   0.363  0.00  0.00    -0.268 OA
ATOM     14  N   UNL     1      -6.039   0.392   1.138  0.00  0.00    -0.322 N 
ATOM     15  H   UNL     1      -6.442  -0.490   1.154  0.00  0.00    +0.169 HD
BRANCH   4  17
ATOM     16  C   UNL     1      -9.764   5.502   1.579  0.00  0.00    +0.009 C 
ATOM     17  C   UNL     1      -9.031   4.910   2.783  0.00  0.00    +0.032 C 
ENDBRANCH   4  17
ENDBRANCH   3  11
ENDBRANCH   1   3
BRANCH   1  18
ATOM     18  C   UNL     1      -1.788   0.214   1.678  0.00  0.00    -0.034 C 
BRANCH  18  19
ATOM     19  C   UNL     1      -1.326   0.046   3.102  0.00  0.00    -0.027 A 
ATOM     20  C   UNL     1      -2.066  -0.059   4.233  0.00  0.00    +0.009 A 
ATOM     21  C   UNL     1      -1.420  -0.209   5.446  0.00  0.00    +0.008 A 
ATOM     22  C   UNL     1      -0.065  -0.246   5.468  0.00  0.00    +0.045 A 
ATOM     23  S   UNL     1       0.338  -0.072   3.738  0.00  0.00    -0.103 S 
ENDBRANCH  18  19
ENDBRANCH   1  18
BRANCH   1  24
ATOM     24  C   UNL     1      -0.444   2.123   1.034  0.00  0.00    +0.003 C 
BRANCH  24  25
ATOM     25  C   UNL     1      -0.058   1.705  -0.361  0.00  0.00    +0.139 A 
ATOM     26  N   UNL     1      -0.796   1.803  -1.440  0.00  0.00    -0.115 NA
ATOM     27  N   UNL     1      -0.114   1.343  -2.432  0.00  0.00    -0.023 NA
ATOM     28  N   UNL     1       1.037   0.947  -2.012  0.00  0.00    -0.043 NA
ATOM     29  N   UNL     1       1.109   1.153  -0.741  0.00  0.00    -0.225 N 
BRANCH  29  30
ATOM     30  C   UNL     1       2.249   0.844   0.127  0.00  0.00    +0.061 C 
ATOM     31  C   UNL     1       2.644   2.095   0.915  0.00  0.00    +0.036 C 
ATOM     32  C   UNL     1       1.860  -0.271   1.101  0.00  0.00    +0.036 C 
BRANCH  30  33
ATOM     33  C   UNL     1       3.431   0.385  -0.728  0.00  0.00    +0.026 C 
ATOM     34  C   UNL     1       4.621   0.062   0.178  0.00  0.00    +0.006 C 
ENDBRANCH  30  33
ENDBRANCH  29  30
ENDBRANCH  24  25
BRANCH  24  35
ATOM     35  C   UNL     1      -0.410   3.649   1.138  0.00  0.00    -0.011 C 
ATOM     36  C   UNL     1      -0.752   4.071   2.568  0.00  0.00    +0.002 C 
ENDBRANCH  24  35
ENDBRANCH   1  24
TORSDOF 10
