REMARK  Name = ZINC40706026
REMARK  7 active torsions:
REMARK  status: ('A' for Active; 'I' for Inactive)
REMARK    1  A    between atoms: C_1  and  C_2
REMARK    2  A    between atoms: C_10  and  N_25
REMARK    3  A    between atoms: C_11  and  N_15
REMARK    4  A    between atoms: N_15  and  C_16
REMARK    5  A    between atoms: C_19  and  C_22
REMARK    6  A    between atoms: C_22  and  C_23
REMARK    7  A    between atoms: C_22  and  C_24
REMARK                            x       y       z     vdW  Elec       q    Type
REMARK                         _______ _______ _______ _____ _____    ______ ____
ROOT
ATOM      1  C   UNL     1       4.062   0.332   0.741  0.00  0.00    +0.009 C 
ATOM      2  C   UNL     1       2.614  -0.071   1.029  0.00  0.00    +0.003 C 
ATOM      3  C   UNL     1       1.710   0.431  -0.100  0.00  0.00    +0.006 C 
ATOM      4  C   UNL     1       0.258   0.057   0.203  0.00  0.00    +0.019 C 
ATOM      5  C   UNL     1       0.132  -1.467   0.281  0.00  0.00    +0.106 C 
ATOM      6  N   UNL     1       1.103  -1.972   1.262  0.00  0.00    -0.313 N 
ATOM      7  C   UNL     1       2.516  -1.597   1.117  0.00  0.00    +0.109 C 
ATOM      8  C   UNL     1       0.692  -2.789   2.309  0.00  0.00    +0.147 A 
ATOM      9  C   UNL     1       0.597  -4.171   2.135  0.00  0.00    +0.106 A 
ATOM     10  C   UNL     1       0.179  -4.944   3.219  0.00  0.00    +0.149 A 
ATOM     11  N   UNL     1      -0.111  -4.340   4.369  0.00  0.00    -0.219 NA
ATOM     12  C   UNL     1      -0.009  -3.032   4.491  0.00  0.00    +0.225 A 
ATOM     13  N   UNL     1       0.387  -2.266   3.494  0.00  0.00    -0.219 NA
ENDROOT
BRANCH   9  14
ATOM     14  N   UNL     1       0.914  -4.766   0.904  0.00  0.00    -0.353 N 
ATOM     15  H   UNL     1       1.290  -4.230   0.188  0.00  0.00    +0.143 HD
ATOM     16  H   UNL     1       0.756  -5.714   0.768  0.00  0.00    +0.143 HD
ENDBRANCH   9  14
BRANCH  10  17
ATOM     17  N   UNL     1       0.068  -6.325   3.100  0.00  0.00    -0.298 N 
ATOM     18  H   UNL     1       0.354  -6.766   2.285  0.00  0.00    +0.154 HD
BRANCH  17  19
ATOM     19  C   UNL     1      -0.456  -7.078   4.155  0.00  0.00    +0.032 A 
ATOM     20  C   UNL     1       0.004  -8.368   4.385  0.00  0.00    +0.023 A 
ATOM     21  C   UNL     1      -0.516  -9.109   5.428  0.00  0.00    +0.006 A 
ATOM     22  C   UNL     1      -1.494  -8.568   6.242  0.00  0.00    -0.045 A 
ATOM     23  C   UNL     1      -1.955  -7.284   6.015  0.00  0.00    +0.006 A 
ATOM     24  C   UNL     1      -1.435  -6.535   4.978  0.00  0.00    +0.023 A 
BRANCH  22  25
ATOM     25  C   UNL     1      -2.060  -9.379   7.379  0.00  0.00    +0.013 C 
ATOM     26  C   UNL     1      -1.802  -8.654   8.701  0.00  0.00    +0.012 C 
ATOM     27  C   UNL     1      -3.567  -9.556   7.180  0.00  0.00    +0.012 C 
ENDBRANCH  22  25
ENDBRANCH  17  19
ENDBRANCH  10  17
TORSDOF 4
