REMARK  Name = ZINC01336051
REMARK  8 active torsions:
REMARK  status: ('A' for Active; 'I' for Inactive)
REMARK    1  A    between atoms: C_7  and  C_11
REMARK    2  A    between atoms: C_11  and  C_12
REMARK    3  A    between atoms: N_14  and  C_15
REMARK    4  A    between atoms: N_14  and  C_21
REMARK    5  A    between atoms: C_15  and  C_16
REMARK    6  A    between atoms: C_21  and  C_23
REMARK    7  A    between atoms: C_21  and  C_28
REMARK    8  A    between atoms: N_30  and  C_31
REMARK                            x       y       z     vdW  Elec       q    Type
REMARK                         _______ _______ _______ _____ _____    ______ ____
ROOT
ATOM      1  C   UNL     1      -2.534   2.686  -1.996  0.00  0.00    +0.221 C 
ATOM      2  O   UNL     1      -1.937   3.695  -2.304  0.00  0.00    -0.275 OA
ATOM      3  N   UNL     1      -2.230   2.046  -0.850  0.00  0.00    -0.280 N 
ENDROOT
BRANCH   1   4
ATOM      4  C   UNL     1      -3.618   2.147  -2.894  0.00  0.00    +0.133 C 
BRANCH   4  11
ATOM      5  C   UNL     1      -1.394   2.348  -7.016  0.00  0.00    +0.001 A 
ATOM      6  C   UNL     1      -1.873   3.358  -7.840  0.00  0.00    +0.002 A 
ATOM      7  C   UNL     1      -2.897   4.178  -7.423  0.00  0.00    +0.026 A 
ATOM      8  C   UNL     1      -3.461   3.995  -6.164  0.00  0.00    +0.047 A 
ATOM      9  C   UNL     1      -2.972   2.971  -5.333  0.00  0.00    +0.003 A 
ATOM     10  C   UNL     1      -1.932   2.151  -5.776  0.00  0.00    +0.010 A 
ATOM     11  C   UNL     1      -3.760   3.040  -4.100  0.00  0.00    -0.014 A 
ATOM     12  C   UNL     1      -4.637   4.045  -4.250  0.00  0.00    +0.087 A 
ATOM     13  N   UNL     1      -4.469   4.631  -5.476  0.00  0.00    -0.360 N 
ATOM     14  H   UNL     1      -4.986   5.381  -5.810  0.00  0.00    +0.165 HD
ENDBRANCH   4  11
ENDBRANCH   1   4
BRANCH   3  15
ATOM     15  C   UNL     1      -2.951   0.827  -0.477  0.00  0.00    +0.151 C 
BRANCH  15  16
ATOM     16  C   UNL     1      -4.086   1.178   0.450  0.00  0.00    +0.007 A 
ATOM     17  C   UNL     1      -5.389   1.409   0.155  0.00  0.00    +0.013 A 
ATOM     18  C   UNL     1      -6.263   1.719   1.180  0.00  0.00    +0.008 A 
ATOM     19  C   UNL     1      -5.792   1.782   2.450  0.00  0.00    +0.045 A 
ATOM     20  S   UNL     1      -4.065   1.391   2.223  0.00  0.00    -0.100 S 
ENDBRANCH  15  16
ENDBRANCH   3  15
BRANCH   3  21
ATOM     21  C   UNL     1      -1.177   2.570   0.024  0.00  0.00    +0.199 C 
BRANCH  21  22
ATOM     22  C   UNL     1      -1.593   3.914   0.563  0.00  0.00    +0.019 A 
ATOM     23  C   UNL     1      -1.511   4.389   1.830  0.00  0.00    +0.013 A 
ATOM     24  C   UNL     1      -1.965   5.667   2.098  0.00  0.00    +0.008 A 
ATOM     25  C   UNL     1      -2.479   6.407   1.085  0.00  0.00    +0.045 A 
ATOM     26  S   UNL     1      -2.330   5.292  -0.301  0.00  0.00    -0.099 S 
ENDBRANCH  21  22
BRANCH  21  27
ATOM     27  C   UNL     1       0.101   2.717  -0.762  0.00  0.00    +0.239 C 
ATOM     28  O   UNL     1       0.109   2.493  -1.954  0.00  0.00    -0.273 OA
ATOM     29  N   UNL     1       1.234   3.099  -0.140  0.00  0.00    -0.311 N 
ATOM     30  H   UNL     1       1.228   3.278   0.813  0.00  0.00    +0.149 HD
BRANCH  29  31
ATOM     31  C   UNL     1       2.476   3.242  -0.904  0.00  0.00    +0.073 C 
ATOM     32  C   UNL     1       3.167   1.882  -1.014  0.00  0.00    +0.022 C 
ATOM     33  C   UNL     1       4.464   2.032  -1.812  0.00  0.00    +0.002 C 
ATOM     34  C   UNL     1       5.391   3.019  -1.099  0.00  0.00    +0.000 C 
ATOM     35  C   UNL     1       4.699   4.379  -0.989  0.00  0.00    +0.002 C 
ATOM     36  C   UNL     1       3.402   4.229  -0.191  0.00  0.00    +0.022 C 
ENDBRANCH  29  31
ENDBRANCH  21  27
ENDBRANCH   3  21
TORSDOF 8
