REMARK  Name = ZINC12714830
REMARK  9 active torsions:
REMARK  status: ('A' for Active; 'I' for Inactive)
REMARK    1  A    between atoms: C_1  and  C_2
REMARK    2  A    between atoms: C_5  and  C_7
REMARK    3  A    between atoms: C_7  and  C_9
REMARK    4  A    between atoms: C_7  and  N_18
REMARK    5  A    between atoms: N_11  and  C_12
REMARK    6  A    between atoms: N_18  and  C_19
REMARK    7  A    between atoms: C_28  and  C_30
REMARK    8  A    between atoms: C_31  and  N_38
REMARK    9  A    between atoms: C_32  and  C_35
REMARK                            x       y       z     vdW  Elec       q    Type
REMARK                         _______ _______ _______ _____ _____    ______ ____
ROOT
ATOM      1  N   UNL     1      -4.469   1.537   2.602  0.00  0.00    -0.248 N 
ATOM      2  C   UNL     1      -3.460   0.743   3.010  0.00  0.00    +0.262 C 
ATOM      3  O   UNL     1      -2.766   0.170   2.191  0.00  0.00    -0.269 OA
ENDROOT
BRANCH   1   4
ATOM      4  C   UNL     1      -4.794   1.612   1.242  0.00  0.00    +0.042 A 
ATOM      5  C   UNL     1      -4.766   2.836   0.587  0.00  0.00    +0.027 A 
ATOM      6  C   UNL     1      -5.086   2.911  -0.755  0.00  0.00    +0.051 A 
ATOM      7  C   UNL     1      -5.437   1.766  -1.451  0.00  0.00    +0.166 A 
ATOM      8  C   UNL     1      -5.466   0.536  -0.797  0.00  0.00    +0.168 A 
ATOM      9  C   UNL     1      -5.140   0.461   0.546  0.00  0.00    +0.073 A 
ATOM     10  O   UNL     1      -5.838  -0.425  -1.693  0.00  0.00    -0.453 OA
ATOM     11  C   UNL     1      -5.639   0.162  -2.992  0.00  0.00    +0.466 C 
ATOM     12  O   UNL     1      -5.791   1.574  -2.757  0.00  0.00    -0.453 OA
ENDBRANCH   1   4
BRANCH   2  13
ATOM     13  C   UNL     1      -3.199   0.568   4.440  0.00  0.00    +0.116 A 
ATOM     14  C   UNL     1      -2.939  -0.602   5.156  0.00  0.00    +0.076 A 
ATOM     15  C   UNL     1      -2.736  -0.362   6.516  0.00  0.00    +0.155 A 
ATOM     16  N   UNL     1      -2.814   0.869   6.970  0.00  0.00    -0.203 NA
ATOM     17  S   UNL     1      -3.135   1.791   5.734  0.00  0.00    +0.019 S 
BRANCH  15  18
ATOM     18  C   UNL     1      -2.445  -1.479   7.433  0.00  0.00    +0.262 C 
ATOM     19  O   UNL     1      -2.375  -2.615   7.006  0.00  0.00    -0.269 OA
ATOM     20  N   UNL     1      -2.255  -1.240   8.746  0.00  0.00    -0.324 N 
ATOM     21  H   UNL     1      -2.311  -0.334   9.087  0.00  0.00    +0.145 HD
ATOM     22  H   UNL     1      -2.063  -1.975   9.350  0.00  0.00    +0.145 HD
ENDBRANCH  15  18
BRANCH  14  23
ATOM     23  N   UNL     1      -2.886  -1.864   4.579  0.00  0.00    -0.355 N 
ATOM     24  H   UNL     1      -3.033  -1.968   3.626  0.00  0.00    +0.142 HD
ATOM     25  H   UNL     1      -2.701  -2.641   5.129  0.00  0.00    +0.142 HD
ENDBRANCH  14  23
ENDBRANCH   2  13
BRANCH   1  26
ATOM     26  C   UNL     1      -5.225   2.323   3.580  0.00  0.00    +0.233 C 
BRANCH  26  31
ATOM     27  C   UNL     1      -2.901   6.667   2.500  0.00  0.00    +0.086 C 
ATOM     28  C   UNL     1      -3.567   5.562   3.279  0.00  0.00    +0.102 A 
ATOM     29  C   UNL     1      -3.773   5.550   4.608  0.00  0.00    +0.045 A 
ATOM     30  C   UNL     1      -4.424   4.332   4.911  0.00  0.00    +0.047 A 
ATOM     31  C   UNL     1      -4.578   3.673   3.748  0.00  0.00    +0.135 A 
ATOM     32  O   UNL     1      -4.062   4.425   2.763  0.00  0.00    -0.462 OA
ENDBRANCH  26  31
BRANCH  26  33
ATOM     33  C   UNL     1      -6.641   2.501   3.094  0.00  0.00    +0.242 C 
ATOM     34  O   UNL     1      -6.984   2.020   2.035  0.00  0.00    -0.273 OA
ATOM     35  N   UNL     1      -7.525   3.196   3.837  0.00  0.00    -0.311 N 
ATOM     36  H   UNL     1      -7.251   3.581   4.684  0.00  0.00    +0.149 HD
BRANCH  35  37
ATOM     37  C   UNL     1      -8.901   3.370   3.365  0.00  0.00    +0.073 C 
ATOM     38  C   UNL     1      -8.969   4.574   2.423  0.00  0.00    +0.022 C 
ATOM     39  C   UNL     1     -10.406   4.755   1.930  0.00  0.00    +0.002 C 
ATOM     40  C   UNL     1     -11.330   4.991   3.127  0.00  0.00    +0.000 C 
ATOM     41  C   UNL     1     -11.262   3.787   4.069  0.00  0.00    +0.002 C 
ATOM     42  C   UNL     1      -9.825   3.606   4.561  0.00  0.00    +0.022 C 
ENDBRANCH  35  37
ENDBRANCH  26  33
ENDBRANCH   1  26
TORSDOF 8
