REMARK  Name = ZINC11838743
REMARK  10 active torsions:
REMARK  status: ('A' for Active; 'I' for Inactive)
REMARK    1  A    between atoms: C_1  and  C_2
REMARK    2  A    between atoms: C_2  and  O_3
REMARK    3  A    between atoms: O_3  and  C_4
REMARK    4  A    between atoms: N_9  and  C_12
REMARK    5  A    between atoms: C_13  and  C_22
REMARK    6  A    between atoms: C_17  and  C_21
REMARK    7  A    between atoms: C_22  and  N_64
REMARK    8  A    between atoms: C_23  and  C_24
REMARK    9  A    between atoms: C_23  and  N_64
REMARK   10  A    between atoms: C_29  and  C_30
REMARK                            x       y       z     vdW  Elec       q    Type
REMARK                         _______ _______ _______ _____ _____    ______ ____
ROOT
ATOM      1  C   UNL     1      -1.139  -0.246  -0.424  0.00  0.00    +0.101 A 
ATOM      2  C   UNL     1       0.008  -0.904   0.044  0.00  0.00    -0.026 A 
ATOM      3  C   UNL     1       1.034  -0.183   0.577  0.00  0.00    +0.015 A 
ATOM      4  C   UNL     1       0.903   1.220   0.639  0.00  0.00    -0.001 A 
ATOM      5  C   UNL     1       1.921   2.023   1.176  0.00  0.00    +0.013 A 
ATOM      6  C   UNL     1       1.760   3.375   1.220  0.00  0.00    -0.050 A 
ATOM      7  C   UNL     1       0.598   3.972   0.739  0.00  0.00    +0.005 A 
ATOM      8  C   UNL     1      -0.409   3.223   0.212  0.00  0.00    +0.026 A 
ATOM      9  C   UNL     1      -0.280   1.825   0.150  0.00  0.00    +0.048 A 
ATOM     10  C   UNL     1       2.855   4.236   1.796  0.00  0.00    +0.044 C 
ATOM     11  N   UNL     1      -1.319   1.098  -0.390  0.00  0.00    -0.343 N 
ATOM     12  H   UNL     1      -2.173   1.544  -0.742  0.00  0.00    +0.167 HD
ENDROOT
BRANCH   1  18
ATOM     13  C   UNL     1      -5.869  -1.416  -2.630  0.00  0.00    +0.403 C 
ATOM     14  O   UNL     1      -6.843  -1.443  -1.904  0.00  0.00    -0.226 OA
ATOM     15  N   UNL     1      -4.638  -1.606  -2.114  0.00  0.00    -0.264 N 
ATOM     16  C   UNL     1      -4.452  -1.845  -0.674  0.00  0.00    +0.130 C 
ATOM     17  C   UNL     1      -3.392  -0.870  -0.151  0.00  0.00    +0.125 C 
ATOM     18  N   UNL     1      -2.175  -0.993  -0.964  0.00  0.00    -0.313 N 
ATOM     19  C   UNL     1      -2.426  -0.612  -2.361  0.00  0.00    +0.125 C 
ATOM     20  C   UNL     1      -3.446  -1.577  -2.974  0.00  0.00    +0.130 C 
BRANCH  13  21
ATOM     21  O   UNL     1      -6.019  -1.198  -3.950  0.00  0.00    -0.451 OA
BRANCH  21  23
ATOM     22  C   UNL     1      -7.343  -0.770  -5.948  0.00  0.00    +0.048 C 
ATOM     23  C   UNL     1      -7.373  -1.002  -4.436  0.00  0.00    +0.230 C 
ENDBRANCH  21  23
ENDBRANCH  13  21
ENDBRANCH   1  18
BRANCH   2  24
ATOM     24  C   UNL     1       0.106  -2.405  -0.042  0.00  0.00    -0.043 C 
BRANCH  24  25
ATOM     25  N   UNL     1       0.390  -2.791  -1.437  0.00  0.00    +0.384 N 
ATOM     26  H   UNL     1       1.278  -2.366  -1.732  0.00  0.00    -0.085 HD
ATOM     27  H   UNL     1      -0.368  -2.456  -2.043  0.00  0.00    -0.085 HD
BRANCH  25  28
ATOM     28  C   UNL     1       0.491  -4.258  -1.552  0.00  0.00    -0.046 C 
BRANCH  28  29
ATOM     29  C   UNL     1       0.687  -4.628  -2.999  0.00  0.00    -0.053 A 
ATOM     30  C   UNL     1       0.628  -3.652  -3.977  0.00  0.00    +0.002 A 
ATOM     31  C   UNL     1       0.812  -3.990  -5.304  0.00  0.00    +0.000 A 
ATOM     32  C   UNL     1       1.046  -5.307  -5.655  0.00  0.00    +0.001 A 
ATOM     33  C   UNL     1       1.100  -6.284  -4.679  0.00  0.00    +0.012 A 
ATOM     34  C   UNL     1       0.921  -5.944  -3.351  0.00  0.00    +0.056 A 
BRANCH  34  35
ATOM     35  C   UNL     1       0.980  -7.010  -2.287  0.00  0.00    +0.418 C 
ATOM     36  F   UNL     1       1.125  -8.264  -2.889  0.00  0.00    -0.166 F 
ATOM     37  F   UNL     1       2.071  -6.768  -1.445  0.00  0.00    -0.166 F 
ATOM     38  F   UNL     1      -0.202  -6.986  -1.537  0.00  0.00    -0.166 F 
ENDBRANCH  34  35
ENDBRANCH  28  29
ENDBRANCH  25  28
ENDBRANCH  24  25
ENDBRANCH   2  24
TORSDOF 8
