REMARK  Name = ZINC20715331
REMARK  8 active torsions:
REMARK  status: ('A' for Active; 'I' for Inactive)
REMARK    1  A    between atoms: C_1  and  N_2
REMARK    2  A    between atoms: N_5  and  S_8
REMARK    3  A    between atoms: S_8  and  C_11
REMARK    4  A    between atoms: C_24  and  C_27
REMARK    5  A    between atoms: C_30  and  O_35
REMARK    6  A    between atoms: C_31  and  O_33
REMARK    7  A    between atoms: O_33  and  C_34
REMARK    8  A    between atoms: O_35  and  C_36
REMARK                            x       y       z     vdW  Elec       q    Type
REMARK                         _______ _______ _______ _____ _____    ______ ____
ROOT
ATOM      1  C   UNL     1       0.605   4.322   0.176  0.00  0.00    +0.106 A 
ATOM      2  C   UNL     1       0.977   2.990   0.189  0.00  0.00    +0.030 A 
ATOM      3  C   UNL     1       0.007   2.009   0.160  0.00  0.00    +0.025 A 
ATOM      4  C   UNL     1      -1.336   2.360   0.112  0.00  0.00    +0.031 A 
ATOM      5  C   UNL     1      -1.714   3.694   0.104  0.00  0.00    -0.018 A 
ATOM      6  C   UNL     1      -0.729   4.672   0.134  0.00  0.00    +0.034 A 
ATOM      7  C   UNL     1      -3.147   4.120   0.062  0.00  0.00    +0.049 C 
ATOM      8  C   UNL     1      -3.533   4.627  -1.308  0.00  0.00    -0.023 C 
ATOM      9  C   UNL     1      -4.765   4.279  -1.590  0.00  0.00    -0.030 C 
ATOM     10  C   UNL     1      -5.371   3.496  -0.441  0.00  0.00    +0.033 C 
ATOM     11  C   UNL     1      -4.127   2.962   0.328  0.00  0.00    +0.029 C 
ATOM     12  C   UNL     1      -3.641   1.694  -0.380  0.00  0.00    +0.105 C 
ATOM     13  N   UNL     1      -2.302   1.357   0.116  0.00  0.00    -0.336 N 
ATOM     14  H   UNL     1      -2.089   0.339   0.476  0.00  0.00    +0.147 HD
ENDROOT
BRANCH  12  15
ATOM     15  C   UNL     1      -3.585   1.935  -1.866  0.00  0.00    -0.023 A 
ATOM     16  C   UNL     1      -2.428   2.427  -2.442  0.00  0.00    +0.009 A 
ATOM     17  C   UNL     1      -2.372   2.650  -3.805  0.00  0.00    +0.050 A 
ATOM     18  C   UNL     1      -3.476   2.380  -4.598  0.00  0.00    +0.162 A 
ATOM     19  C   UNL     1      -4.640   1.885  -4.018  0.00  0.00    +0.162 A 
ATOM     20  C   UNL     1      -4.688   1.658  -2.652  0.00  0.00    +0.055 A 
BRANCH  19  21
ATOM     21  O   UNL     1      -5.727   1.619  -4.791  0.00  0.00    -0.491 OA
ATOM     22  C   UNL     1      -6.887   1.113  -4.128  0.00  0.00    +0.277 C 
ENDBRANCH  19  21
BRANCH  18  23
ATOM     23  O   UNL     1      -3.422   2.600  -5.939  0.00  0.00    -0.491 OA
ATOM     24  C   UNL     1      -2.195   3.110  -6.464  0.00  0.00    +0.277 C 
ENDBRANCH  18  23
ENDBRANCH  12  15
BRANCH   1  25
ATOM     25  S   UNL     1       1.841   5.578   0.212  0.00  0.00    +0.061 S 
ATOM     26  O   UNL     1       1.221   6.742   0.742  0.00  0.00    -0.153 OA
ATOM     27  O   UNL     1       2.996   4.995   0.799  0.00  0.00    -0.153 OA
BRANCH  25  32
ATOM     28  C   UNL     1       1.819   5.370  -5.499  0.00  0.00    -0.096 C 
ATOM     29  N   UNL     1       2.192   5.793  -4.143  0.00  0.00    +0.380 N 
ATOM     30  C   UNL     1       1.043   6.378  -3.439  0.00  0.00    -0.062 C 
ATOM     31  C   UNL     1       1.512   6.968  -2.105  0.00  0.00    +0.091 C 
ATOM     32  N   UNL     1       2.232   5.925  -1.360  0.00  0.00    -0.180 NA
ATOM     33  C   UNL     1       3.314   5.202  -2.045  0.00  0.00    +0.091 C 
ATOM     34  C   UNL     1       2.771   4.677  -3.384  0.00  0.00    -0.062 C 
ATOM     35  H   UNL     1       2.963   6.574  -4.230  0.00  0.00    -0.082 HD
ENDBRANCH  25  32
ENDBRANCH   1  25
TORSDOF 5
