REMARK  Name = ZINC12321890
REMARK  10 active torsions:
REMARK  status: ('A' for Active; 'I' for Inactive)
REMARK    1  A    between atoms: C_1  and  O_2
REMARK    2  A    between atoms: O_2  and  C_3
REMARK    3  A    between atoms: C_7  and  C_9
REMARK    4  A    between atoms: N_17  and  C_27
REMARK    5  A    between atoms: C_18  and  C_20
REMARK    6  A    between atoms: C_24  and  O_26
REMARK    7  A    between atoms: C_27  and  C_28
REMARK    8  A    between atoms: C_28  and  C_29
REMARK    9  A    between atoms: C_36  and  O_39
REMARK   10  A    between atoms: O_39  and  C_40
REMARK                            x       y       z     vdW  Elec       q    Type
REMARK                         _______ _______ _______ _____ _____    ______ ____
ROOT
ATOM      1  C   UNL     1      -2.554  -4.146   0.018  0.00  0.00    +0.072 A 
ATOM      2  C   UNL     1      -3.357  -4.922   0.790  0.00  0.00    +0.035 A 
ATOM      3  C   UNL     1      -3.064  -6.258   0.435  0.00  0.00    +0.153 A 
ATOM      4  N   UNL     1      -2.134  -6.213  -0.498  0.00  0.00    -0.168 NA
ATOM      5  N   UNL     1      -1.823  -4.994  -0.763  0.00  0.00    -0.276 N 
ATOM      6  H   UNL     1      -1.164  -4.718  -1.420  0.00  0.00    +0.189 HD
ATOM      7  C   UNL     1      -3.916  -7.141   1.252  0.00  0.00    +0.268 C 
ATOM      8  O   UNL     1      -3.913  -8.355   1.195  0.00  0.00    -0.268 OA
ATOM      9  N   UNL     1      -4.697  -6.414   2.070  0.00  0.00    -0.285 N 
ATOM     10  C   UNL     1      -4.419  -4.989   1.853  0.00  0.00    +0.141 C 
ENDROOT
BRANCH   1  15
ATOM     11  C   UNL     1      -1.200  -0.637   0.010  0.00  0.00    +0.121 A 
ATOM     12  C   UNL     1      -2.375   0.103   0.020  0.00  0.00    +0.045 A 
ATOM     13  C   UNL     1      -3.600  -0.536   0.028  0.00  0.00    +0.004 A 
ATOM     14  C   UNL     1      -3.664  -1.915   0.027  0.00  0.00    +0.010 A 
ATOM     15  C   UNL     1      -2.489  -2.667   0.018  0.00  0.00    +0.004 A 
ATOM     16  C   UNL     1      -1.254  -2.021   0.003  0.00  0.00    +0.055 A 
BRANCH  11  18
ATOM     17  C   UNL     1      -0.017   1.425   0.010  0.00  0.00    +0.277 C 
ATOM     18  O   UNL     1       0.002  -0.004   0.002  0.00  0.00    -0.495 OA
ENDBRANCH  11  18
ENDBRANCH   1  15
BRANCH  10  19
ATOM     19  C   UNL     1      -5.665  -4.284   1.386  0.00  0.00    -0.019 A 
ATOM     20  C   UNL     1      -6.530  -4.915   0.510  0.00  0.00    +0.006 A 
ATOM     21  C   UNL     1      -7.674  -4.271   0.079  0.00  0.00    +0.004 A 
ATOM     22  C   UNL     1      -7.957  -2.993   0.522  0.00  0.00    +0.045 A 
ATOM     23  C   UNL     1      -7.092  -2.357   1.400  0.00  0.00    +0.117 A 
ATOM     24  C   UNL     1      -5.947  -3.009   1.836  0.00  0.00    +0.051 A 
BRANCH  23  25
ATOM     25  O   UNL     1      -7.368  -1.100   1.837  0.00  0.00    -0.507 OA
ATOM     26  H   UNL     1      -7.894  -1.072   2.647  0.00  0.00    +0.292 HD
ENDBRANCH  23  25
ENDBRANCH  10  19
BRANCH   9  27
ATOM     27  C   UNL     1      -5.670  -6.956   3.022  0.00  0.00    +0.114 C 
BRANCH  27  28
ATOM     28  C   UNL     1      -4.986  -7.190   4.371  0.00  0.00    +0.056 C 
BRANCH  28  29
ATOM     29  C   UNL     1      -5.987  -7.748   5.350  0.00  0.00    -0.021 A 
ATOM     30  C   UNL     1      -6.713  -7.047   6.236  0.00  0.00    +0.087 A 
ATOM     31  N   UNL     1      -7.513  -7.892   6.956  0.00  0.00    -0.360 N 
ATOM     32  H   UNL     1      -8.127  -7.617   7.654  0.00  0.00    +0.165 HD
ATOM     33  C   UNL     1      -7.315  -9.191   6.540  0.00  0.00    +0.047 A 
ATOM     34  C   UNL     1      -6.355  -9.156   5.512  0.00  0.00    +0.006 A 
ATOM     35  C   UNL     1      -5.955 -10.340   4.890  0.00  0.00    +0.056 A 
ATOM     36  C   UNL     1      -6.510 -11.541   5.286  0.00  0.00    +0.121 A 
ATOM     37  C   UNL     1      -7.463 -11.572   6.301  0.00  0.00    +0.047 A 
ATOM     38  C   UNL     1      -7.859 -10.411   6.928  0.00  0.00    +0.030 A 
BRANCH  36  39
ATOM     39  O   UNL     1      -6.125 -12.697   4.683  0.00  0.00    -0.495 OA
ATOM     40  C   UNL     1      -6.739 -13.903   5.142  0.00  0.00    +0.277 C 
ENDBRANCH  36  39
ENDBRANCH  28  29
ENDBRANCH  27  28
ENDBRANCH   9  27
TORSDOF 8
