REMARK  Name = ZINC57394047
REMARK  9 active torsions:
REMARK  status: ('A' for Active; 'I' for Inactive)
REMARK    1  A    between atoms: C_1  and  C_2
REMARK    2  A    between atoms: C_2  and  C_3
REMARK    3  A    between atoms: C_2  and  C_4
REMARK    4  A    between atoms: C_4  and  C_5
REMARK    5  A    between atoms: C_5  and  C_7
REMARK    6  A    between atoms: C_5  and  N_12
REMARK    7  A    between atoms: N_15  and  N_16
REMARK    8  A    between atoms: C_17  and  C_19
REMARK    9  A    between atoms: N_21  and  C_28
REMARK                            x       y       z     vdW  Elec       q    Type
REMARK                         _______ _______ _______ _____ _____    ______ ____
ROOT
ATOM      1  N   UNL     1      -0.876  -2.426  -1.433  0.00  0.00    -0.291 N 
ATOM      2  C   UNL     1       0.456  -2.525  -1.610  0.00  0.00    +0.316 C 
ATOM      3  O   UNL     1       1.210  -2.307  -0.682  0.00  0.00    -0.251 OA
ATOM      4  N   UNL     1       0.952  -2.864  -2.816  0.00  0.00    -0.218 N 
ATOM      5  H   UNL     1      -1.478  -2.600  -2.173  0.00  0.00    +0.151 HD
ATOM      6  H   UNL     1       1.911  -2.934  -2.944  0.00  0.00    +0.174 HD
ENDROOT
BRANCH   4   7
ATOM      7  N   UNL     1       0.083  -3.114  -3.886  0.00  0.00    -0.229 N 
ATOM      8  C   UNL     1       0.579  -3.453  -5.092  0.00  0.00    +0.262 C 
ATOM      9  O   UNL     1       1.782  -3.542  -5.253  0.00  0.00    -0.269 OA
ATOM     10  H   UNL     1      -0.876  -3.043  -3.758  0.00  0.00    +0.173 HD
BRANCH   8  11
ATOM     11  C   UNL     1      -0.333  -3.716  -6.214  0.00  0.00    +0.063 A 
ATOM     12  C   UNL     1      -1.695  -3.651  -6.191  0.00  0.00    +0.099 A 
ATOM     13  N   UNL     1      -2.189  -3.959  -7.415  0.00  0.00    -0.349 N 
ATOM     14  C   UNL     1      -1.162  -4.239  -8.292  0.00  0.00    +0.050 A 
ATOM     15  C   UNL     1       0.044  -4.095  -7.588  0.00  0.00    +0.012 A 
ATOM     16  C   UNL     1       1.259  -4.313  -8.232  0.00  0.00    +0.011 A 
ATOM     17  C   UNL     1       1.271  -4.668  -9.564  0.00  0.00    +0.001 A 
ATOM     18  C   UNL     1       0.081  -4.807 -10.262  0.00  0.00    +0.002 A 
ATOM     19  C   UNL     1      -1.129  -4.603  -9.634  0.00  0.00    +0.026 A 
ATOM     20  C   UNL     1      -3.613  -3.991  -7.757  0.00  0.00    +0.149 C 
ENDBRANCH   8  11
ENDBRANCH   4   7
BRANCH   1  21
ATOM     21  C   UNL     1      -1.416  -2.058  -0.121  0.00  0.00    +0.112 C 
BRANCH  21  22
ATOM     22  C   UNL     1      -2.819  -2.590   0.013  0.00  0.00    +0.010 A 
ATOM     23  C   UNL     1      -3.422  -3.146   1.092  0.00  0.00    +0.013 A 
ATOM     24  C   UNL     1      -4.734  -3.568   0.984  0.00  0.00    +0.008 A 
ATOM     25  C   UNL     1      -5.378  -3.414  -0.199  0.00  0.00    +0.045 A 
ATOM     26  S   UNL     1      -4.122  -2.646  -1.207  0.00  0.00    -0.100 S 
ENDBRANCH  21  22
BRANCH  21  27
ATOM     27  C   UNL     1      -1.433  -0.534   0.013  0.00  0.00    +0.030 C 
BRANCH  27  29
ATOM     28  C   UNL     1      -0.019   1.526   0.010  0.00  0.00    +0.007 C 
ATOM     29  C   UNL     1       0.002  -0.004   0.002  0.00  0.00    -0.015 C 
ATOM     30  C   UNL     1       0.742  -0.511   1.242  0.00  0.00    +0.007 C 
ENDBRANCH  27  29
ENDBRANCH  21  27
ENDBRANCH   1  21
TORSDOF 6
