REMARK  Name = ZINC14471675
REMARK  6 active torsions:
REMARK  status: ('A' for Active; 'I' for Inactive)
REMARK    1  A    between atoms: C_1  and  O_2
REMARK    2  A    between atoms: O_2  and  C_3
REMARK    3  A    between atoms: C_6  and  O_28
REMARK    4  A    between atoms: C_16  and  C_19
REMARK    5  A    between atoms: C_23  and  N_25
REMARK    6  A    between atoms: O_28  and  C_29
REMARK                            x       y       z     vdW  Elec       q    Type
REMARK                         _______ _______ _______ _____ _____    ______ ____
ROOT
ATOM      1  C   UNL     1       2.811  -2.070  -1.213  0.00  0.00    +0.126 A 
ATOM      2  C   UNL     1       3.087  -3.428  -1.247  0.00  0.00    +0.049 A 
ATOM      3  C   UNL     1       2.059  -4.339  -1.093  0.00  0.00    +0.051 A 
ATOM      4  C   UNL     1       0.765  -3.899  -0.897  0.00  0.00    +0.141 A 
ATOM      5  C   UNL     1       0.471  -2.531  -0.851  0.00  0.00    +0.077 A 
ATOM      6  C   UNL     1       1.515  -1.622  -1.024  0.00  0.00    +0.026 A 
ATOM      7  C   UNL     1       1.186  -0.180  -0.999  0.00  0.00    +0.052 C 
ATOM      8  C   UNL     1       2.152   0.857  -0.563  0.00  0.00    -0.022 C 
ATOM      9  C   UNL     1       1.477   1.854  -0.002  0.00  0.00    -0.030 C 
ATOM     10  C   UNL     1      -0.019   1.529   0.010  0.00  0.00    +0.033 C 
ATOM     11  C   UNL     1       0.002  -0.004   0.002  0.00  0.00    +0.029 C 
ATOM     12  C   UNL     1      -1.160  -0.725  -0.650  0.00  0.00    +0.105 C 
ATOM     13  N   UNL     1      -0.854  -2.164  -0.609  0.00  0.00    -0.334 N 
ATOM     14  H   UNL     1      -1.196  -2.582   0.243  0.00  0.00    +0.147 HD
ENDROOT
BRANCH  12  15
ATOM     15  C   UNL     1      -2.429  -0.448   0.113  0.00  0.00    -0.025 A 
ATOM     16  C   UNL     1      -2.705  -1.147   1.273  0.00  0.00    +0.005 A 
ATOM     17  C   UNL     1      -3.867  -0.889   1.976  0.00  0.00    +0.003 A 
ATOM     18  C   UNL     1      -4.759   0.060   1.513  0.00  0.00    +0.033 A 
ATOM     19  C   UNL     1      -4.486   0.756   0.350  0.00  0.00    +0.127 A 
ATOM     20  C   UNL     1      -3.321   0.502  -0.350  0.00  0.00    +0.038 A 
BRANCH  19  21
ATOM     21  N   UNL     1      -5.440   1.772  -0.146  0.00  0.00    +0.056 N 
ATOM     22  O   UNL     1      -5.200   2.385  -1.170  0.00  0.00    -0.126 OA
ATOM     23  O   UNL     1      -6.467   1.996   0.471  0.00  0.00    -0.126 OA
ENDBRANCH  19  21
ENDBRANCH  12  15
BRANCH   1  25
ATOM     24  C   UNL     1       5.134  -1.699  -1.558  0.00  0.00    +0.277 C 
ATOM     25  O   UNL     1       3.820  -1.172  -1.366  0.00  0.00    -0.495 OA
ENDBRANCH   1  25
BRANCH   4  26
ATOM     26  O   UNL     1      -0.238  -4.807  -0.746  0.00  0.00    -0.493 OA
ATOM     27  C   UNL     1       0.124  -6.189  -0.801  0.00  0.00    +0.277 C 
ENDBRANCH   4  26
TORSDOF 4
