REMARK  Name = ZINC39710955
REMARK  12 active torsions:
REMARK  status: ('A' for Active; 'I' for Inactive)
REMARK    1  A    between atoms: C_1  and  C_2
REMARK    2  A    between atoms: C_8  and  C_14
REMARK    3  A    between atoms: C_14  and  C_16
REMARK    4  A    between atoms: C_14  and  N_25
REMARK    5  A    between atoms: N_20  and  C_21
REMARK    6  A    between atoms: C_21  and  C_22
REMARK    7  A    between atoms: C_22  and  O_23
REMARK    8  A    between atoms: O_23  and  C_24
REMARK    9  A    between atoms: N_25  and  C_26
REMARK   10  A    between atoms: N_25  and  C_33
REMARK   11  A    between atoms: C_26  and  C_27
REMARK   12  A    between atoms: C_33  and  C_34
REMARK                            x       y       z     vdW  Elec       q    Type
REMARK                         _______ _______ _______ _____ _____    ______ ____
ROOT
ATOM      1  C   UNL     1       1.522  -2.664   4.513  0.00  0.00    +0.019 C 
ENDROOT
BRANCH   1   9
ATOM      2  C   UNL     1      -2.031  -6.375   1.157  0.00  0.00    +0.045 C 
ATOM      3  C   UNL     1      -2.281  -5.671   2.465  0.00  0.00    -0.029 A 
ATOM      4  C   UNL     1      -3.321  -6.055   3.250  0.00  0.00    +0.005 A 
ATOM      5  C   UNL     1      -3.607  -5.446   4.472  0.00  0.00    +0.001 A 
ATOM      6  C   UNL     1      -2.850  -4.424   4.947  0.00  0.00    +0.009 A 
ATOM      7  C   UNL     1      -1.712  -3.960   4.152  0.00  0.00    -0.007 A 
ATOM      8  C   UNL     1      -0.923  -2.937   4.590  0.00  0.00    -0.006 C 
ATOM      9  C   UNL     1       0.233  -2.523   3.701  0.00  0.00    +0.092 C 
ATOM     10  C   UNL     1       0.418  -3.276   2.404  0.00  0.00    +0.223 C 
ATOM     11  O   UNL     1       1.330  -2.985   1.653  0.00  0.00    -0.275 OA
ATOM     12  N   UNL     1      -0.415  -4.253   2.088  0.00  0.00    -0.284 N 
ATOM     13  C   UNL     1      -1.430  -4.625   2.868  0.00  0.00    +0.043 A 
ATOM     14  H   UNL     1      -0.280  -4.724   1.251  0.00  0.00    +0.155 HD
ENDBRANCH   1   9
BRANCH   1  15
ATOM     15  C   UNL     1       1.658  -4.084   4.997  0.00  0.00    +0.139 A 
ATOM     16  N   UNL     1       0.983  -4.647   5.969  0.00  0.00    -0.115 NA
ATOM     17  N   UNL     1       1.385  -5.867   6.079  0.00  0.00    -0.023 NA
ATOM     18  N   UNL     1       2.299  -6.096   5.201  0.00  0.00    -0.044 NA
ATOM     19  N   UNL     1       2.492  -5.023   4.511  0.00  0.00    -0.229 N 
BRANCH  19  20
ATOM     20  C   UNL     1       3.442  -4.856   3.409  0.00  0.00    +0.175 C 
BRANCH  20  21
ATOM     21  C   UNL     1       4.787  -4.382   3.962  0.00  0.00    +0.183 C 
BRANCH  21  22
ATOM     22  O   UNL     1       5.714  -4.219   2.887  0.00  0.00    -0.381 OA
ATOM     23  C   UNL     1       7.009  -3.776   3.298  0.00  0.00    +0.194 C 
ENDBRANCH  21  22
ENDBRANCH  20  21
ENDBRANCH  19  20
ENDBRANCH   1  15
BRANCH   1  24
ATOM     24  N   UNL     1       1.477  -1.755   5.667  0.00  0.00    +0.392 N 
ATOM     25  H   UNL     1       0.642  -1.936   6.204  0.00  0.00    -0.080 HD
BRANCH  24  26
ATOM     26  C   UNL     1       2.659  -1.975   6.510  0.00  0.00    -0.042 C 
BRANCH  26  27
ATOM     27  C   UNL     1       2.481  -1.256   7.822  0.00  0.00    -0.064 A 
ATOM     28  C   UNL     1       2.794   0.086   7.923  0.00  0.00    +0.002 A 
ATOM     29  C   UNL     1       2.630   0.746   9.127  0.00  0.00    +0.000 A 
ATOM     30  C   UNL     1       2.153   0.062  10.230  0.00  0.00    +0.000 A 
ATOM     31  C   UNL     1       1.839  -1.280  10.129  0.00  0.00    +0.000 A 
ATOM     32  C   UNL     1       1.998  -1.938   8.924  0.00  0.00    +0.002 A 
ENDBRANCH  26  27
ENDBRANCH  24  26
BRANCH  24  33
ATOM     33  C   UNL     1       1.464  -0.364   5.194  0.00  0.00    -0.042 C 
BRANCH  33  34
ATOM     34  C   UNL     1       2.596  -0.153   4.222  0.00  0.00    -0.064 A 
ATOM     35  C   UNL     1       3.863   0.138   4.691  0.00  0.00    +0.004 A 
ATOM     36  C   UNL     1       4.902   0.331   3.800  0.00  0.00    +0.038 A 
ATOM     37  C   UNL     1       4.673   0.233   2.438  0.00  0.00    +0.123 A 
ATOM     38  C   UNL     1       3.403  -0.059   1.970  0.00  0.00    +0.038 A 
ATOM     39  C   UNL     1       2.367  -0.257   2.863  0.00  0.00    +0.004 A 
ATOM     40  F   UNL     1       5.688   0.422   1.567  0.00  0.00    -0.205 F 
ENDBRANCH  33  34
ENDBRANCH  24  33
ENDBRANCH   1  24
TORSDOF 10
