REMARK  Name = ZINC12533616
REMARK  7 active torsions:
REMARK  status: ('A' for Active; 'I' for Inactive)
REMARK    1  A    between atoms: C_3  and  C_6
REMARK    2  A    between atoms: C_12  and  C_14
REMARK    3  A    between atoms: N_16  and  N_17
REMARK    4  A    between atoms: C_18  and  C_20
REMARK    5  A    between atoms: C_23  and  N_26
REMARK    6  A    between atoms: N_26  and  S_27
REMARK    7  A    between atoms: S_27  and  C_30
REMARK                            x       y       z     vdW  Elec       q    Type
REMARK                         _______ _______ _______ _____ _____    ______ ____
ROOT
ATOM      1  N   UNL     1       3.248   3.909   0.192  0.00  0.00    -0.230 N 
ATOM      2  C   UNL     1       3.381   2.570   0.122  0.00  0.00    +0.260 C 
ATOM      3  O   UNL     1       4.488   2.070   0.083  0.00  0.00    -0.269 OA
ATOM      4  H   UNL     1       2.364   4.308   0.223  0.00  0.00    +0.173 HD
ENDROOT
BRANCH   2   5
ATOM      5  C   UNL     1       2.182   1.710   0.092  0.00  0.00    +0.038 A 
ATOM      6  C   UNL     1       0.908   2.284   0.137  0.00  0.00    +0.015 A 
ATOM      7  C   UNL     1      -0.208   1.479   0.108  0.00  0.00    +0.025 A 
ATOM      8  C   UNL     1      -0.070   0.096   0.036  0.00  0.00    +0.048 A 
ATOM      9  C   UNL     1       1.198  -0.478  -0.008  0.00  0.00    +0.025 A 
ATOM     10  C   UNL     1       2.318   0.321   0.019  0.00  0.00    +0.015 A 
BRANCH   8  11
ATOM     11  N   UNL     1      -1.200  -0.714   0.008  0.00  0.00    -0.216 N 
ATOM     12  H   UNL     1      -1.729  -0.780  -0.802  0.00  0.00    +0.174 HD
BRANCH  11  13
ATOM     13  S   UNL     1      -1.641  -1.566   1.358  0.00  0.00    +0.079 S 
ATOM     14  O   UNL     1      -2.843  -2.250   1.031  0.00  0.00    -0.149 OA
ATOM     15  O   UNL     1      -0.477  -2.244   1.809  0.00  0.00    -0.149 OA
BRANCH  13  16
ATOM     16  C   UNL     1      -2.054  -0.391   2.604  0.00  0.00    +0.146 A 
ATOM     17  C   UNL     1      -3.269   0.111   2.935  0.00  0.00    +0.036 A 
ATOM     18  C   UNL     1      -3.356   1.034   3.960  0.00  0.00    +0.010 A 
ATOM     19  C   UNL     1      -2.224   1.410   4.604  0.00  0.00    +0.047 A 
ATOM     20  S   UNL     1      -0.982   0.443   3.763  0.00  0.00    -0.077 S 
ENDBRANCH  13  16
ENDBRANCH  11  13
ENDBRANCH   8  11
ENDBRANCH   2   5
BRANCH   1  23
ATOM     21  C   UNL     1       4.253   6.064   0.290  0.00  0.00    +0.250 C 
ATOM     22  O   UNL     1       3.149   6.563   0.329  0.00  0.00    -0.272 OA
ATOM     23  N   UNL     1       4.386   4.725   0.220  0.00  0.00    -0.233 N 
ATOM     24  H   UNL     1       5.270   4.326   0.189  0.00  0.00    +0.173 HD
BRANCH  21  31
ATOM     25  C   UNL     1       4.198   8.713  -0.917  0.00  0.00    +0.254 C 
ATOM     26  O   UNL     1       3.580   7.874  -1.544  0.00  0.00    -0.269 OA
ATOM     27  N   UNL     1       5.120   8.334  -0.010  0.00  0.00    -0.285 N 
ATOM     28  C   UNL     1       5.936   9.238   0.817  0.00  0.00    +0.109 C 
ATOM     29  C   UNL     1       6.827   8.357   1.718  0.00  0.00    +0.021 C 
ATOM     30  C   UNL     1       6.058   7.010   1.755  0.00  0.00    +0.033 C 
ATOM     31  C   UNL     1       5.478   6.942   0.321  0.00  0.00    +0.164 C 
BRANCH  25  34
ATOM     32  C   UNL     1       3.007  12.105  -2.040  0.00  0.00    +0.008 A 
ATOM     33  C   UNL     1       3.050  10.733  -2.028  0.00  0.00    +0.021 A 
ATOM     34  C   UNL     1       3.940  10.138  -1.148  0.00  0.00    +0.074 A 
ATOM     35  S   UNL     1       4.696  11.557  -0.375  0.00  0.00    -0.092 S 
ATOM     36  C   UNL     1       3.829  12.803  -1.213  0.00  0.00    +0.046 A 
ENDBRANCH  25  34
ENDBRANCH  21  31
ENDBRANCH   1  23
TORSDOF 7
