REMARK  Name = ZINC02893208
REMARK  1 active torsions:
REMARK  status: ('A' for Active; 'I' for Inactive)
REMARK    1  A    between atoms: C_4  and  N_7
REMARK                            x       y       z     vdW  Elec       q    Type
REMARK                         _______ _______ _______ _____ _____    ______ ____
ROOT
ATOM      1  N   UNL     1       3.621  -0.650  -0.036  0.00  0.00    -0.214 N 
ATOM      2  C   UNL     1       4.820  -0.058  -0.136  0.00  0.00    +0.153 C 
ATOM      3  S   UNL     1       5.050   1.634  -0.259  0.00  0.00    -0.017 S 
ATOM      4  N   UNL     1       5.822  -0.960  -0.125  0.00  0.00    -0.306 N 
ATOM      5  C   UNL     1       5.195  -2.277  -0.006  0.00  0.00    +0.101 C 
ATOM      6  N   UNL     1       3.752  -2.009   0.053  0.00  0.00    -0.211 NA
ATOM      7  C   UNL     1       5.545  -3.164  -1.210  0.00  0.00    +0.043 C 
ATOM      8  C   UNL     1       6.705  -4.054  -0.695  0.00  0.00    +0.004 C 
ATOM      9  C   UNL     1       6.299  -4.334   0.774  0.00  0.00    +0.004 C 
ATOM     10  C   UNL     1       5.671  -3.006   1.253  0.00  0.00    +0.043 C 
ATOM     11  H   UNL     1       6.772  -0.772  -0.185  0.00  0.00    +0.150 HD
ATOM     12  H   UNL     1       3.353  -2.355   0.914  0.00  0.00    +0.147 HD
ENDROOT
BRANCH   1  16
ATOM     13  C   UNL     1      -0.016   1.379   0.011  0.00  0.00    +0.000 A 
ATOM     14  C   UNL     1       0.247   0.412   0.964  0.00  0.00    +0.002 A 
ATOM     15  C   UNL     1       1.452  -0.262   0.951  0.00  0.00    +0.025 A 
ATOM     16  C   UNL     1       2.400   0.031  -0.021  0.00  0.00    +0.052 A 
ATOM     17  C   UNL     1       2.132   1.002  -0.976  0.00  0.00    +0.025 A 
ATOM     18  C   UNL     1       0.925   1.674  -0.958  0.00  0.00    +0.002 A 
ENDBRANCH   1  16
TORSDOF 1
