REMARK  Name = ZINC60238855
REMARK  12 active torsions:
REMARK  status: ('A' for Active; 'I' for Inactive)
REMARK    1  A    between atoms: C_1  and  C_2
REMARK    2  A    between atoms: C_2  and  C_3
REMARK    3  A    between atoms: C_3  and  C_5
REMARK    4  A    between atoms: C_3  and  N_6
REMARK    5  A    between atoms: N_6  and  S_7
REMARK    6  A    between atoms: S_7  and  C_10
REMARK    7  A    between atoms: C_13  and  C_16
REMARK    8  A    between atoms: N_18  and  C_19
REMARK    9  A    between atoms: C_19  and  C_20
REMARK   10  A    between atoms: C_20  and  C_22
REMARK   11  A    between atoms: C_20  and  N_29
REMARK   12  A    between atoms: C_25  and  C_28
REMARK                            x       y       z     vdW  Elec       q    Type
REMARK                         _______ _______ _______ _____ _____    ______ ____
ROOT
ATOM      1  C   UNL     1      -6.512  -4.881  -0.204  0.00  0.00    +0.244 C 
ATOM      2  O   UNL     1      -6.548  -5.229  -1.368  0.00  0.00    -0.270 OA
ATOM      3  N   UNL     1      -7.038  -5.671   0.753  0.00  0.00    -0.313 N 
ATOM      4  H   UNL     1      -7.008  -5.392   1.682  0.00  0.00    +0.149 HD
ENDROOT
BRANCH   1   8
ATOM      5  C   UNL     1      -4.726  -1.173   0.848  0.00  0.00    +0.105 A 
ATOM      6  C   UNL     1      -4.766  -1.567  -0.478  0.00  0.00    +0.029 A 
ATOM      7  C   UNL     1      -5.344  -2.770  -0.826  0.00  0.00    +0.015 A 
ATOM      8  C   UNL     1      -5.890  -3.590   0.162  0.00  0.00    +0.037 A 
ATOM      9  C   UNL     1      -5.847  -3.187   1.498  0.00  0.00    +0.015 A 
ATOM     10  C   UNL     1      -5.260  -1.984   1.833  0.00  0.00    +0.029 A 
BRANCH   5  11
ATOM     11  S   UNL     1      -3.986   0.366   1.284  0.00  0.00    +0.059 S 
ATOM     12  O   UNL     1      -4.556   0.753   2.526  0.00  0.00    -0.153 OA
ATOM     13  O   UNL     1      -4.048   1.189   0.127  0.00  0.00    -0.153 OA
BRANCH  11  14
ATOM     14  N   UNL     1      -2.381   0.073   1.570  0.00  0.00    -0.187 NA
ATOM     15  H   UNL     1      -2.017   0.198   2.461  0.00  0.00    +0.148 HD
BRANCH  14  16
ATOM     16  C   UNL     1      -1.512  -0.375   0.479  0.00  0.00    +0.073 C 
ATOM     17  C   UNL     1      -1.418  -1.902   0.496  0.00  0.00    +0.025 C 
BRANCH  16  19
ATOM     18  C   UNL     1      -0.191   1.746   0.520  0.00  0.00    +0.005 C 
ATOM     19  C   UNL     1      -0.116   0.224   0.661  0.00  0.00    +0.017 C 
ENDBRANCH  16  19
ENDBRANCH  14  16
ENDBRANCH  11  14
ENDBRANCH   5  11
ENDBRANCH   1   8
BRANCH   3  20
ATOM     20  C   UNL     1      -7.654  -6.949   0.391  0.00  0.00    +0.094 C 
BRANCH  20  21
ATOM     21  C   UNL     1      -8.047  -7.705   1.662  0.00  0.00    -0.020 C 
BRANCH  21  22
ATOM     22  C   UNL     1      -6.805  -8.076   2.430  0.00  0.00    -0.059 A 
ATOM     23  C   UNL     1      -6.056  -9.173   2.045  0.00  0.00    +0.002 A 
ATOM     24  C   UNL     1      -4.917  -9.514   2.750  0.00  0.00    +0.003 A 
ATOM     25  C   UNL     1      -4.526  -8.758   3.839  0.00  0.00    -0.050 A 
ATOM     26  C   UNL     1      -5.274  -7.661   4.223  0.00  0.00    +0.003 A 
ATOM     27  C   UNL     1      -6.411  -7.317   3.516  0.00  0.00    +0.002 A 
ATOM     28  C   UNL     1      -3.284  -9.130   4.608  0.00  0.00    +0.044 C 
ENDBRANCH  21  22
BRANCH  21  29
ATOM     29  N   UNL     1      -8.782  -8.924   1.299  0.00  0.00    +0.385 N 
ATOM     30  C   UNL     1      -9.185  -9.662   2.524  0.00  0.00    -0.078 C 
ATOM     31  C   UNL     1     -10.367 -10.537   2.037  0.00  0.00    -0.020 C 
ATOM     32  C   UNL     1     -11.097  -9.607   1.040  0.00  0.00    -0.020 C 
ATOM     33  C   UNL     1     -10.041  -8.574   0.607  0.00  0.00    -0.078 C 
ATOM     34  H   UNL     1      -8.212  -9.511   0.709  0.00  0.00    -0.081 HD
ENDBRANCH  21  29
ENDBRANCH  20  21
ENDBRANCH   3  20
TORSDOF 9
