REMARK  Name = ZINC38687647
REMARK  9 active torsions:
REMARK  status: ('A' for Active; 'I' for Inactive)
REMARK    1  A    between atoms: C_1  and  C_2
REMARK    2  A    between atoms: C_4  and  C_36
REMARK    3  A    between atoms: C_6  and  C_35
REMARK    4  A    between atoms: C_7  and  C_11
REMARK    5  A    between atoms: C_11  and  O_13
REMARK    6  A    between atoms: O_13  and  C_14
REMARK    7  A    between atoms: C_21  and  N_34
REMARK    8  A    between atoms: C_22  and  C_32
REMARK    9  A    between atoms: C_23  and  C_25
REMARK                            x       y       z     vdW  Elec       q    Type
REMARK                         _______ _______ _______ _____ _____    ______ ____
ROOT
ATOM      1  C   UNL     1       0.151  -6.144   5.035  0.00  0.00    +0.136 A 
ATOM      2  C   UNL     1       0.171  -7.423   4.495  0.00  0.00    +0.047 A 
ATOM      3  C   UNL     1       0.153  -8.523   5.329  0.00  0.00    +0.012 A 
ATOM      4  C   UNL     1       0.114  -8.358   6.702  0.00  0.00    +0.008 A 
ATOM      5  C   UNL     1       0.094  -7.083   7.246  0.00  0.00    +0.138 A 
ATOM      6  C   UNL     1       0.119  -5.975   6.409  0.00  0.00    +0.093 A 
ATOM      7  O   UNL     1       0.056  -6.900   8.589  0.00  0.00    -0.441 OA
ATOM      8  C   UNL     1      -0.345  -7.901   9.390  0.00  0.00    +0.199 C 
ATOM      9  C   UNL     1      -0.351  -9.191   8.978  0.00  0.00    +0.098 C 
ATOM     10  C   UNL     1       0.094  -9.571   7.594  0.00  0.00    +0.099 C 
ENDROOT
BRANCH  10  11
ATOM     11  C   UNL     1       1.478 -10.165   7.659  0.00  0.00    -0.016 A 
ATOM     12  C   UNL     1       2.530  -9.413   8.147  0.00  0.00    +0.006 A 
ATOM     13  C   UNL     1       3.799  -9.957   8.207  0.00  0.00    +0.000 A 
ATOM     14  C   UNL     1       4.017 -11.254   7.780  0.00  0.00    +0.001 A 
ATOM     15  C   UNL     1       2.965 -12.007   7.293  0.00  0.00    +0.020 A 
ATOM     16  C   UNL     1       1.694 -11.464   7.237  0.00  0.00    +0.045 A 
ATOM     17 CL   UNL     1       0.371 -12.411   6.631  0.00  0.00    -0.083 Cl
ENDBRANCH  10  11
BRANCH   8  18
ATOM     18  N   UNL     1      -0.760  -7.608  10.665  0.00  0.00    -0.328 N 
ATOM     19  H   UNL     1      -0.761  -6.689  10.976  0.00  0.00    +0.145 HD
ATOM     20  H   UNL     1      -1.053  -8.320  11.256  0.00  0.00    +0.145 HD
ENDBRANCH   8  18
BRANCH   9  21
ATOM     21  C   UNL     1      -0.790 -10.214   9.879  0.00  0.00    +0.101 C 
ATOM     22  N   UNL     1      -1.138 -11.025  10.594  0.00  0.00    -0.191 NA
ENDBRANCH   9  21
BRANCH   1  23
ATOM     23  O   UNL     1       0.170  -5.059   4.216  0.00  0.00    -0.420 OA
BRANCH  23  24
ATOM     24  C   UNL     1       1.294  -4.316   4.174  0.00  0.00    +0.380 C 
ATOM     25  O   UNL     1       2.284  -4.677   4.781  0.00  0.00    -0.241 OA
BRANCH  24  32
ATOM     26  C   UNL     1      -0.175   1.551  -0.103  0.00  0.00    +0.044 C 
ATOM     27  C   UNL     1       0.575   0.595   0.789  0.00  0.00    -0.047 A 
ATOM     28  C   UNL     1       1.896   0.863   1.125  0.00  0.00    +0.007 A 
ATOM     29  C   UNL     1       2.591   0.008   1.932  0.00  0.00    -0.039 A 
ATOM     30  C   UNL     1       1.968  -1.143   2.422  0.00  0.00    +0.027 A 
ATOM     31  C   UNL     1       2.396  -2.244   3.284  0.00  0.00    +0.010 A 
ATOM     32  C   UNL     1       1.323  -3.071   3.397  0.00  0.00    +0.216 A 
ATOM     33  O   UNL     1       0.288  -2.574   2.687  0.00  0.00    -0.448 OA
ATOM     34  C   UNL     1       0.630  -1.418   2.086  0.00  0.00    +0.137 A 
ATOM     35  C   UNL     1      -0.059  -0.531   1.266  0.00  0.00    +0.050 A 
ATOM     36  C   UNL     1       3.751  -2.427   3.916  0.00  0.00    +0.048 C 
ATOM     37  C   UNL     1       4.025   0.304   2.291  0.00  0.00    +0.044 C 
ENDBRANCH  24  32
ENDBRANCH  23  24
ENDBRANCH   1  23
TORSDOF 6
