REMARK  Name = ZINC40983525
REMARK  11 active torsions:
REMARK  status: ('A' for Active; 'I' for Inactive)
REMARK    1  A    between atoms: C_1  and  C_2
REMARK    2  A    between atoms: C_2  and  C_3
REMARK    3  A    between atoms: C_3  and  C_4
REMARK    4  A    between atoms: C_4  and  S_5
REMARK    5  A    between atoms: S_5  and  C_6
REMARK    6  A    between atoms: C_11  and  C_27
REMARK    7  A    between atoms: C_13  and  C_17
REMARK    8  A    between atoms: C_14  and  C_16
REMARK    9  A    between atoms: N_19  and  C_20
REMARK   10  A    between atoms: C_23  and  C_26
REMARK   11  A    between atoms: C_30  and  N_33
REMARK                            x       y       z     vdW  Elec       q    Type
REMARK                         _______ _______ _______ _____ _____    ______ ____
ROOT
ATOM      1  C   UNL     1      -2.818  -4.433  -0.159  0.00  0.00    +0.210 A 
ATOM      2  N   UNL     1      -1.681  -5.143  -0.120  0.00  0.00    -0.187 NA
ATOM      3  C   UNL     1      -1.964  -6.417  -0.094  0.00  0.00    +0.219 A 
ATOM      4  N   UNL     1      -3.314  -6.550  -0.109  0.00  0.00    -0.220 N 
ATOM      5  N   UNL     1      -3.841  -5.260  -0.149  0.00  0.00    -0.141 NA
ATOM      6  C   UNL     1      -4.000  -7.839  -0.078  0.00  0.00    +0.177 C 
ATOM      7  C   UNL     1      -3.006  -8.942  -0.327  0.00  0.00    +0.060 C 
ATOM      8  C   UNL     1      -1.679  -8.750  -0.302  0.00  0.00    +0.018 C 
ATOM      9  N   UNL     1      -1.121  -7.519  -0.057  0.00  0.00    -0.287 N 
ATOM     10  C   UNL     1      -0.769  -9.925  -0.552  0.00  0.00    +0.061 C 
ATOM     11  H   UNL     1      -0.175  -7.423   0.133  0.00  0.00    +0.155 HD
ENDROOT
BRANCH   6  12
ATOM     12  C   UNL     1      -4.640  -8.034   1.272  0.00  0.00    -0.018 A 
ATOM     13  C   UNL     1      -3.860  -8.038   2.413  0.00  0.00    +0.008 A 
ATOM     14  C   UNL     1      -4.447  -8.217   3.652  0.00  0.00    +0.033 A 
ATOM     15  C   UNL     1      -5.815  -8.392   3.749  0.00  0.00    +0.126 A 
ATOM     16  C   UNL     1      -6.595  -8.388   2.608  0.00  0.00    +0.033 A 
ATOM     17  C   UNL     1      -6.008  -8.204   1.370  0.00  0.00    +0.008 A 
BRANCH  15  18
ATOM     18  N   UNL     1      -6.444  -8.585   5.075  0.00  0.00    +0.056 N 
ATOM     19  O   UNL     1      -5.761  -8.590   6.073  0.00  0.00    -0.126 OA
ATOM     20  O   UNL     1      -7.640  -8.739   5.160  0.00  0.00    -0.126 OA
ENDBRANCH  15  18
ENDBRANCH   6  12
BRANCH   7  21
ATOM     21  C   UNL     1      -3.495 -10.241  -0.598  0.00  0.00    +0.248 C 
ATOM     22  O   UNL     1      -3.969 -10.498  -1.690  0.00  0.00    -0.270 OA
ATOM     23  N   UNL     1      -3.436 -11.195   0.352  0.00  0.00    -0.282 N 
ATOM     24  H   UNL     1      -3.119 -10.975   1.242  0.00  0.00    +0.155 HD
BRANCH  23  25
ATOM     25  C   UNL     1      -3.832 -12.503   0.055  0.00  0.00    +0.034 A 
ATOM     26  C   UNL     1      -3.176 -13.579   0.639  0.00  0.00    +0.023 A 
ATOM     27  C   UNL     1      -3.570 -14.869   0.344  0.00  0.00    +0.005 A 
ATOM     28  C   UNL     1      -4.616 -15.091  -0.533  0.00  0.00    -0.050 A 
ATOM     29  C   UNL     1      -5.272 -14.022  -1.117  0.00  0.00    +0.005 A 
ATOM     30  C   UNL     1      -4.886 -12.729  -0.821  0.00  0.00    +0.023 A 
ATOM     31  C   UNL     1      -5.043 -16.500  -0.854  0.00  0.00    +0.044 C 
ENDBRANCH  23  25
ENDBRANCH   7  21
BRANCH   1  32
ATOM     32  S   UNL     1      -2.925  -2.674  -0.206  0.00  0.00    -0.084 S 
BRANCH  32  33
ATOM     33  C   UNL     1      -1.194  -2.130  -0.199  0.00  0.00    +0.077 C 
BRANCH  33  34
ATOM     34  C   UNL     1      -1.141  -0.601  -0.239  0.00  0.00    +0.011 C 
BRANCH  34  36
ATOM     35  C   UNL     1       0.372   1.387  -0.273  0.00  0.00    +0.004 C 
ATOM     36  C   UNL     1       0.319  -0.142  -0.233  0.00  0.00    -0.003 C 
ENDBRANCH  34  36
ENDBRANCH  33  34
ENDBRANCH  32  33
ENDBRANCH   1  32
TORSDOF 8
