REMARK  Name = ZINC39605073
REMARK  9 active torsions:
REMARK  status: ('A' for Active; 'I' for Inactive)
REMARK    1  A    between atoms: C_1  and  C_2
REMARK    2  A    between atoms: C_2  and  C_3
REMARK    3  A    between atoms: C_2  and  O_4
REMARK    4  A    between atoms: O_4  and  C_5
REMARK    5  A    between atoms: C_5  and  C_6
REMARK    6  A    between atoms: C_6  and  C_7
REMARK    7  A    between atoms: C_7  and  N_8
REMARK    8  A    between atoms: C_9  and  C_11
REMARK    9  A    between atoms: C_22  and  C_24
REMARK                            x       y       z     vdW  Elec       q    Type
REMARK                         _______ _______ _______ _____ _____    ______ ____
ROOT
ATOM      1  C   UNL     1      -6.630  -5.492  -1.599  0.00  0.00    +0.100 C 
ATOM      2  C   UNL     1      -7.478  -4.425  -2.327  0.00  0.00    +0.121 C 
ATOM      3  N   UNL     1      -7.566  -4.907  -3.725  0.00  0.00    -0.296 N 
ATOM      4  C   UNL     1      -7.731  -6.375  -3.599  0.00  0.00    +0.115 C 
ATOM      5  C   UNL     1      -6.801  -6.771  -2.435  0.00  0.00    -0.004 C 
ATOM      6  C   UNL     1      -5.451  -7.235  -2.974  0.00  0.00    -0.010 C 
ATOM      7  C   UNL     1      -5.640  -8.539  -3.754  0.00  0.00    -0.082 C 
ATOM      8  N   UNL     1      -6.215  -9.561  -2.871  0.00  0.00    +0.379 N 
ATOM      9  C   UNL     1      -7.553  -9.148  -2.431  0.00  0.00    -0.082 C 
ATOM     10  C   UNL     1      -7.445  -7.870  -1.595  0.00  0.00    -0.010 C 
ATOM     11  C   UNL     1      -7.509  -4.176  -4.856  0.00  0.00    +0.247 C 
ATOM     12  O   UNL     1      -7.685  -4.710  -5.934  0.00  0.00    -0.270 OA
ATOM     13  H   UNL     1      -6.282 -10.436  -3.370  0.00  0.00    -0.086 HD
ATOM     14  H   UNL     1      -5.620  -9.681  -2.065  0.00  0.00    -0.086 HD
ENDROOT
BRANCH  11  15
ATOM     15  C   UNL     1      -7.232  -2.727  -4.786  0.00  0.00    +0.045 A 
ATOM     16  C   UNL     1      -7.969  -1.912  -3.919  0.00  0.00    +0.014 A 
ATOM     17  C   UNL     1      -7.713  -0.560  -3.851  0.00  0.00    +0.001 A 
ATOM     18  C   UNL     1      -6.724   0.009  -4.639  0.00  0.00    +0.012 A 
ATOM     19  C   UNL     1      -5.980  -0.783  -5.506  0.00  0.00    +0.031 A 
ATOM     20  C   UNL     1      -6.226  -2.163  -5.582  0.00  0.00    +0.006 A 
ATOM     21  C   UNL     1      -5.295  -2.760  -6.571  0.00  0.00    -0.006 A 
ATOM     22  C   UNL     1      -5.128  -4.064  -7.017  0.00  0.00    +0.009 A 
ATOM     23  C   UNL     1      -4.162  -4.354  -7.968  0.00  0.00    +0.001 A 
ATOM     24  C   UNL     1      -3.360  -3.351  -8.479  0.00  0.00    +0.001 A 
ATOM     25  C   UNL     1      -3.514  -2.045  -8.044  0.00  0.00    +0.012 A 
ATOM     26  C   UNL     1      -4.479  -1.741  -7.091  0.00  0.00    +0.030 A 
ATOM     27  C   UNL     1      -4.884  -0.466  -6.452  0.00  0.00    +0.194 C 
ATOM     28  O   UNL     1      -4.399   0.629  -6.654  0.00  0.00    -0.287 OA
ENDBRANCH  11  15
BRANCH   1  30
ATOM     29  N   UNL     1      -4.391  -5.471  -0.546  0.00  0.00    -0.315 N 
ATOM     30  C   UNL     1      -5.181  -5.077  -1.565  0.00  0.00    +0.218 C 
ATOM     31  O   UNL     1      -4.726  -4.389  -2.454  0.00  0.00    -0.275 OA
ATOM     32  H   UNL     1      -4.755  -6.022   0.165  0.00  0.00    +0.149 HD
BRANCH  29  33
ATOM     33  C   UNL     1      -2.983  -5.069  -0.514  0.00  0.00    +0.106 C 
BRANCH  33  34
ATOM     34  C   UNL     1      -2.317  -5.644   0.738  0.00  0.00    +0.047 C 
BRANCH  34  35
ATOM     35  C   UNL     1      -0.846  -5.224   0.772  0.00  0.00    +0.161 C 
BRANCH  35  36
ATOM     36  O   UNL     1      -0.224  -5.761   1.941  0.00  0.00    -0.377 OA
BRANCH  36  38
ATOM     37  C   UNL     1       1.531  -5.357   3.552  0.00  0.00    +0.037 C 
ATOM     38  C   UNL     1       1.159  -5.426   2.070  0.00  0.00    +0.112 C 
ATOM     39  C   UNL     1       2.010  -6.494   1.379  0.00  0.00    +0.037 C 
ENDBRANCH  36  38
ENDBRANCH  35  36
ENDBRANCH  34  35
ENDBRANCH  33  34
ENDBRANCH  29  33
ENDBRANCH   1  30
TORSDOF 7
