REMARK  Name = ZINC09579506
REMARK  8 active torsions:
REMARK  status: ('A' for Active; 'I' for Inactive)
REMARK    1  A    between atoms: C_1  and  C_2
REMARK    2  A    between atoms: C_2  and  N_3
REMARK    3  A    between atoms: C_7  and  S_8
REMARK    4  A    between atoms: S_8  and  C_9
REMARK    5  A    between atoms: C_9  and  C_11
REMARK    6  A    between atoms: C_9  and  C_12
REMARK    7  A    between atoms: N_14  and  C_15
REMARK    8  A    between atoms: C_16  and  C_25
REMARK                            x       y       z     vdW  Elec       q    Type
REMARK                         _______ _______ _______ _____ _____    ______ ____
ROOT
ATOM      1  C   UNL     1      -3.828   4.813  -0.877  0.00  0.00    +0.137 C 
ATOM      2  C   UNL     1      -4.448   5.424   0.381  0.00  0.00    +0.029 C 
ENDROOT
BRANCH   1   3
ATOM      3  C   UNL     1      -4.916   4.494  -1.869  0.00  0.00    +0.231 C 
ATOM      4  O   UNL     1      -5.391   3.379  -1.912  0.00  0.00    -0.274 OA
ATOM      5  N   UNL     1      -5.362   5.449  -2.710  0.00  0.00    -0.278 N 
ATOM      6  H   UNL     1      -4.983   6.341  -2.676  0.00  0.00    +0.155 HD
BRANCH   5   7
ATOM      7  C   UNL     1      -6.365   5.156  -3.624  0.00  0.00    +0.090 A 
ATOM      8  C   UNL     1      -6.949   5.993  -4.560  0.00  0.00    +0.084 A 
ATOM      9  C   UNL     1      -7.990   5.437  -5.412  0.00  0.00    -0.018 A 
ATOM     10  C   UNL     1      -8.281   4.138  -5.182  0.00  0.00    -0.004 A 
ATOM     11  S   UNL     1      -7.184   3.651  -3.877  0.00  0.00    -0.077 S 
ATOM     12  C   UNL     1      -9.303   3.292  -5.873  0.00  0.00    +0.043 C 
ATOM     13  C   UNL     1      -9.146   3.449  -7.392  0.00  0.00    +0.005 C 
ATOM     14  C   UNL     1     -10.015   4.616  -7.849  0.00  0.00    +0.001 C 
ATOM     15  C   UNL     1     -10.075   5.686  -6.761  0.00  0.00    +0.005 C 
ATOM     16  C   UNL     1      -8.686   6.255  -6.493  0.00  0.00    +0.037 C 
BRANCH   8  17
ATOM     17  C   UNL     1      -6.542   7.361  -4.685  0.00  0.00    +0.102 C 
ATOM     18  N   UNL     1      -6.219   8.445  -4.784  0.00  0.00    -0.191 NA
ENDBRANCH   8  17
ENDBRANCH   5   7
ENDBRANCH   1   3
BRANCH   1  19
ATOM     19  S   UNL     1      -2.946   3.290  -0.437  0.00  0.00    -0.073 S 
BRANCH  19  24
ATOM     20  N   UNL     1      -0.684   3.051   1.184  0.00  0.00    -0.291 N 
ATOM     21  C   UNL     1       0.149   3.856   1.909  0.00  0.00    +0.220 A 
ATOM     22  N   UNL     1      -0.261   5.093   1.770  0.00  0.00    -0.112 NA
ATOM     23  N   UNL     1      -1.391   5.084   0.942  0.00  0.00    -0.121 NA
ATOM     24  C   UNL     1      -1.631   3.842   0.598  0.00  0.00    +0.194 A 
ATOM     25  N   UNL     1       1.240   3.437   2.659  0.00  0.00    -0.295 N 
ATOM     26  C   UNL     1       1.046   3.739   4.085  0.00  0.00    +0.136 C 
ATOM     27  C   UNL     1       2.242   3.209   4.881  0.00  0.00    +0.179 C 
ATOM     28  O   UNL     1       3.445   3.784   4.364  0.00  0.00    -0.377 OA
ATOM     29  C   UNL     1       3.665   3.509   2.978  0.00  0.00    +0.179 C 
ATOM     30  C   UNL     1       2.484   4.042   2.163  0.00  0.00    +0.136 C 
BRANCH  20  32
ATOM     31  C   UNL     1       0.298   1.244  -0.140  0.00  0.00    +0.027 C 
ATOM     32  C   UNL     1      -0.582   1.595   1.062  0.00  0.00    +0.124 C 
ENDBRANCH  20  32
ENDBRANCH  19  24
ENDBRANCH   1  19
TORSDOF 6
