REMARK  Name = ZINC60292071
REMARK  7 active torsions:
REMARK  status: ('A' for Active; 'I' for Inactive)
REMARK    1  A    between atoms: C_1  and  C_2
REMARK    2  A    between atoms: C_5  and  C_8
REMARK    3  A    between atoms: N_15  and  C_18
REMARK    4  A    between atoms: C_18  and  C_19
REMARK    5  A    between atoms: C_19  and  C_20
REMARK    6  A    between atoms: C_27  and  C_29
REMARK    7  A    between atoms: C_29  and  C_30
REMARK                            x       y       z     vdW  Elec       q    Type
REMARK                         _______ _______ _______ _____ _____    ______ ____
ROOT
ATOM      1  C   UNL     1       0.098  -5.349   0.130  0.00  0.00    +0.004 A 
ATOM      2  C   UNL     1      -0.748  -6.169  -0.539  0.00  0.00    +0.056 A 
ATOM      3  S   UNL     1      -0.228  -7.798  -0.035  0.00  0.00    -0.076 S 
ATOM      4  C   UNL     1       1.099  -7.344   1.051  0.00  0.00    +0.116 A 
ATOM      5  C   UNL     1       1.112  -5.941   0.994  0.00  0.00    +0.080 A 
ATOM      6  C   UNL     1       2.112  -5.297   1.791  0.00  0.00    +0.263 A 
ATOM      7  O   UNL     1       2.199  -4.081   1.810  0.00  0.00    -0.267 OA
ATOM      8  N   UNL     1       2.953  -6.054   2.519  0.00  0.00    -0.298 N 
ATOM      9  C   UNL     1       2.870  -7.409   2.509  0.00  0.00    +0.203 A 
ATOM     10  N   UNL     1       1.962  -8.025   1.801  0.00  0.00    -0.230 NA
ENDROOT
BRANCH   1  15
ATOM     11  C   UNL     1      -0.295   0.367  -0.442  0.00  0.00    +0.044 C 
ATOM     12  C   UNL     1      -0.192  -1.129  -0.292  0.00  0.00    -0.050 A 
ATOM     13  C   UNL     1      -0.152  -1.933  -1.417  0.00  0.00    +0.004 A 
ATOM     14  C   UNL     1      -0.058  -3.303  -1.286  0.00  0.00    +0.009 A 
ATOM     15  C   UNL     1      -0.003  -3.877  -0.017  0.00  0.00    -0.017 A 
ATOM     16  C   UNL     1      -0.043  -3.062   1.113  0.00  0.00    +0.009 A 
ATOM     17  C   UNL     1      -0.132  -1.692   0.970  0.00  0.00    +0.004 A 
ENDBRANCH   1  15
BRANCH   8  18
ATOM     18  C   UNL     1       3.979  -5.403   3.338  0.00  0.00    +0.135 C 
BRANCH  18  19
ATOM     19  C   UNL     1       3.418  -5.128   4.734  0.00  0.00    +0.117 C 
BRANCH  19  20
ATOM     20  C   UNL     1       4.473  -4.458   5.576  0.00  0.00    +0.218 C 
ATOM     21  O   UNL     1       5.566  -4.224   5.106  0.00  0.00    -0.276 OA
ATOM     22  N   UNL     1       4.202  -4.120   6.853  0.00  0.00    -0.298 N 
ATOM     23  C   UNL     1       2.854  -4.305   7.406  0.00  0.00    +0.108 C 
ATOM     24  C   UNL     1       2.958  -5.127   8.694  0.00  0.00    +0.019 C 
ATOM     25  C   UNL     1       3.942  -4.449   9.650  0.00  0.00    +0.003 C 
ATOM     26  C   UNL     1       5.327  -4.389   9.001  0.00  0.00    +0.023 C 
ATOM     27  C   UNL     1       5.251  -3.564   7.718  0.00  0.00    +0.085 C 
BRANCH  27  28
ATOM     28  C   UNL     1       6.598  -3.621   6.994  0.00  0.00    +0.118 C 
BRANCH  28  29
ATOM     29  C   UNL     1       6.666  -2.515   5.973  0.00  0.00    +0.212 C 
ATOM     30  O   UNL     1       5.729  -1.756   5.837  0.00  0.00    -0.276 OA
ATOM     31  N   UNL     1       7.767  -2.369   5.209  0.00  0.00    -0.329 N 
ATOM     32  H   UNL     1       8.516  -2.976   5.317  0.00  0.00    +0.145 HD
ATOM     33  H   UNL     1       7.811  -1.657   4.552  0.00  0.00    +0.145 HD
ENDBRANCH  28  29
ENDBRANCH  27  28
ENDBRANCH  19  20
ENDBRANCH  18  19
ENDBRANCH   8  18
TORSDOF 6
