REMARK  Name = ZINC37929269
REMARK  4 active torsions:
REMARK  status: ('A' for Active; 'I' for Inactive)
REMARK    1  A    between atoms: C_3  and  N_19
REMARK    2  A    between atoms: C_4  and  S_8
REMARK    3  A    between atoms: S_8  and  N_11
REMARK    4  A    between atoms: N_11  and  C_12
REMARK                            x       y       z     vdW  Elec       q    Type
REMARK                         _______ _______ _______ _____ _____    ______ ____
ROOT
ATOM      1  S   UNL     1       3.932  -0.844  -0.041  0.00  0.00    +0.095 S 
ATOM      2  O   UNL     1       4.736  -0.268   0.980  0.00  0.00    -0.148 OA
ATOM      3  O   UNL     1       3.618  -2.229  -0.072  0.00  0.00    -0.148 OA
ENDROOT
BRANCH   1   7
ATOM      4  C   UNL     1      -0.017   1.379   0.010  0.00  0.00    +0.022 A 
ATOM      5  C   UNL     1       1.169   2.087   0.002  0.00  0.00    +0.026 A 
ATOM      6  C   UNL     1       2.381   1.410  -0.013  0.00  0.00    +0.052 A 
ATOM      7  C   UNL     1       2.397   0.021  -0.021  0.00  0.00    +0.132 A 
ATOM      8  C   UNL     1       1.208  -0.682  -0.013  0.00  0.00    +0.050 A 
ATOM      9  C   UNL     1       0.002  -0.004   0.002  0.00  0.00    +0.043 A 
ATOM     10 CL   UNL     1      -1.490  -0.891   0.011  0.00  0.00    -0.083 Cl
BRANCH   6  11
ATOM     11  N   UNL     1       3.583   2.123  -0.021  0.00  0.00    -0.356 N 
ATOM     12  H   UNL     1       3.570   3.093  -0.016  0.00  0.00    +0.142 HD
ATOM     13  H   UNL     1       4.428   1.649  -0.032  0.00  0.00    +0.142 HD
ENDBRANCH   6  11
ENDBRANCH   1   7
BRANCH   1  14
ATOM     14  N   UNL     1       4.673  -0.494  -1.480  0.00  0.00    -0.078 NA
BRANCH  14  15
ATOM     15  C   UNL     1       5.915  -1.044  -1.775  0.00  0.00    +0.163 A 
ATOM     16  C   UNL     1       6.534  -0.741  -2.983  0.00  0.00    +0.048 A 
ATOM     17  C   UNL     1       7.770  -1.294  -3.264  0.00  0.00    +0.025 A 
ATOM     18  C   UNL     1       8.349  -2.136  -2.322  0.00  0.00    +0.059 A 
ATOM     19  C   UNL     1       7.678  -2.393  -1.142  0.00  0.00    +0.133 A 
ATOM     20  N   UNL     1       6.501  -1.847  -0.900  0.00  0.00    -0.236 NA
ATOM     21 CL   UNL     1       9.899  -2.857  -2.624  0.00  0.00    -0.082 Cl
ENDBRANCH  14  15
ENDBRANCH   1  14
TORSDOF 4
