REMARK  Name = ZINC49201327
REMARK  12 active torsions:
REMARK  status: ('A' for Active; 'I' for Inactive)
REMARK    1  A    between atoms: C_1  and  C_2
REMARK    2  A    between atoms: C_2  and  N_3
REMARK    3  A    between atoms: C_4  and  C_6
REMARK    4  A    between atoms: C_6  and  C_8
REMARK    5  A    between atoms: C_6  and  N_9
REMARK    6  A    between atoms: N_9  and  C_10
REMARK    7  A    between atoms: C_10  and  C_11
REMARK    8  A    between atoms: C_11  and  C_13
REMARK    9  A    between atoms: C_11  and  O_23
REMARK   10  A    between atoms: C_13  and  O_14
REMARK   11  A    between atoms: O_14  and  C_15
REMARK   12  A    between atoms: C_18  and  C_22
REMARK                            x       y       z     vdW  Elec       q    Type
REMARK                         _______ _______ _______ _____ _____    ______ ____
ROOT
ATOM      1  C   UNL     1       2.363  -5.756  -3.826  0.00  0.00    +0.135 C 
ENDROOT
BRANCH   1   2
ATOM      2  O   UNL     1       2.950  -6.231  -2.613  0.00  0.00    -0.390 OA
ATOM      3  H   UNL     1       3.860  -5.934  -2.474  0.00  0.00    +0.210 HD
ENDBRANCH   1   2
BRANCH   1   4
ATOM      4  C   UNL     1       2.342  -4.226  -3.818  0.00  0.00    -0.046 C 
BRANCH   4   5
ATOM      5  N   UNL     1       1.552  -3.753  -2.673  0.00  0.00    +0.388 N 
ATOM      6  H   UNL     1       1.967  -4.089  -1.817  0.00  0.00    -0.085 HD
ATOM      7  H   UNL     1       0.608  -4.102  -2.749  0.00  0.00    -0.085 HD
BRANCH   5   8
ATOM      8  C   UNL     1       1.532  -2.285  -2.665  0.00  0.00    +0.013 C 
ATOM      9  C   UNL     1       0.792  -1.778  -3.904  0.00  0.00    -0.004 C 
BRANCH   8  11
ATOM     10  N   UNL     1       0.688  -0.476  -1.203  0.00  0.00    -0.317 N 
ATOM     11  C   UNL     1       0.827  -1.799  -1.425  0.00  0.00    +0.199 C 
ATOM     12  O   UNL     1       0.384  -2.597  -0.627  0.00  0.00    -0.278 OA
ATOM     13  H   UNL     1       1.042   0.162  -1.842  0.00  0.00    +0.149 HD
BRANCH  10  15
ATOM     14  C   UNL     1      -0.019   1.526   0.010  0.00  0.00    +0.024 C 
ATOM     15  C   UNL     1       0.002  -0.004   0.002  0.00  0.00    +0.101 C 
ENDBRANCH  10  15
ENDBRANCH   8  11
ENDBRANCH   5   8
ENDBRANCH   4   5
ENDBRANCH   1   4
BRANCH   1  16
ATOM     16  C   UNL     1       3.186  -6.248  -5.018  0.00  0.00    +0.258 C 
BRANCH  16  17
ATOM     17  O   UNL     1       3.109  -7.673  -5.094  0.00  0.00    -0.488 OA
BRANCH  17  18
ATOM     18  C   UNL     1       3.790  -8.275  -6.105  0.00  0.00    +0.135 A 
ATOM     19  C   UNL     1       4.521  -7.510  -7.002  0.00  0.00    +0.047 A 
ATOM     20  C   UNL     1       5.212  -8.124  -8.029  0.00  0.00    +0.007 A 
ATOM     21  C   UNL     1       5.176  -9.500  -8.163  0.00  0.00    -0.049 A 
ATOM     22  C   UNL     1       4.448 -10.265  -7.271  0.00  0.00    +0.022 A 
ATOM     23  C   UNL     1       3.760  -9.656  -6.238  0.00  0.00    +0.060 A 
ATOM     24 BR   UNL     1       2.771 -10.704  -5.013  0.00  0.00    -0.047 Br
ATOM     25  C   UNL     1       5.931 -10.166  -9.284  0.00  0.00    +0.044 C 
ENDBRANCH  17  18
ENDBRANCH  16  17
ENDBRANCH   1  16
TORSDOF 9
