REMARK  Name = ZINC19508726
REMARK  2 active torsions:
REMARK  status: ('A' for Active; 'I' for Inactive)
REMARK    1  A    between atoms: N_5  and  C_9
REMARK    2  A    between atoms: C_9  and  C_10
REMARK                            x       y       z     vdW  Elec       q    Type
REMARK                         _______ _______ _______ _____ _____    ______ ____
ROOT
ATOM      1  C   UNL     1       0.002  -0.004   0.002  0.00  0.00    +0.079 A 
ATOM      2  C   UNL     1       1.186  -0.642  -0.013  0.00  0.00    +0.077 A 
ATOM      3  C   UNL     1       2.431   0.155  -0.020  0.00  0.00    +0.268 A 
ATOM      4  O   UNL     1       3.510  -0.404  -0.034  0.00  0.00    -0.266 OA
ATOM      5  N   UNL     1       2.370   1.500  -0.013  0.00  0.00    -0.212 N 
ATOM      6  N   UNL     1       1.139   2.163   0.003  0.00  0.00    -0.125 NA
ATOM      7  C   UNL     1      -0.018   1.474   0.010  0.00  0.00    +0.287 A 
ATOM      8  O   UNL     1      -1.079   2.067   0.018  0.00  0.00    -0.264 OA
ENDROOT
BRANCH   5   9
ATOM      9  C   UNL     1       3.610   2.279  -0.020  0.00  0.00    +0.265 C 
BRANCH   9  10
ATOM     10  C   UNL     1       4.013   2.548  -1.410  0.00  0.00    +0.086 C 
ATOM     11  N   UNL     1       4.323   2.755  -2.483  0.00  0.00    -0.195 NA
ENDBRANCH   9  10
ENDBRANCH   5   9
TORSDOF 2
