REMARK  Name = ZINC00683317
REMARK  7 active torsions:
REMARK  status: ('A' for Active; 'I' for Inactive)
REMARK    1  A    between atoms: C_1  and  C_2
REMARK    2  A    between atoms: C_2  and  O_3
REMARK    3  A    between atoms: O_3  and  C_4
REMARK    4  A    between atoms: C_4  and  C_6
REMARK    5  A    between atoms: C_7  and  C_26
REMARK    6  A    between atoms: C_12  and  C_14
REMARK    7  A    between atoms: C_17  and  C_19
REMARK                            x       y       z     vdW  Elec       q    Type
REMARK                         _______ _______ _______ _____ _____    ______ ____
ROOT
ATOM      1  C   UNL     1       0.974   3.245  -0.548  0.00  0.00    +0.086 C 
ATOM      2  C   UNL     1      -0.136   3.781   0.042  0.00  0.00    +0.052 C 
ATOM      3  N   UNL     1      -1.091   2.972   0.607  0.00  0.00    -0.296 N 
ATOM      4  C   UNL     1      -1.015   1.635   0.620  0.00  0.00    +0.135 C 
ATOM      5  S   UNL     1      -2.280   0.744   1.352  0.00  0.00    -0.019 S 
ATOM      6  N   UNL     1       0.024   0.967   0.083  0.00  0.00    -0.312 N 
ATOM      7  C   UNL     1       1.107   1.736  -0.552  0.00  0.00    +0.177 C 
ATOM      8  H   UNL     1      -1.865   3.391   1.015  0.00  0.00    +0.154 HD
ATOM      9  H   UNL     1       0.055  -0.002   0.110  0.00  0.00    +0.149 HD
ENDROOT
BRANCH   2  10
ATOM     10  C   UNL     1      -0.310   5.247   0.071  0.00  0.00    -0.003 A 
ATOM     11  C   UNL     1       0.594   6.048   0.772  0.00  0.00    +0.010 A 
ATOM     12  C   UNL     1       0.428   7.417   0.792  0.00  0.00    +0.001 A 
ATOM     13  C   UNL     1      -0.639   7.997   0.127  0.00  0.00    +0.000 A 
ATOM     14  C   UNL     1      -1.542   7.209  -0.565  0.00  0.00    +0.001 A 
ATOM     15  C   UNL     1      -1.384   5.839  -0.597  0.00  0.00    +0.010 A 
ENDBRANCH   2  10
BRANCH   7  16
ATOM     16  C   UNL     1       2.396   1.381   0.143  0.00  0.00    +0.131 A 
ATOM     17  C   UNL     1       3.588   1.197  -0.458  0.00  0.00    +0.047 A 
ATOM     18  C   UNL     1       4.517   0.884   0.554  0.00  0.00    +0.050 A 
ATOM     19  C   UNL     1       3.834   0.894   1.730  0.00  0.00    +0.135 A 
ATOM     20  O   UNL     1       2.550   1.203   1.466  0.00  0.00    -0.457 OA
BRANCH  19  21
ATOM     21  C   UNL     1       4.403   0.620   3.066  0.00  0.00    +0.017 A 
ATOM     22  C   UNL     1       5.757   0.310   3.201  0.00  0.00    +0.012 A 
ATOM     23  C   UNL     1       6.283   0.059   4.451  0.00  0.00    +0.016 A 
ATOM     24  C   UNL     1       5.468   0.104   5.570  0.00  0.00    +0.018 A 
ATOM     25  C   UNL     1       4.123   0.406   5.442  0.00  0.00    +0.016 A 
ATOM     26  C   UNL     1       3.586   0.664   4.198  0.00  0.00    +0.012 A 
ATOM     27 BR   UNL     1       6.196  -0.248   7.279  0.00  0.00    -0.050 Br
ENDBRANCH  19  21
ENDBRANCH   7  16
BRANCH   1  28
ATOM     28  C   UNL     1       1.959   4.066  -1.131  0.00  0.00    +0.339 C 
ATOM     29  O   UNL     1       1.778   5.267  -1.217  0.00  0.00    -0.245 OA
BRANCH  28  30
ATOM     30  O   UNL     1       3.104   3.521  -1.594  0.00  0.00    -0.462 OA
BRANCH  30  32
ATOM     31  C   UNL     1       5.282   3.619  -2.637  0.00  0.00    +0.048 C 
ATOM     32  C   UNL     1       4.059   4.413  -2.173  0.00  0.00    +0.229 C 
ENDBRANCH  30  32
ENDBRANCH  28  30
ENDBRANCH   1  28
TORSDOF 6
