REMARK  Name = ZINC14650271
REMARK  11 active torsions:
REMARK  status: ('A' for Active; 'I' for Inactive)
REMARK    1  A    between atoms: C_1  and  C_2
REMARK    2  A    between atoms: C_2  and  C_3
REMARK    3  A    between atoms: C_3  and  C_4
REMARK    4  A    between atoms: C_4  and  O_5
REMARK    5  A    between atoms: O_5  and  C_6
REMARK    6  A    between atoms: C_11  and  C_12
REMARK    7  A    between atoms: N_14  and  C_15
REMARK    8  A    between atoms: C_15  and  N_17
REMARK    9  A    between atoms: N_17  and  N_18
REMARK   10  A    between atoms: C_19  and  C_21
REMARK   11  A    between atoms: C_26  and  N_27
REMARK                            x       y       z     vdW  Elec       q    Type
REMARK                         _______ _______ _______ _____ _____    ______ ____
ROOT
ATOM      1  C   UNL     1       5.243  -2.743  -7.136  0.00  0.00    +0.153 C 
ATOM      2  S   UNL     1       5.351  -1.034  -7.132  0.00  0.00    -0.017 S 
ENDROOT
BRANCH   1   5
ATOM      3  C   UNL     1       4.715  -2.715  -4.862  0.00  0.00    +0.253 C 
ATOM      4  O   UNL     1       4.792  -1.502  -4.859  0.00  0.00    -0.270 OA
ATOM      5  N   UNL     1       4.936  -3.401  -6.001  0.00  0.00    -0.263 N 
ATOM      6  H   UNL     1       4.875  -4.370  -6.003  0.00  0.00    +0.157 HD
BRANCH   3  12
ATOM      7  C   UNL     1       4.149  -2.726  -2.434  0.00  0.00    +0.133 A 
ATOM      8  C   UNL     1       3.828  -3.413  -1.272  0.00  0.00    +0.047 A 
ATOM      9  C   UNL     1       3.743  -4.791  -1.285  0.00  0.00    +0.019 A 
ATOM     10  C   UNL     1       3.976  -5.497  -2.454  0.00  0.00    +0.019 A 
ATOM     11  C   UNL     1       4.296  -4.830  -3.618  0.00  0.00    +0.032 A 
ATOM     12  C   UNL     1       4.380  -3.436  -3.620  0.00  0.00    +0.080 A 
ATOM     13 BR   UNL     1       3.856  -7.385  -2.454  0.00  0.00    -0.050 Br
BRANCH   7  14
ATOM     14  O   UNL     1       4.234  -1.372  -2.422  0.00  0.00    -0.491 OA
BRANCH  14  15
ATOM     15  C   UNL     1       3.986  -0.716  -1.177  0.00  0.00    +0.229 C 
BRANCH  15  16
ATOM     16  C   UNL     1       4.126   0.796  -1.360  0.00  0.00    +0.041 C 
BRANCH  16  18
ATOM     17  C   UNL     1       4.001   3.010  -0.209  0.00  0.00    +0.004 C 
ATOM     18  C   UNL     1       3.860   1.498  -0.026  0.00  0.00    -0.000 C 
ENDBRANCH  16  18
ENDBRANCH  15  16
ENDBRANCH  14  15
ENDBRANCH   7  14
ENDBRANCH   3  12
ENDBRANCH   1   5
BRANCH   1  19
ATOM     19  N   UNL     1       5.464  -3.429  -8.274  0.00  0.00    -0.245 N 
ATOM     20  H   UNL     1       5.684  -2.955  -9.091  0.00  0.00    +0.172 HD
BRANCH  19  21
ATOM     21  N   UNL     1       5.375  -4.827  -8.278  0.00  0.00    -0.231 N 
ATOM     22  C   UNL     1       5.596  -5.514  -9.416  0.00  0.00    +0.262 C 
ATOM     23  O   UNL     1       5.872  -4.920 -10.440  0.00  0.00    -0.269 OA
ATOM     24  H   UNL     1       5.154  -5.301  -7.461  0.00  0.00    +0.173 HD
BRANCH  22  25
ATOM     25  C   UNL     1       5.502  -6.989  -9.420  0.00  0.00    +0.068 A 
ATOM     26  C   UNL     1       6.259  -7.742  -8.520  0.00  0.00    +0.015 A 
ATOM     27  C   UNL     1       6.167  -9.118  -8.529  0.00  0.00    +0.001 A 
ATOM     28  C   UNL     1       5.327  -9.753  -9.427  0.00  0.00    +0.002 A 
ATOM     29  C   UNL     1       4.574  -9.013 -10.321  0.00  0.00    +0.033 A 
ATOM     30  C   UNL     1       4.653  -7.636 -10.319  0.00  0.00    +0.138 A 
BRANCH  30  31
ATOM     31  N   UNL     1       3.842  -6.845 -11.273  0.00  0.00    +0.057 N 
ATOM     32  O   UNL     1       3.201  -7.405 -12.131  0.00  0.00    -0.126 OA
ATOM     33  O   UNL     1       3.820  -5.639 -11.193  0.00  0.00    -0.126 OA
ENDBRANCH  30  31
ENDBRANCH  22  25
ENDBRANCH  19  21
ENDBRANCH   1  19
TORSDOF 10
