REMARK  Name = ZINC20209407
REMARK  12 active torsions:
REMARK  status: ('A' for Active; 'I' for Inactive)
REMARK    1  A    between atoms: C_1  and  C_2
REMARK    2  A    between atoms: C_2  and  C_3
REMARK    3  A    between atoms: C_6  and  C_10
REMARK    4  A    between atoms: C_7  and  C_9
REMARK    5  A    between atoms: C_10  and  N_11
REMARK    6  A    between atoms: C_17  and  S_23
REMARK    7  A    between atoms: C_18  and  C_19
REMARK    8  A    between atoms: C_19  and  O_21
REMARK    9  A    between atoms: O_21  and  C_22
REMARK   10  A    between atoms: S_23  and  N_26
REMARK   11  A    between atoms: N_26  and  C_27
REMARK   12  A    between atoms: C_27  and  C_28
REMARK                            x       y       z     vdW  Elec       q    Type
REMARK                         _______ _______ _______ _____ _____    ______ ____
ROOT
ATOM      1  N   UNL     1      -0.718   1.570  -1.187  0.00  0.00    -0.292 NA
ATOM      2  C   UNL     1      -0.013   1.086   0.008  0.00  0.00    +0.090 C 
ATOM      3  C   UNL     1      -0.724   1.577   1.272  0.00  0.00    +0.052 C 
ATOM      4  C   UNL     1      -2.198   1.218   1.161  0.00  0.00    -0.019 A 
ATOM      5  C   UNL     1      -2.730   0.906  -0.045  0.00  0.00    +0.010 A 
ATOM      6  S   UNL     1      -4.432   0.563   0.294  0.00  0.00    -0.071 S 
ATOM      7  C   UNL     1      -4.433   0.833   2.006  0.00  0.00    +0.157 A 
ATOM      8  C   UNL     1      -3.125   1.179   2.273  0.00  0.00    +0.096 A 
ATOM      9  C   UNL     1      -2.006   0.869  -1.353  0.00  0.00    +0.127 C 
ENDROOT
BRANCH   7  10
ATOM     10  S   UNL     1      -5.781   0.698   3.134  0.00  0.00    +0.065 S 
ATOM     11  O   UNL     1      -5.876  -0.674   3.490  0.00  0.00    -0.153 OA
ATOM     12  O   UNL     1      -5.607   1.726   4.099  0.00  0.00    -0.153 OA
BRANCH  10  13
ATOM     13  N   UNL     1      -7.160   1.066   2.294  0.00  0.00    -0.189 NA
ATOM     14  H   UNL     1      -7.643   2.041   2.455  0.00  0.00    +0.148 HD
BRANCH  13  15
ATOM     15  C   UNL     1      -7.604   0.201   1.198  0.00  0.00    +0.109 C 
BRANCH  15  16
ATOM     16  C   UNL     1      -9.055   0.530   0.844  0.00  0.00    +0.005 C 
ATOM     17  C   UNL     1      -9.960   0.181   2.027  0.00  0.00    +0.005 C 
ATOM     18  C   UNL     1     -11.412   0.510   1.673  0.00  0.00    +0.000 C 
ATOM     19  C   UNL     1     -11.836  -0.304   0.449  0.00  0.00    +0.000 C 
ATOM     20  C   UNL     1     -10.930   0.044  -0.734  0.00  0.00    +0.000 C 
ATOM     21  C   UNL     1      -9.479  -0.285  -0.380  0.00  0.00    +0.005 C 
ENDBRANCH  15  16
ENDBRANCH  13  15
ENDBRANCH  10  13
ENDBRANCH   7  10
BRANCH   8  22
ATOM     22  C   UNL     1      -2.687   1.498   3.640  0.00  0.00    +0.342 C 
ATOM     23  O   UNL     1      -2.741   2.643   4.044  0.00  0.00    -0.245 OA
BRANCH  22  24
ATOM     24  O   UNL     1      -2.224   0.521   4.445  0.00  0.00    -0.464 OA
ATOM     25  C   UNL     1      -1.809   0.908   5.781  0.00  0.00    +0.280 C 
ENDBRANCH  22  24
ENDBRANCH   8  22
BRANCH   1  26
ATOM     26  C   UNL     1       0.118   1.427  -2.386  0.00  0.00    +0.139 C 
BRANCH  26  30
ATOM     27  C   UNL     1      -1.659   2.588  -5.362  0.00  0.00    +0.084 A 
ATOM     28  N   UNL     1      -1.271   1.587  -4.542  0.00  0.00    -0.346 N 
ATOM     29  H   UNL     1      -1.569   0.551  -4.760  0.00  0.00    +0.167 HD
ATOM     30  C   UNL     1      -0.529   2.151  -3.539  0.00  0.00    +0.051 A 
ATOM     31  C   UNL     1      -0.494   3.475  -3.777  0.00  0.00    +0.035 A 
ATOM     32  N   UNL     1      -1.188   3.714  -4.899  0.00  0.00    -0.347 N 
ATOM     33  C   UNL     1       0.205   4.509  -2.932  0.00  0.00    +0.065 C 
ATOM     34  H   UNL     1      -1.392   4.655  -5.431  0.00  0.00    +0.167 HD
BRANCH  27  36
ATOM     35  C   UNL     1      -3.724   3.340  -6.511  0.00  0.00    +0.012 C 
ATOM     36  C   UNL     1      -2.497   2.431  -6.604  0.00  0.00    +0.069 C 
ENDBRANCH  27  36
ENDBRANCH  26  30
ENDBRANCH   1  26
TORSDOF 9
