REMARK  Name = ZINC03885577
REMARK  6 active torsions:
REMARK  status: ('A' for Active; 'I' for Inactive)
REMARK    1  A    between atoms: C_4  and  C_7
REMARK    2  A    between atoms: C_8  and  C_19
REMARK    3  A    between atoms: N_10  and  C_13
REMARK    4  A    between atoms: C_11  and  N_12
REMARK    5  A    between atoms: C_19  and  S_20
REMARK    6  A    between atoms: S_20  and  C_21
REMARK                            x       y       z     vdW  Elec       q    Type
REMARK                         _______ _______ _______ _____ _____    ______ ____
ROOT
ATOM      1  C   UNL     1       7.511   4.941  -1.184  0.00  0.00    +0.045 A 
ATOM      2  C   UNL     1       6.716   4.763  -0.035  0.00  0.00    +0.083 A 
ATOM      3  N   UNL     1       7.471   4.922   1.019  0.00  0.00    -0.168 NA
ATOM      4  N   UNL     1       8.780   5.199   0.604  0.00  0.00    -0.218 N 
ATOM      5  C   UNL     1       8.799   5.213  -0.755  0.00  0.00    +0.128 A 
ENDROOT
BRANCH   1   9
ATOM      6  C   UNL     1       6.199   4.690  -5.220  0.00  0.00    +0.000 A 
ATOM      7  C   UNL     1       6.654   5.895  -4.717  0.00  0.00    +0.001 A 
ATOM      8  C   UNL     1       7.082   5.983  -3.408  0.00  0.00    +0.008 A 
ATOM      9  C   UNL     1       7.053   4.854  -2.591  0.00  0.00    -0.013 A 
ATOM     10  C   UNL     1       6.598   3.640  -3.105  0.00  0.00    +0.008 A 
ATOM     11  C   UNL     1       6.168   3.566  -4.414  0.00  0.00    +0.001 A 
ENDBRANCH   1   9
BRANCH   4  12
ATOM     12  C   UNL     1       9.877   5.428   1.445  0.00  0.00    +0.067 A 
ATOM     13  C   UNL     1      11.142   4.991   1.072  0.00  0.00    +0.028 A 
ATOM     14  C   UNL     1      12.223   5.223   1.900  0.00  0.00    +0.002 A 
ATOM     15  C   UNL     1      12.045   5.878   3.104  0.00  0.00    +0.000 A 
ATOM     16  C   UNL     1      10.786   6.309   3.481  0.00  0.00    +0.002 A 
ATOM     17  C   UNL     1       9.702   6.086   2.655  0.00  0.00    +0.028 A 
ENDBRANCH   4  12
BRANCH   5  18
ATOM     18  N   UNL     1       9.902   5.454  -1.562  0.00  0.00    -0.343 N 
ATOM     19  H   UNL     1       9.810   5.441  -2.527  0.00  0.00    +0.144 HD
ATOM     20  H   UNL     1      10.767   5.635  -1.160  0.00  0.00    +0.144 HD
ENDBRANCH   5  18
BRANCH   2  21
ATOM     21  C   UNL     1       5.242   4.449  -0.023  0.00  0.00    +0.135 C 
BRANCH  21  22
ATOM     22  S   UNL     1       5.008   2.654  -0.030  0.00  0.00    -0.082 S 
BRANCH  22  23
ATOM     23  C   UNL     1       3.248   2.575  -0.015  0.00  0.00    +0.168 A 
ATOM     24  N   UNL     1       2.514   1.422  -0.014  0.00  0.00    -0.333 N 
ATOM     25  H   UNL     1       2.874   0.489  -0.022  0.00  0.00    +0.168 HD
ATOM     26  C   UNL     1       1.178   1.787   0.000  0.00  0.00    +0.067 A 
ATOM     27  C   UNL     1      -0.013   1.076   0.008  0.00  0.00    +0.028 A 
ATOM     28  C   UNL     1      -1.216   1.751   0.017  0.00  0.00    +0.002 A 
ATOM     29  C   UNL     1      -1.243   3.138   0.030  0.00  0.00    +0.002 A 
ATOM     30  C   UNL     1      -0.071   3.860   0.023  0.00  0.00    +0.030 A 
ATOM     31  C   UNL     1       1.156   3.191   0.008  0.00  0.00    +0.090 A 
ATOM     32  N   UNL     1       2.448   3.612  -0.001  0.00  0.00    -0.222 NA
ENDBRANCH  22  23
ENDBRANCH  21  22
ENDBRANCH   2  21
TORSDOF 6
