REMARK  Name = ZINC13400446
REMARK  5 active torsions:
REMARK  status: ('A' for Active; 'I' for Inactive)
REMARK    1  A    between atoms: C_1  and  C_2
REMARK    2  A    between atoms: C_12  and  C_14
REMARK    3  A    between atoms: C_12  and  O_16
REMARK    4  A    between atoms: C_20  and  C_27
REMARK    5  A    between atoms: C_23  and  O_26
REMARK                            x       y       z     vdW  Elec       q    Type
REMARK                         _______ _______ _______ _____ _____    ______ ____
ROOT
ATOM      1  C   UNL     1       0.341   1.865  -0.247  0.00  0.00    +0.011 C 
ATOM      2  C   UNL     1      -0.440   2.111   1.045  0.00  0.00    -0.025 C 
ATOM      3  C   UNL     1       0.332   1.539   2.211  0.00  0.00    +0.007 C 
ATOM      4  C   UNL     1      -0.351   1.875   3.534  0.00  0.00    +0.005 C 
ATOM      5  C   UNL     1      -0.419   3.401   3.681  0.00  0.00    +0.003 C 
ATOM      6  C   UNL     1      -1.284   3.967   2.555  0.00  0.00    +0.000 C 
ATOM      7  C   UNL     1      -0.724   3.614   1.187  0.00  0.00    +0.002 C 
ATOM      8  C   UNL     1      -1.873   3.848   0.168  0.00  0.00    +0.052 C 
ATOM      9  C   UNL     1      -2.601   2.498   0.022  0.00  0.00    +0.127 C 
ATOM     10  C   UNL     1      -1.848   1.502   0.910  0.00  0.00    +0.055 C 
ATOM     11  C   UNL     1      -1.301   5.498   2.679  0.00  0.00    +0.031 C 
ATOM     12  C   UNL     1      -1.706   5.896   4.066  0.00  0.00    -0.027 C 
ATOM     13  C   UNL     1      -1.600   5.116   5.094  0.00  0.00    -0.065 C 
ATOM     14  C   UNL     1      -1.051   3.718   5.032  0.00  0.00    -0.008 C 
ATOM     15  C   UNL     1      -2.162   2.724   5.362  0.00  0.00    +0.014 C 
ATOM     16  C   UNL     1      -3.194   3.378   6.280  0.00  0.00    +0.032 C 
ATOM     17  C   UNL     1      -2.531   4.365   7.239  0.00  0.00    +0.119 C 
ATOM     18  C   UNL     1      -2.064   5.603   6.458  0.00  0.00    +0.062 C 
ATOM     19  C   UNL     1       0.028   3.580   6.109  0.00  0.00    +0.016 C 
ENDROOT
BRANCH   9  20
ATOM     20  C   UNL     1      -2.564   2.055  -1.381  0.00  0.00    -0.071 C 
ATOM     21  C   UNL     1      -2.536   1.701  -2.501  0.00  0.00    +0.007 C 
ENDBRANCH   9  20
BRANCH   9  22
ATOM     22  O   UNL     1      -3.955   2.622   0.461  0.00  0.00    -0.377 OA
ATOM     23  H   UNL     1      -4.477   3.257  -0.048  0.00  0.00    +0.211 HD
ENDBRANCH   9  22
BRANCH  17  24
ATOM     24  O   UNL     1      -3.470   4.761   8.240  0.00  0.00    -0.391 OA
ATOM     25  H   UNL     1      -3.117   5.389   8.885  0.00  0.00    +0.210 HD
ENDBRANCH  17  24
TORSDOF 3
