REMARK  Name = ZINC12412571
REMARK  9 active torsions:
REMARK  status: ('A' for Active; 'I' for Inactive)
REMARK    1  A    between atoms: C_1  and  C_2
REMARK    2  A    between atoms: C_2  and  O_3
REMARK    3  A    between atoms: O_3  and  C_4
REMARK    4  A    between atoms: C_4  and  C_6
REMARK    5  A    between atoms: C_7  and  C_23
REMARK    6  A    between atoms: C_12  and  C_14
REMARK    7  A    between atoms: C_23  and  N_24
REMARK    8  A    between atoms: N_27  and  C_30
REMARK    9  A    between atoms: C_33  and  N_36
REMARK                            x       y       z     vdW  Elec       q    Type
REMARK                         _______ _______ _______ _____ _____    ______ ____
ROOT
ATOM      1  C   UNL     1      -0.002  -0.005  -0.043  0.00  0.00    +0.079 C 
ATOM      2  C   UNL     1       1.161  -0.686  -0.119  0.00  0.00    +0.038 C 
ATOM      3  N   UNL     1       1.183  -2.051  -0.076  0.00  0.00    -0.271 N 
ATOM      4  C   UNL     1       0.084  -2.808   0.032  0.00  0.00    +0.304 C 
ATOM      5  O   UNL     1       0.203  -4.017   0.058  0.00  0.00    -0.252 OA
ATOM      6  N   UNL     1      -1.150  -2.273   0.112  0.00  0.00    -0.288 N 
ATOM      7  C   UNL     1      -1.282  -0.806   0.080  0.00  0.00    +0.144 C 
ATOM      8  H   UNL     1       2.142  -2.587  -0.130  0.00  0.00    +0.156 HD
ATOM      9  H   UNL     1      -2.047  -2.904   0.200  0.00  0.00    +0.151 HD
ENDROOT
BRANCH   7  10
ATOM     10  C   UNL     1      -2.169  -0.446  -1.084  0.00  0.00    -0.019 A 
ATOM     11  C   UNL     1      -1.948  -1.018  -2.323  0.00  0.00    +0.009 A 
ATOM     12  C   UNL     1      -2.759  -0.691  -3.393  0.00  0.00    +0.050 A 
ATOM     13  C   UNL     1      -3.797   0.211  -3.226  0.00  0.00    +0.166 A 
ATOM     14  C   UNL     1      -4.021   0.787  -1.978  0.00  0.00    +0.167 A 
ATOM     15  C   UNL     1      -3.207   0.451  -0.909  0.00  0.00    +0.055 A 
ATOM     16  O   UNL     1      -5.089   1.631  -2.072  0.00  0.00    -0.453 OA
ATOM     17  C   UNL     1      -5.263   1.877  -3.480  0.00  0.00    +0.466 C 
ATOM     18  O   UNL     1      -4.726   0.695  -4.102  0.00  0.00    -0.453 OA
ENDBRANCH   7  10
BRANCH   1  19
ATOM     19  C   UNL     1      -0.026   1.409  -0.082  0.00  0.00    +0.339 C 
ATOM     20  O   UNL     1       0.995   2.028  -0.318  0.00  0.00    -0.245 OA
BRANCH  19  21
ATOM     21  O   UNL     1      -1.181   2.071   0.135  0.00  0.00    -0.462 OA
BRANCH  21  23
ATOM     22  C   UNL     1      -2.526   4.067   0.350  0.00  0.00    +0.048 C 
ATOM     23  C   UNL     1      -1.132   3.498   0.081  0.00  0.00    +0.229 C 
ENDBRANCH  21  23
ENDBRANCH  19  21
ENDBRANCH   1  19
BRANCH   2  24
ATOM     24  C   UNL     1       2.457   0.072  -0.249  0.00  0.00    +0.136 C 
BRANCH  24  25
ATOM     25  N   UNL     1       2.678   0.428  -1.657  0.00  0.00    -0.294 NA
ATOM     26  C   UNL     1       2.896  -0.773  -2.476  0.00  0.00    +0.103 C 
ATOM     27  C   UNL     1       3.041  -0.366  -3.944  0.00  0.00    +0.120 C 
ATOM     28  N   UNL     1       4.164   0.572  -4.081  0.00  0.00    -0.327 N 
ATOM     29  C   UNL     1       3.946   1.773  -3.262  0.00  0.00    +0.120 C 
ATOM     30  C   UNL     1       3.801   1.366  -1.794  0.00  0.00    +0.103 C 
BRANCH  28  31
ATOM     31  C   UNL     1       4.374   0.910  -5.419  0.00  0.00    +0.030 A 
ATOM     32  C   UNL     1       4.351   2.242  -5.813  0.00  0.00    +0.025 A 
ATOM     33  C   UNL     1       4.564   2.574  -7.136  0.00  0.00    +0.034 A 
ATOM     34  C   UNL     1       4.789   1.581  -8.072  0.00  0.00    +0.126 A 
ATOM     35  C   UNL     1       4.807   0.253  -7.685  0.00  0.00    +0.034 A 
ATOM     36  C   UNL     1       4.600  -0.085  -6.362  0.00  0.00    +0.025 A 
BRANCH  34  37
ATOM     37  N   UNL     1       5.011   1.939  -9.491  0.00  0.00    +0.056 N 
ATOM     38  O   UNL     1       5.208   1.065 -10.316  0.00  0.00    -0.126 OA
ATOM     39  O   UNL     1       4.995   3.108  -9.833  0.00  0.00    -0.126 OA
ENDBRANCH  34  37
ENDBRANCH  28  31
ENDBRANCH  24  25
ENDBRANCH   2  24
TORSDOF 8
