REMARK  Name = ZINC35828061
REMARK  10 active torsions:
REMARK  status: ('A' for Active; 'I' for Inactive)
REMARK    1  A    between atoms: C_1  and  C_2
REMARK    2  A    between atoms: C_4  and  C_33
REMARK    3  A    between atoms: C_9  and  C_19
REMARK    4  A    between atoms: C_12  and  C_15
REMARK    5  A    between atoms: C_15  and  C_16
REMARK    6  A    between atoms: C_16  and  S_17
REMARK    7  A    between atoms: S_17  and  C_18
REMARK    8  A    between atoms: N_21  and  C_22
REMARK    9  A    between atoms: C_25  and  O_28
REMARK   10  A    between atoms: O_28  and  C_29
REMARK                            x       y       z     vdW  Elec       q    Type
REMARK                         _______ _______ _______ _____ _____    ______ ____
ROOT
ATOM      1  C   UNL     1       0.336   1.701   0.079  0.00  0.00    +0.044 C 
ATOM      2  C   UNL     1       0.338   0.200  -0.046  0.00  0.00    -0.050 A 
ATOM      3  C   UNL     1       0.491  -0.392  -1.287  0.00  0.00    +0.008 A 
ATOM      4  C   UNL     1       0.495  -1.766  -1.408  0.00  0.00    -0.029 A 
ATOM      5  C   UNL     1       0.344  -2.569  -0.280  0.00  0.00    +0.039 A 
ATOM      6  C   UNL     1       0.189  -1.963   0.962  0.00  0.00    -0.027 A 
ATOM      7  C   UNL     1       0.193  -0.591   1.080  0.00  0.00    +0.008 A 
ATOM      8  C   UNL     1       0.048  -3.084   1.956  0.00  0.00    +0.049 C 
ATOM      9  C   UNL     1       1.161  -3.030   3.010  0.00  0.00    +0.076 C 
ATOM     10  C   UNL     1       0.420  -2.896   4.362  0.00  0.00    -0.004 C 
ATOM     11  C   UNL     1      -0.960  -2.324   3.947  0.00  0.00    -0.068 C 
ATOM     12  N   UNL     1      -1.243  -3.011   2.659  0.00  0.00    +0.394 N 
ATOM     13  C   UNL     1       0.146  -4.343   1.133  0.00  0.00    +0.211 C 
ATOM     14  O   UNL     1       0.085  -5.482   1.544  0.00  0.00    -0.277 OA
ATOM     15  N   UNL     1       0.315  -3.959  -0.146  0.00  0.00    -0.286 N 
ATOM     16  C   UNL     1       0.663  -2.400  -2.765  0.00  0.00    +0.045 C 
ATOM     17  H   UNL     1      -1.905  -2.477   2.117  0.00  0.00    -0.083 HD
ATOM     18  H   UNL     1       0.405  -4.576  -0.889  0.00  0.00    +0.155 HD
ATOM     19  H   UNL     1      -1.599  -3.940   2.831  0.00  0.00    -0.083 HD
ENDROOT
BRANCH   9  20
ATOM     20  C   UNL     1       1.975  -4.297   2.978  0.00  0.00    +0.220 C 
ATOM     21  O   UNL     1       1.686  -5.222   3.709  0.00  0.00    -0.275 OA
ATOM     22  N   UNL     1       3.024  -4.404   2.139  0.00  0.00    -0.285 N 
ATOM     23  H   UNL     1       3.295  -3.643   1.603  0.00  0.00    +0.155 HD
BRANCH  22  24
ATOM     24  C   UNL     1       3.723  -5.615   2.041  0.00  0.00    +0.034 A 
ATOM     25  C   UNL     1       4.237  -6.022   0.818  0.00  0.00    +0.027 A 
ATOM     26  C   UNL     1       4.926  -7.215   0.722  0.00  0.00    +0.047 A 
ATOM     27  C   UNL     1       5.103  -8.007   1.847  0.00  0.00    +0.120 A 
ATOM     28  C   UNL     1       4.589  -7.600   3.070  0.00  0.00    +0.047 A 
ATOM     29  C   UNL     1       3.905  -6.404   3.168  0.00  0.00    +0.027 A 
BRANCH  27  30
ATOM     30  O   UNL     1       5.781  -9.181   1.752  0.00  0.00    -0.495 OA
ATOM     31  C   UNL     1       5.926  -9.946   2.951  0.00  0.00    +0.277 C 
ENDBRANCH  27  30
ENDBRANCH  22  24
ENDBRANCH   9  20
BRANCH  11  32
ATOM     32  C   UNL     1      -2.023  -2.668   4.992  0.00  0.00    -0.005 C 
BRANCH  32  33
ATOM     33  C   UNL     1      -3.352  -2.018   4.601  0.00  0.00    +0.067 C 
BRANCH  33  34
ATOM     34  S   UNL     1      -4.612  -2.427   5.840  0.00  0.00    -0.164 S 
ATOM     35  C   UNL     1      -6.106  -1.591   5.238  0.00  0.00    +0.084 C 
ENDBRANCH  33  34
ENDBRANCH  32  33
ENDBRANCH  11  32
TORSDOF 6
