REMARK  Name = ZINC33960084
REMARK  10 active torsions:
REMARK  status: ('A' for Active; 'I' for Inactive)
REMARK    1  A    between atoms: C_1  and  C_2
REMARK    2  A    between atoms: N_5  and  S_11
REMARK    3  A    between atoms: C_7  and  C_10
REMARK    4  A    between atoms: S_11  and  C_14
REMARK    5  A    between atoms: C_18  and  C_20
REMARK    6  A    between atoms: N_25  and  N_26
REMARK    7  A    between atoms: C_27  and  C_28
REMARK    8  A    between atoms: C_31  and  N_34
REMARK    9  A    between atoms: N_34  and  C_35
REMARK   10  A    between atoms: N_34  and  C_36
REMARK                            x       y       z     vdW  Elec       q    Type
REMARK                         _______ _______ _______ _____ _____    ______ ____
ROOT
ATOM      1  C   UNL     1       4.515   5.158  -0.318  0.00  0.00    +0.080 A 
ATOM      2  C   UNL     1       4.313   6.470   0.005  0.00  0.00    +0.077 A 
ATOM      3  S   UNL     1       5.803   6.818   0.930  0.00  0.00    -0.059 S 
ATOM      4  C   UNL     1       6.535   5.193   0.793  0.00  0.00    +0.178 A 
ATOM      5  N   UNL     1       5.620   4.550   0.090  0.00  0.00    -0.224 NA
ATOM      6  N   UNL     1       7.739   4.730   1.296  0.00  0.00    -0.215 N 
ATOM      7  H   UNL     1       8.008   3.811   1.139  0.00  0.00    +0.176 HD
ENDROOT
BRANCH   1  12
ATOM      8  C   UNL     1       2.717   2.370  -2.086  0.00  0.00    +0.106 A 
ATOM      9  C   UNL     1       1.617   3.037  -2.595  0.00  0.00    +0.028 A 
ATOM     10  C   UNL     1       1.457   4.392  -2.365  0.00  0.00    +0.003 A 
ATOM     11  C   UNL     1       2.394   5.085  -1.627  0.00  0.00    +0.010 A 
ATOM     12  C   UNL     1       3.504   4.418  -1.112  0.00  0.00    +0.003 A 
ATOM     13  C   UNL     1       3.658   3.052  -1.342  0.00  0.00    +0.038 A 
BRANCH   8  14
ATOM     14  S   UNL     1       2.913   0.644  -2.384  0.00  0.00    +0.061 S 
ATOM     15  O   UNL     1       4.301   0.366  -2.258  0.00  0.00    -0.153 OA
ATOM     16  O   UNL     1       2.182   0.350  -3.566  0.00  0.00    -0.153 OA
BRANCH  14  20
ATOM     17  C   UNL     1      -0.009   1.482   0.045  0.00  0.00    +0.039 C 
ATOM     18  C   UNL     1       0.022  -0.048   0.024  0.00  0.00    +0.131 C 
ATOM     19  C   UNL     1       0.736  -0.529  -1.244  0.00  0.00    +0.140 C 
ATOM     20  N   UNL     1       2.156  -0.155  -1.147  0.00  0.00    -0.172 NA
ATOM     21  C   UNL     1       2.883  -0.513   0.081  0.00  0.00    +0.140 C 
ATOM     22  C   UNL     1       2.064  -0.033   1.285  0.00  0.00    +0.131 C 
ATOM     23  O   UNL     1       0.726  -0.527   1.173  0.00  0.00    -0.371 OA
ATOM     24  C   UNL     1       2.697  -0.559   2.575  0.00  0.00    +0.039 C 
ENDBRANCH  14  20
ENDBRANCH   8  14
ENDBRANCH   1  12
BRANCH   6  25
ATOM     25  N   UNL     1       8.568   5.587   2.030  0.00  0.00    -0.188 NA
ATOM     26  C   UNL     1       9.697   5.153   2.501  0.00  0.00    +0.138 C 
BRANCH  26  27
ATOM     27  C   UNL     1      10.570   6.055   3.274  0.00  0.00    -0.005 A 
ATOM     28  C   UNL     1      10.181   7.378   3.505  0.00  0.00    +0.011 A 
ATOM     29  C   UNL     1      10.999   8.218   4.228  0.00  0.00    +0.024 A 
ATOM     30  C   UNL     1      12.210   7.752   4.727  0.00  0.00    +0.029 A 
ATOM     31  C   UNL     1      12.601   6.437   4.499  0.00  0.00    +0.024 A 
ATOM     32  C   UNL     1      11.786   5.589   3.781  0.00  0.00    +0.011 A 
BRANCH  30  33
ATOM     33  N   UNL     1      13.036   8.606   5.459  0.00  0.00    -0.336 N 
ATOM     34  C   UNL     1      12.689  10.023   5.594  0.00  0.00    +0.129 C 
ATOM     35  C   UNL     1      14.251   8.086   6.092  0.00  0.00    +0.129 C 
ENDBRANCH  30  33
ENDBRANCH  26  27
ENDBRANCH   6  25
TORSDOF 6
