REMARK  Name = ZINC64870793
REMARK  8 active torsions:
REMARK  status: ('A' for Active; 'I' for Inactive)
REMARK    1  A    between atoms: C_1  and  C_2
REMARK    2  A    between atoms: C_2  and  C_3
REMARK    3  A    between atoms: C_6  and  C_9
REMARK    4  A    between atoms: C_12  and  C_16
REMARK    5  A    between atoms: N_26  and  C_29
REMARK    6  A    between atoms: C_29  and  C_30
REMARK    7  A    between atoms: C_30  and  C_31
REMARK    8  A    between atoms: C_31  and  C_32
REMARK                            x       y       z     vdW  Elec       q    Type
REMARK                         _______ _______ _______ _____ _____    ______ ____
ROOT
ATOM      1  C   UNL     1       5.409  -0.005  -6.379  0.00  0.00    -0.000 A 
ATOM      2  C   UNL     1       5.538   1.001  -5.433  0.00  0.00    +0.008 A 
ATOM      3  C   UNL     1       6.526   1.955  -5.559  0.00  0.00    +0.016 A 
ATOM      4  C   UNL     1       7.396   1.902  -6.646  0.00  0.00    +0.063 A 
ATOM      5  C   UNL     1       7.265   0.882  -7.603  0.00  0.00    +0.056 A 
ATOM      6  C   UNL     1       6.269  -0.072  -7.457  0.00  0.00    +0.034 A 
ATOM      7  N   UNL     1       8.146   0.854  -8.675  0.00  0.00    -0.307 N 
ATOM      8  H   UNL     1       8.067   0.156  -9.344  0.00  0.00    +0.170 HD
ATOM      9  C   UNL     1       9.108   1.785  -8.794  0.00  0.00    +0.330 A 
ATOM     10  O   UNL     1       9.860   1.725  -9.748  0.00  0.00    -0.246 OA
ATOM     11  N   UNL     1       9.274   2.778  -7.907  0.00  0.00    -0.261 N 
ATOM     12  C   UNL     1       8.469   2.896  -6.828  0.00  0.00    +0.264 A 
ATOM     13  O   UNL     1       8.627   3.798  -6.029  0.00  0.00    -0.267 OA
ENDROOT
BRANCH   1  16
ATOM     14  C   UNL     1       3.928  -3.325  -5.932  0.00  0.00    +0.180 C 
ATOM     15  N   UNL     1       4.810  -2.377  -6.652  0.00  0.00    -0.265 NA
ATOM     16  C   UNL     1       4.324  -1.039  -6.225  0.00  0.00    +0.242 C 
ATOM     17  O   UNL     1       3.995  -1.234  -4.830  0.00  0.00    -0.274 OA
ATOM     18  N   UNL     1       3.402  -2.584  -4.766  0.00  0.00    -0.177 NA
ATOM     19  H   UNL     1       5.775  -2.511  -6.390  0.00  0.00    +0.127 HD
ATOM     20  H   UNL     1       3.647  -3.046  -3.903  0.00  0.00    +0.156 HD
BRANCH  14  24
ATOM     21  C   UNL     1       6.165  -6.724  -4.632  0.00  0.00    -0.048 A 
ATOM     22  C   UNL     1       5.081  -6.286  -3.893  0.00  0.00    +0.004 A 
ATOM     23  C   UNL     1       4.358  -5.186  -4.314  0.00  0.00    +0.007 A 
ATOM     24  C   UNL     1       4.717  -4.524  -5.473  0.00  0.00    -0.014 A 
ATOM     25  C   UNL     1       5.801  -4.962  -6.211  0.00  0.00    +0.007 A 
ATOM     26  C   UNL     1       6.528  -6.059  -5.788  0.00  0.00    +0.004 A 
BRANCH  21  28
ATOM     27  C   UNL     1       8.085  -7.467  -3.250  0.00  0.00    +0.009 C 
ATOM     28  C   UNL     1       6.954  -7.923  -4.173  0.00  0.00    +0.032 C 
ENDBRANCH  21  28
ENDBRANCH  14  24
ENDBRANCH   1  16
BRANCH  11  29
ATOM     29  C   UNL     1      10.348   3.752  -8.112  0.00  0.00    +0.130 C 
BRANCH  29  30
ATOM     30  C   UNL     1       9.823   4.923  -8.945  0.00  0.00    +0.026 C 
BRANCH  30  31
ATOM     31  C   UNL     1      10.945   5.941  -9.159  0.00  0.00    +0.037 C 
BRANCH  31  32
ATOM     32  C   UNL     1      10.427   7.094  -9.980  0.00  0.00    -0.047 A 
ATOM     33  C   UNL     1      10.509   7.053 -11.359  0.00  0.00    +0.003 A 
ATOM     34  C   UNL     1      10.034   8.110 -12.112  0.00  0.00    +0.000 A 
ATOM     35  C   UNL     1       9.477   9.210 -11.485  0.00  0.00    +0.000 A 
ATOM     36  C   UNL     1       9.395   9.251 -10.106  0.00  0.00    +0.000 A 
ATOM     37  C   UNL     1       9.866   8.191  -9.353  0.00  0.00    +0.003 A 
ENDBRANCH  31  32
ENDBRANCH  30  31
ENDBRANCH  29  30
ENDBRANCH  11  29
TORSDOF 7
