REMARK  Name = ZINC61077977
REMARK  9 active torsions:
REMARK  status: ('A' for Active; 'I' for Inactive)
REMARK    1  A    between atoms: C_1  and  C_2
REMARK    2  A    between atoms: C_2  and  C_3
REMARK    3  A    between atoms: C_2  and  C_4
REMARK    4  A    between atoms: C_7  and  C_10
REMARK    5  A    between atoms: C_10  and  C_11
REMARK    6  A    between atoms: C_10  and  N_14
REMARK    7  A    between atoms: C_11  and  C_12
REMARK    8  A    between atoms: C_11  and  C_13
REMARK    9  A    between atoms: C_15  and  C_17
REMARK                            x       y       z     vdW  Elec       q    Type
REMARK                         _______ _______ _______ _____ _____    ______ ____
ROOT
ATOM      1  N   UNL     1       2.417  -3.313   4.936  0.00  0.00    -0.308 N 
ATOM      2  C   UNL     1       3.259  -4.118   5.613  0.00  0.00    +0.217 C 
ATOM      3  O   UNL     1       4.320  -3.687   6.015  0.00  0.00    -0.275 OA
ATOM      4  H   UNL     1       1.569  -3.658   4.615  0.00  0.00    +0.149 HD
ENDROOT
BRANCH   2   5
ATOM      5  C   UNL     1       2.884  -5.555   5.872  0.00  0.00    +0.078 C 
ATOM      6  C   UNL     1       1.588  -5.604   6.686  0.00  0.00    +0.032 C 
ATOM      7  C   UNL     1       1.190  -7.065   6.917  0.00  0.00    +0.110 C 
ATOM      8  N   UNL     1       2.320  -7.769   7.539  0.00  0.00    -0.286 N 
ATOM      9  C   UNL     1       3.635  -7.710   6.886  0.00  0.00    +0.110 C 
ATOM     10  C   UNL     1       4.005  -6.242   6.654  0.00  0.00    +0.032 C 
ATOM     11  C   UNL     1       2.154  -8.457   8.686  0.00  0.00    +0.300 C 
ATOM     12  O   UNL     1       1.086  -8.420   9.267  0.00  0.00    -0.253 OA
ATOM     13  N   UNL     1       3.170  -9.184   9.190  0.00  0.00    -0.313 N 
ATOM     14  H   UNL     1       4.042  -9.157   8.766  0.00  0.00    +0.146 HD
ATOM     15  H   UNL     1       3.029  -9.736   9.975  0.00  0.00    +0.146 HD
ENDBRANCH   2   5
BRANCH   1  16
ATOM     16  C   UNL     1       2.783  -1.917   4.684  0.00  0.00    +0.106 C 
BRANCH  16  20
ATOM     17  C   UNL     1       0.720  -0.509   1.219  0.00  0.00    -0.045 A 
ATOM     18  C   UNL     1       2.037  -0.149   1.433  0.00  0.00    +0.004 A 
ATOM     19  C   UNL     1       2.705  -0.605   2.554  0.00  0.00    +0.006 A 
ATOM     20  C   UNL     1       2.055  -1.420   3.462  0.00  0.00    -0.027 A 
ATOM     21  C   UNL     1       0.737  -1.779   3.248  0.00  0.00    +0.006 A 
ATOM     22  C   UNL     1       0.068  -1.320   2.129  0.00  0.00    +0.004 A 
BRANCH  17  24
ATOM     23  C   UNL     1      -0.035   1.517   0.004  0.00  0.00    +0.012 C 
ATOM     24  C   UNL     1      -0.008  -0.013  -0.004  0.00  0.00    +0.013 C 
ATOM     25  C   UNL     1       0.713  -0.504  -1.261  0.00  0.00    +0.012 C 
ENDBRANCH  17  24
ENDBRANCH  16  20
BRANCH  16  26
ATOM     26  C   UNL     1       2.394  -1.062   5.892  0.00  0.00    +0.008 C 
ATOM     27  C   UNL     1       3.134  -1.567   7.133  0.00  0.00    +0.009 C 
ATOM     28  C   UNL     1       2.776   0.396   5.629  0.00  0.00    +0.009 C 
ENDBRANCH  16  26
ENDBRANCH   1  16
TORSDOF 5
