REMARK  Name = ZINC20560258
REMARK  8 active torsions:
REMARK  status: ('A' for Active; 'I' for Inactive)
REMARK    1  A    between atoms: C_1  and  C_2
REMARK    2  A    between atoms: C_2  and  O_3
REMARK    3  A    between atoms: O_3  and  C_4
REMARK    4  A    between atoms: C_4  and  C_6
REMARK    5  A    between atoms: C_7  and  C_21
REMARK    6  A    between atoms: C_12  and  C_14
REMARK    7  A    between atoms: C_17  and  C_20
REMARK    8  A    between atoms: C_21  and  N_22
REMARK                            x       y       z     vdW  Elec       q    Type
REMARK                         _______ _______ _______ _____ _____    ______ ____
ROOT
ATOM      1  C   UNL     1      -3.171   3.769   1.581  0.00  0.00    +0.079 C 
ATOM      2  C   UNL     1      -4.488   3.468   1.591  0.00  0.00    +0.038 C 
ATOM      3  N   UNL     1      -5.120   3.035   0.461  0.00  0.00    -0.271 N 
ATOM      4  C   UNL     1      -4.506   2.876  -0.719  0.00  0.00    +0.304 C 
ATOM      5  O   UNL     1      -5.154   2.484  -1.670  0.00  0.00    -0.252 OA
ATOM      6  N   UNL     1      -3.195   3.135  -0.886  0.00  0.00    -0.288 N 
ATOM      7  C   UNL     1      -2.421   3.609   0.274  0.00  0.00    +0.144 C 
ATOM      8  H   UNL     1      -6.193   2.795   0.489  0.00  0.00    +0.156 HD
ATOM      9  H   UNL     1      -2.700   3.001  -1.859  0.00  0.00    +0.151 HD
ENDROOT
BRANCH   7  10
ATOM     10  C   UNL     1      -1.289   2.641   0.504  0.00  0.00    -0.022 A 
ATOM     11  C   UNL     1      -1.532   1.280   0.507  0.00  0.00    +0.006 A 
ATOM     12  C   UNL     1      -0.495   0.393   0.722  0.00  0.00    +0.004 A 
ATOM     13  C   UNL     1       0.788   0.866   0.925  0.00  0.00    -0.050 A 
ATOM     14  C   UNL     1       1.033   2.226   0.917  0.00  0.00    +0.004 A 
ATOM     15  C   UNL     1      -0.006   3.114   0.706  0.00  0.00    +0.006 A 
ATOM     16  C   UNL     1       1.921  -0.102   1.154  0.00  0.00    +0.044 C 
ENDBRANCH   7  10
BRANCH   1  17
ATOM     17  C   UNL     1      -2.515   4.218   2.751  0.00  0.00    +0.339 C 
ATOM     18  O   UNL     1      -3.101   4.214   3.817  0.00  0.00    -0.245 OA
BRANCH  17  19
ATOM     19  O   UNL     1      -1.238   4.650   2.685  0.00  0.00    -0.462 OA
BRANCH  19  21
ATOM     20  C   UNL     1       0.799   5.538   3.633  0.00  0.00    +0.048 C 
ATOM     21  C   UNL     1      -0.638   5.089   3.905  0.00  0.00    +0.229 C 
ENDBRANCH  19  21
ENDBRANCH  17  19
ENDBRANCH   1  17
BRANCH   2  22
ATOM     22  C   UNL     1      -5.272   3.614   2.869  0.00  0.00    +0.136 C 
BRANCH  22  23
ATOM     23  N   UNL     1      -5.081   2.417   3.700  0.00  0.00    -0.294 NA
ATOM     24  C   UNL     1      -5.674   1.233   3.062  0.00  0.00    +0.103 C 
ATOM     25  C   UNL     1      -5.385  -0.002   3.918  0.00  0.00    +0.122 C 
ATOM     26  N   UNL     1      -5.936   0.199   5.266  0.00  0.00    -0.314 N 
ATOM     27  C   UNL     1      -5.342   1.382   5.903  0.00  0.00    +0.122 C 
ATOM     28  C   UNL     1      -5.631   2.618   5.048  0.00  0.00    +0.103 C 
ATOM     29  C   UNL     1      -5.755  -0.934   6.052  0.00  0.00    +0.099 A 
ATOM     30  C   UNL     1      -6.248  -2.160   5.618  0.00  0.00    +0.042 A 
ATOM     31  C   UNL     1      -6.061  -3.278   6.410  0.00  0.00    +0.005 A 
ATOM     32  C   UNL     1      -5.385  -3.132   7.614  0.00  0.00    +0.018 A 
ATOM     33  C   UNL     1      -4.922  -1.885   7.982  0.00  0.00    +0.084 A 
ATOM     34  N   UNL     1      -5.110  -0.836   7.204  0.00  0.00    -0.350 N 
ATOM     35  H   UNL     1      -4.716   0.136   7.533  0.00  0.00    +0.166 HD
ENDBRANCH  22  23
ENDBRANCH   2  22
TORSDOF 6
