REMARK  Name = ZINC63786803
REMARK  7 active torsions:
REMARK  status: ('A' for Active; 'I' for Inactive)
REMARK    1  A    between atoms: C_7  and  C_10
REMARK    2  A    between atoms: C_10  and  C_11
REMARK    3  A    between atoms: N_15  and  C_19
REMARK    4  A    between atoms: C_19  and  C_20
REMARK    5  A    between atoms: N_22  and  C_23
REMARK    6  A    between atoms: C_26  and  O_29
REMARK    7  A    between atoms: O_29  and  C_30
REMARK                            x       y       z     vdW  Elec       q    Type
REMARK                         _______ _______ _______ _____ _____    ______ ____
ROOT
ATOM      1  C   UNL     1       0.455  -3.655  -1.456  0.00  0.00    +0.165 C 
ATOM      2  C   UNL     1      -0.540  -4.798  -1.489  0.00  0.00    +0.244 C 
ATOM      3  O   UNL     1      -1.695  -4.775  -1.119  0.00  0.00    -0.273 OA
ATOM      4  N   UNL     1       0.124  -5.846  -2.016  0.00  0.00    -0.216 N 
ATOM      5  C   UNL     1       1.388  -5.526  -2.318  0.00  0.00    +0.310 C 
ATOM      6  O   UNL     1       2.184  -6.305  -2.805  0.00  0.00    -0.252 OA
ATOM      7  N   UNL     1       1.681  -4.243  -2.023  0.00  0.00    -0.287 N 
ATOM      8  H   UNL     1       2.530  -3.794  -2.158  0.00  0.00    +0.151 HD
ENDROOT
BRANCH   1   9
ATOM      9  C   UNL     1       0.695  -3.192  -0.018  0.00  0.00    +0.065 C 
BRANCH   9  16
ATOM     10  C   UNL     1      -0.027   1.339   0.036  0.00  0.00    +0.001 A 
ATOM     11  C   UNL     1       1.153   2.096   0.025  0.00  0.00    +0.002 A 
ATOM     12  C   UNL     1       2.380   1.534   0.001  0.00  0.00    +0.026 A 
ATOM     13  C   UNL     1       2.522   0.119  -0.014  0.00  0.00    +0.043 A 
ATOM     14  N   UNL     1       3.583  -0.651  -0.038  0.00  0.00    -0.380 N 
ATOM     15  C   UNL     1       3.144  -2.051  -0.044  0.00  0.00    +0.144 C 
ATOM     16  C   UNL     1       1.632  -2.012  -0.021  0.00  0.00    -0.039 C 
ATOM     17  C   UNL     1       1.291  -0.703  -0.003  0.00  0.00    -0.001 A 
ATOM     18  C   UNL     1      -0.004  -0.013   0.023  0.00  0.00    +0.010 A 
ATOM     19  H   UNL     1       4.503  -0.346  -0.050  0.00  0.00    +0.160 HD
ENDBRANCH   9  16
ENDBRANCH   1   9
BRANCH   4  20
ATOM     20  C   UNL     1      -0.464  -7.170  -2.232  0.00  0.00    +0.214 C 
BRANCH  20  21
ATOM     21  C   UNL     1      -1.077  -7.230  -3.607  0.00  0.00    +0.235 C 
ATOM     22  O   UNL     1      -1.027  -6.261  -4.336  0.00  0.00    -0.274 OA
ATOM     23  N   UNL     1      -1.680  -8.359  -4.027  0.00  0.00    -0.284 N 
ATOM     24  H   UNL     1      -1.661  -9.155  -3.472  0.00  0.00    +0.155 HD
BRANCH  23  25
ATOM     25  C   UNL     1      -2.334  -8.385  -5.266  0.00  0.00    +0.034 A 
ATOM     26  C   UNL     1      -3.491  -9.135  -5.425  0.00  0.00    +0.027 A 
ATOM     27  C   UNL     1      -4.136  -9.159  -6.646  0.00  0.00    +0.048 A 
ATOM     28  C   UNL     1      -3.627  -8.435  -7.714  0.00  0.00    +0.130 A 
ATOM     29  C   UNL     1      -2.470  -7.686  -7.556  0.00  0.00    +0.048 A 
ATOM     30  C   UNL     1      -1.828  -7.655  -6.334  0.00  0.00    +0.027 A 
BRANCH  28  31
ATOM     31  O   UNL     1      -4.261  -8.460  -8.916  0.00  0.00    -0.406 OA
BRANCH  31  32
ATOM     32  C   UNL     1      -3.682  -7.691  -9.972  0.00  0.00    +0.575 C 
ATOM     33  F   UNL     1      -2.383  -8.147 -10.223  0.00  0.00    -0.133 F 
ATOM     34  F   UNL     1      -4.456  -7.828 -11.129  0.00  0.00    -0.133 F 
ATOM     35  F   UNL     1      -3.638  -6.343  -9.598  0.00  0.00    -0.133 F 
ENDBRANCH  31  32
ENDBRANCH  28  31
ENDBRANCH  23  25
ENDBRANCH  20  21
ENDBRANCH   4  20
TORSDOF 7
