REMARK  Name = ZINC23956134
REMARK  6 active torsions:
REMARK  status: ('A' for Active; 'I' for Inactive)
REMARK    1  A    between atoms: C_1  and  C_2
REMARK    2  A    between atoms: C_5  and  C_9
REMARK    3  A    between atoms: C_7  and  C_8
REMARK    4  A    between atoms: C_9  and  C_29
REMARK    5  A    between atoms: N_12  and  C_16
REMARK    6  A    between atoms: C_16  and  N_17
REMARK                            x       y       z     vdW  Elec       q    Type
REMARK                         _______ _______ _______ _____ _____    ______ ____
ROOT
ATOM      1  C   UNL     1       4.787   4.711   0.792  0.00  0.00    +0.164 C 
ATOM      2  C   UNL     1       4.187   3.543   0.034  0.00  0.00    +0.257 C 
ATOM      3  O   UNL     1       4.705   2.905  -0.858  0.00  0.00    -0.272 OA
ATOM      4  N   UNL     1       2.959   3.361   0.558  0.00  0.00    -0.210 N 
ATOM      5  C   UNL     1       2.700   4.246   1.527  0.00  0.00    +0.311 C 
ATOM      6  O   UNL     1       1.654   4.284   2.146  0.00  0.00    -0.252 OA
ATOM      7  N   UNL     1       3.727   5.087   1.743  0.00  0.00    -0.278 N 
ATOM      8  H   UNL     1       3.886   5.921   2.442  0.00  0.00    +0.152 HD
ENDROOT
BRANCH   1  13
ATOM      9  C   UNL     1       5.939   9.088  -2.801  0.00  0.00    +0.044 C 
ATOM     10  C   UNL     1       5.639   7.947  -1.864  0.00  0.00    -0.048 A 
ATOM     11  C   UNL     1       6.103   6.676  -2.151  0.00  0.00    +0.004 A 
ATOM     12  C   UNL     1       5.827   5.629  -1.292  0.00  0.00    +0.007 A 
ATOM     13  C   UNL     1       5.088   5.853  -0.145  0.00  0.00    -0.010 A 
ATOM     14  C   UNL     1       4.619   7.121   0.139  0.00  0.00    +0.010 A 
ATOM     15  C   UNL     1       4.899   8.170  -0.718  0.00  0.00    -0.047 A 
ATOM     16  C   UNL     1       4.393   9.554  -0.406  0.00  0.00    +0.044 C 
ENDBRANCH   1  13
BRANCH   1  17
ATOM     17  C   UNL     1       6.032   4.284   1.526  0.00  0.00    -0.011 A 
ATOM     18  C   UNL     1       7.011   3.565   0.866  0.00  0.00    +0.006 A 
ATOM     19  C   UNL     1       8.155   3.178   1.538  0.00  0.00    +0.000 A 
ATOM     20  C   UNL     1       8.315   3.499   2.873  0.00  0.00    +0.000 A 
ATOM     21  C   UNL     1       7.334   4.214   3.534  0.00  0.00    +0.000 A 
ATOM     22  C   UNL     1       6.192   4.606   2.860  0.00  0.00    +0.006 A 
ENDBRANCH   1  17
BRANCH   4  23
ATOM     23  C   UNL     1       2.021   2.327   0.115  0.00  0.00    +0.205 C 
BRANCH  23  24
ATOM     24  N   UNL     1       2.235   1.104   0.901  0.00  0.00    -0.283 NA
ATOM     25  C   UNL     1       1.016   0.283   0.940  0.00  0.00    +0.105 C 
ATOM     26  C   UNL     1       1.303  -1.015   1.698  0.00  0.00    +0.122 C 
ATOM     27  N   UNL     1       1.763  -0.695   3.056  0.00  0.00    -0.314 N 
ATOM     28  C   UNL     1       2.982   0.125   3.017  0.00  0.00    +0.122 C 
ATOM     29  C   UNL     1       2.695   1.424   2.259  0.00  0.00    +0.105 C 
ATOM     30  C   UNL     1       1.965  -1.852   3.800  0.00  0.00    +0.099 A 
ATOM     31  C   UNL     1       2.409  -1.758   5.115  0.00  0.00    +0.042 A 
ATOM     32  C   UNL     1       2.600  -2.917   5.845  0.00  0.00    +0.005 A 
ATOM     33  C   UNL     1       2.352  -4.137   5.228  0.00  0.00    +0.018 A 
ATOM     34  C   UNL     1       1.919  -4.157   3.918  0.00  0.00    +0.084 A 
ATOM     35  N   UNL     1       1.739  -3.034   3.248  0.00  0.00    -0.350 N 
ATOM     36  H   UNL     1       1.393  -3.097   2.205  0.00  0.00    +0.166 HD
ENDBRANCH  23  24
ENDBRANCH   4  23
TORSDOF 4
