REMARK  Name = ZINC36205487
REMARK  15 active torsions:
REMARK  status: ('A' for Active; 'I' for Inactive)
REMARK    1  A    between atoms: C_1  and  C_2
REMARK    2  A    between atoms: C_2  and  C_3
REMARK    3  A    between atoms: C_2  and  O_4
REMARK    4  A    between atoms: O_4  and  C_5
REMARK    5  A    between atoms: C_5  and  C_6
REMARK    6  A    between atoms: C_6  and  C_8
REMARK    7  A    between atoms: C_6  and  O_32
REMARK    8  A    between atoms: C_8  and  N_9
REMARK    9  A    between atoms: N_9  and  C_10
REMARK   10  A    between atoms: N_9  and  C_14
REMARK   11  A    between atoms: C_10  and  C_11
REMARK   12  A    between atoms: C_11  and  O_12
REMARK   13  A    between atoms: O_12  and  C_13
REMARK   14  A    between atoms: C_14  and  C_15
REMARK   15  A    between atoms: C_21  and  C_26
REMARK                            x       y       z     vdW  Elec       q    Type
REMARK                         _______ _______ _______ _____ _____    ______ ____
ROOT
ATOM      1  C   UNL     1      -0.964  -3.886   5.765  0.00  0.00    +0.094 A 
ATOM      2  N   UNL     1      -1.841  -4.661   6.453  0.00  0.00    -0.312 N 
ATOM      3  H   UNL     1      -1.927  -4.544   7.412  0.00  0.00    +0.170 HD
ATOM      4  C   UNL     1      -2.594  -5.586   5.831  0.00  0.00    +0.260 A 
ATOM      5  O   UNL     1      -3.378  -6.273   6.463  0.00  0.00    -0.267 OA
ATOM      6  C   UNL     1      -2.461  -5.752   4.415  0.00  0.00    +0.080 A 
ATOM      7  C   UNL     1      -3.156  -6.674   3.525  0.00  0.00    +0.004 A 
ATOM      8  C   UNL     1      -2.861  -6.649   2.203  0.00  0.00    +0.056 A 
ATOM      9  S   UNL     1      -1.622  -5.374   2.080  0.00  0.00    -0.076 S 
ATOM     10  C   UNL     1      -1.529  -4.908   3.789  0.00  0.00    +0.116 A 
ATOM     11  N   UNL     1      -0.823  -4.011   4.472  0.00  0.00    -0.229 NA
ENDROOT
BRANCH   7  12
ATOM     12  C   UNL     1      -4.165  -7.620   4.056  0.00  0.00    -0.017 A 
ATOM     13  C   UNL     1      -3.865  -8.417   5.160  0.00  0.00    +0.008 A 
ATOM     14  C   UNL     1      -4.809  -9.296   5.651  0.00  0.00    +0.001 A 
ATOM     15  C   UNL     1      -6.051  -9.388   5.049  0.00  0.00    +0.000 A 
ATOM     16  C   UNL     1      -6.355  -8.601   3.952  0.00  0.00    +0.001 A 
ATOM     17  C   UNL     1      -5.421  -7.714   3.457  0.00  0.00    +0.008 A 
ENDBRANCH   7  12
BRANCH   1  18
ATOM     18  C   UNL     1      -0.141  -2.862   6.504  0.00  0.00    -0.003 C 
BRANCH  18  19
ATOM     19  N   UNL     1       0.616  -2.054   5.540  0.00  0.00    +0.388 N 
ATOM     20  H   UNL     1       1.147  -2.662   4.934  0.00  0.00    -0.081 HD
BRANCH  19  21
ATOM     21  C   UNL     1      -0.315  -1.253   4.734  0.00  0.00    -0.044 C 
BRANCH  21  22
ATOM     22  C   UNL     1       0.453  -0.555   3.610  0.00  0.00    +0.124 C 
BRANCH  22  23
ATOM     23  O   UNL     1       1.315   0.439   4.168  0.00  0.00    -0.391 OA
ATOM     24  H   UNL     1       0.852   1.126   4.667  0.00  0.00    +0.210 HD
ENDBRANCH  22  23
BRANCH  22  25
ATOM     25  C   UNL     1      -0.537   0.109   2.651  0.00  0.00    +0.189 C 
BRANCH  25  26
ATOM     26  O   UNL     1       0.173   0.661   1.540  0.00  0.00    -0.375 OA
BRANCH  26  28
ATOM     27  C   UNL     1      -0.817   2.785   0.949  0.00  0.00    +0.037 C 
ATOM     28  C   UNL     1      -0.664   1.308   0.579  0.00  0.00    +0.112 C 
ATOM     29  C   UNL     1      -0.030   1.193  -0.809  0.00  0.00    +0.037 C 
ENDBRANCH  26  28
ENDBRANCH  25  26
ENDBRANCH  22  25
ENDBRANCH  21  22
ENDBRANCH  19  21
BRANCH  19  30
ATOM     30  C   UNL     1       1.532  -1.161   6.262  0.00  0.00    -0.050 C 
BRANCH  30  31
ATOM     31  C   UNL     1       2.546  -1.996   7.046  0.00  0.00    +0.141 C 
BRANCH  31  32
ATOM     32  O   UNL     1       3.369  -2.726   6.133  0.00  0.00    -0.385 OA
ATOM     33  C   UNL     1       4.280  -3.627   6.766  0.00  0.00    +0.193 C 
ENDBRANCH  31  32
ENDBRANCH  30  31
ENDBRANCH  19  30
ENDBRANCH  18  19
ENDBRANCH   1  18
TORSDOF 12
