REMARK  Name = ZINC63838911
REMARK  9 active torsions:
REMARK  status: ('A' for Active; 'I' for Inactive)
REMARK    1  A    between atoms: C_1  and  C_2
REMARK    2  A    between atoms: C_2  and  C_3
REMARK    3  A    between atoms: C_2  and  C_4
REMARK    4  A    between atoms: C_2  and  C_5
REMARK    5  A    between atoms: C_8  and  C_11
REMARK    6  A    between atoms: C_15  and  S_23
REMARK    7  A    between atoms: N_16  and  C_17
REMARK    8  A    between atoms: S_23  and  C_24
REMARK    9  A    between atoms: C_24  and  C_25
REMARK                            x       y       z     vdW  Elec       q    Type
REMARK                         _______ _______ _______ _____ _____    ______ ____
ROOT
ATOM      1  C   UNL     1       2.707  -1.868  -4.753  0.00  0.00    +0.213 C 
ATOM      2  N   UNL     1       2.308  -3.251  -5.065  0.00  0.00    -0.242 N 
ATOM      3  N   UNL     1       3.477  -4.019  -4.996  0.00  0.00    -0.162 NA
ATOM      4  C   UNL     1       4.501  -3.296  -4.691  0.00  0.00    +0.180 C 
ATOM      5  N   UNL     1       4.158  -1.959  -4.519  0.00  0.00    -0.254 N 
ATOM      6  H   UNL     1       1.416  -3.567  -5.275  0.00  0.00    +0.170 HD
ENDROOT
BRANCH   1  10
ATOM      7  C   UNL     1       0.706  -0.488  -1.240  0.00  0.00    -0.042 A 
ATOM      8  C   UNL     1       0.124  -1.461  -2.030  0.00  0.00    +0.004 A 
ATOM      9  C   UNL     1       0.771  -1.908  -3.167  0.00  0.00    +0.007 A 
ATOM     10  C   UNL     1       2.001  -1.381  -3.514  0.00  0.00    -0.008 A 
ATOM     11  C   UNL     1       2.583  -0.406  -2.725  0.00  0.00    +0.007 A 
ATOM     12  C   UNL     1       1.934   0.043  -1.590  0.00  0.00    +0.004 A 
BRANCH   7  14
ATOM     13  C   UNL     1      -0.268   1.500  -0.123  0.00  0.00    +0.015 C 
ATOM     14  C   UNL     1       0.000  -0.001  -0.001  0.00  0.00    -0.013 C 
ATOM     15  C   UNL     1       0.879  -0.264   1.223  0.00  0.00    +0.015 C 
ATOM     16  C   UNL     1      -1.327  -0.745   0.155  0.00  0.00    +0.015 C 
ENDBRANCH   7  14
ENDBRANCH   1  10
BRANCH   5  17
ATOM     17  C   UNL     1       5.018  -0.908  -4.187  0.00  0.00    +0.038 A 
ATOM     18  C   UNL     1       5.818  -0.994  -3.054  0.00  0.00    +0.023 A 
ATOM     19  C   UNL     1       6.667   0.045  -2.730  0.00  0.00    +0.002 A 
ATOM     20  C   UNL     1       6.722   1.171  -3.532  0.00  0.00    +0.000 A 
ATOM     21  C   UNL     1       5.927   1.260  -4.660  0.00  0.00    +0.002 A 
ATOM     22  C   UNL     1       5.080   0.221  -4.993  0.00  0.00    +0.023 A 
ENDBRANCH   5  17
BRANCH   4  23
ATOM     23  S   UNL     1       6.138  -3.924  -4.517  0.00  0.00    -0.085 S 
BRANCH  23  24
ATOM     24  C   UNL     1       5.965  -5.697  -4.859  0.00  0.00    +0.124 C 
BRANCH  24  25
ATOM     25  C   UNL     1       7.332  -6.375  -4.740  0.00  0.00    +0.184 C 
ATOM     26  N   UNL     1       7.900  -6.133  -3.408  0.00  0.00    -0.363 N 
ATOM     27  C   UNL     1       9.021  -5.491  -3.572  0.00  0.00    +0.060 A 
ATOM     28  C   UNL     1      10.026  -4.979  -2.631  0.00  0.00    +0.027 A 
ATOM     29  C   UNL     1      11.113  -4.337  -3.102  0.00  0.00    +0.002 A 
ATOM     30  C   UNL     1      11.335  -4.130  -4.476  0.00  0.00    +0.002 A 
ATOM     31  C   UNL     1      10.476  -4.558  -5.423  0.00  0.00    +0.027 A 
ATOM     32  C   UNL     1       9.255  -5.272  -5.026  0.00  0.00    +0.060 A 
ATOM     33  N   UNL     1       8.271  -5.787  -5.704  0.00  0.00    -0.363 N 
ATOM     34  H   UNL     1       7.512  -6.403  -2.561  0.00  0.00    +0.162 HD
ATOM     35  H   UNL     1       8.176  -5.784  -6.669  0.00  0.00    +0.162 HD
ENDBRANCH  24  25
ENDBRANCH  23  24
ENDBRANCH   4  23
TORSDOF 6
