REMARK  Name = ZINC21249383
REMARK  10 active torsions:
REMARK  status: ('A' for Active; 'I' for Inactive)
REMARK    1  A    between atoms: C_1  and  C_2
REMARK    2  A    between atoms: C_2  and  O_3
REMARK    3  A    between atoms: O_3  and  C_4
REMARK    4  A    between atoms: C_6  and  C_11
REMARK    5  A    between atoms: C_9  and  O_10
REMARK    6  A    between atoms: C_16  and  C_21
REMARK    7  A    between atoms: C_24  and  C_27
REMARK    8  A    between atoms: C_27  and  C_28
REMARK    9  A    between atoms: C_27  and  C_29
REMARK   10  A    between atoms: C_27  and  C_30
REMARK                            x       y       z     vdW  Elec       q    Type
REMARK                         _______ _______ _______ _____ _____    ______ ____
ROOT
ATOM      1  C   UNL     1       1.137  -2.178   0.677  0.00  0.00    +0.136 C 
ATOM      2  C   UNL     1       0.919  -0.692   0.511  0.00  0.00    +0.036 C 
ATOM      3  C   UNL     1      -0.122  -0.114  -0.112  0.00  0.00    +0.017 C 
ATOM      4  C   UNL     1      -0.221   1.400  -0.203  0.00  0.00    +0.059 C 
ATOM      5  C   UNL     1       1.178   2.009  -0.286  0.00  0.00    +0.032 C 
ATOM      6  C   UNL     1       1.940   1.600   0.980  0.00  0.00    +0.088 C 
ATOM      7  C   UNL     1       1.944   0.104   1.073  0.00  0.00    +0.163 C 
ATOM      8  O   UNL     1       2.861  -0.445   1.653  0.00  0.00    -0.292 OA
ATOM      9  N   UNL     1      -1.153  -0.787  -0.684  0.00  0.00    -0.316 N 
ATOM     10  C   UNL     1      -1.015  -1.887  -1.523  0.00  0.00    +0.052 A 
ATOM     11  C   UNL     1      -1.389  -1.855  -2.855  0.00  0.00    +0.025 A 
ATOM     12  C   UNL     1      -1.269  -3.001  -3.622  0.00  0.00    +0.002 A 
ATOM     13  C   UNL     1      -0.783  -4.168  -3.061  0.00  0.00    +0.002 A 
ATOM     14  C   UNL     1      -0.393  -4.197  -1.733  0.00  0.00    +0.025 A 
ATOM     15  C   UNL     1      -0.491  -3.046  -0.970  0.00  0.00    +0.049 A 
ATOM     16  N   UNL     1      -0.007  -2.996   0.337  0.00  0.00    -0.331 N 
ATOM     17  H   UNL     1      -2.189  -0.471  -0.496  0.00  0.00    +0.152 HD
ATOM     18  H   UNL     1      -0.508  -3.591   1.114  0.00  0.00    +0.147 HD
ENDROOT
BRANCH   1  21
ATOM     19  C   UNL     1       4.524  -3.438  -0.426  0.00  0.00    +0.162 A 
ATOM     20  C   UNL     1       3.461  -3.057   0.377  0.00  0.00    +0.055 A 
ATOM     21  C   UNL     1       2.295  -2.587  -0.197  0.00  0.00    -0.019 A 
ATOM     22  C   UNL     1       2.189  -2.486  -1.572  0.00  0.00    +0.009 A 
ATOM     23  C   UNL     1       3.248  -2.859  -2.378  0.00  0.00    +0.049 A 
ATOM     24  C   UNL     1       4.418  -3.336  -1.809  0.00  0.00    +0.158 A 
BRANCH  24  25
ATOM     25  O   UNL     1       5.461  -3.703  -2.601  0.00  0.00    -0.503 OA
ATOM     26  H   UNL     1       5.376  -3.622  -3.695  0.00  0.00    +0.292 HD
ENDBRANCH  24  25
BRANCH  19  27
ATOM     27  O   UNL     1       5.670  -3.905   0.138  0.00  0.00    -0.489 OA
BRANCH  27  29
ATOM     28  C   UNL     1       7.066  -4.527   2.010  0.00  0.00    +0.048 C 
ATOM     29  C   UNL     1       5.707  -3.982   1.564  0.00  0.00    +0.226 C 
ENDBRANCH  27  29
ENDBRANCH  19  27
ENDBRANCH   1  21
BRANCH   5  30
ATOM     30  C   UNL     1       1.077   3.510  -0.360  0.00  0.00    -0.043 A 
ATOM     31  C   UNL     1       0.468   4.214   0.662  0.00  0.00    +0.004 A 
ATOM     32  C   UNL     1       0.379   5.592   0.596  0.00  0.00    +0.004 A 
ATOM     33  C   UNL     1       0.893   6.266  -0.496  0.00  0.00    -0.042 A 
ATOM     34  C   UNL     1       1.498   5.562  -1.520  0.00  0.00    +0.004 A 
ATOM     35  C   UNL     1       1.590   4.185  -1.452  0.00  0.00    +0.004 A 
BRANCH  33  36
ATOM     36  C   UNL     1       0.794   7.768  -0.569  0.00  0.00    -0.013 C 
ATOM     37  C   UNL     1      -0.004   8.166  -1.812  0.00  0.00    +0.015 C 
ATOM     38  C   UNL     1       0.086   8.294   0.681  0.00  0.00    +0.015 C 
ATOM     39  C   UNL     1       2.199   8.368  -0.650  0.00  0.00    +0.015 C 
ENDBRANCH  33  36
ENDBRANCH   5  30
TORSDOF 6
