REMARK  Name = ZINC38596861
REMARK  10 active torsions:
REMARK  status: ('A' for Active; 'I' for Inactive)
REMARK    1  A    between atoms: C_1  and  C_2
REMARK    2  A    between atoms: C_2  and  O_3
REMARK    3  A    between atoms: O_3  and  C_4
REMARK    4  A    between atoms: C_4  and  C_6
REMARK    5  A    between atoms: C_8  and  N_18
REMARK    6  A    between atoms: C_11  and  O_16
REMARK    7  A    between atoms: O_16  and  C_17
REMARK    8  A    between atoms: C_19  and  C_21
REMARK    9  A    between atoms: C_21  and  N_22
REMARK   10  A    between atoms: C_25  and  C_28
REMARK                            x       y       z     vdW  Elec       q    Type
REMARK                         _______ _______ _______ _____ _____    ______ ____
ROOT
ATOM      1  N   UNL     1       0.119  -1.495   4.395  0.00  0.00    -0.288 N 
ATOM      2  C   UNL     1      -0.732  -1.682   5.423  0.00  0.00    +0.200 C 
ATOM      3  O   UNL     1      -0.872  -2.788   5.900  0.00  0.00    -0.278 OA
ATOM      4  H   UNL     1       0.317  -0.597   4.087  0.00  0.00    +0.155 HD
ENDROOT
BRANCH   1   6
ATOM      5  C   UNL     1       0.574  -4.022   4.185  0.00  0.00    +0.234 C 
ATOM      6  C   UNL     1       0.702  -2.568   3.788  0.00  0.00    +0.053 C 
ATOM      7  C   UNL     1       1.531  -2.552   2.681  0.00  0.00    +0.021 A 
ATOM      8  C   UNL     1       2.018  -1.500   1.867  0.00  0.00    +0.057 A 
ATOM      9  C   UNL     1       2.837  -1.782   0.820  0.00  0.00    +0.121 A 
ATOM     10  C   UNL     1       3.216  -3.098   0.521  0.00  0.00    +0.047 A 
ATOM     11  C   UNL     1       2.787  -4.151   1.257  0.00  0.00    +0.029 A 
ATOM     12  C   UNL     1       1.929  -3.935   2.367  0.00  0.00    +0.045 A 
ATOM     13  N   UNL     1       1.383  -4.778   3.224  0.00  0.00    -0.367 N 
ATOM     14  H   UNL     1       1.499  -5.741   3.219  0.00  0.00    +0.161 HD
BRANCH   5  15
ATOM     15  C   UNL     1       1.101  -4.227   5.582  0.00  0.00    +0.336 C 
ATOM     16  O   UNL     1       2.211  -3.848   5.870  0.00  0.00    -0.248 OA
BRANCH  15  17
ATOM     17  O   UNL     1       0.337  -4.830   6.506  0.00  0.00    -0.463 OA
BRANCH  17  19
ATOM     18  C   UNL     1       0.019  -6.004   8.595  0.00  0.00    +0.048 C 
ATOM     19  C   UNL     1       0.944  -5.106   7.770  0.00  0.00    +0.229 C 
ENDBRANCH  17  19
ENDBRANCH  15  17
ENDBRANCH   5  15
BRANCH   9  20
ATOM     20  O   UNL     1       3.299  -0.765   0.045  0.00  0.00    -0.495 OA
ATOM     21  C   UNL     1       4.156  -1.116  -1.043  0.00  0.00    +0.277 C 
ENDBRANCH   9  20
ENDBRANCH   1   6
BRANCH   2  22
ATOM     22  C   UNL     1      -1.510  -0.517   5.979  0.00  0.00    +0.019 C 
BRANCH  22  23
ATOM     23  N   UNL     1      -2.115  -0.900   7.262  0.00  0.00    +0.388 N 
ATOM     24  C   UNL     1      -3.017   0.168   7.719  0.00  0.00    -0.073 C 
ATOM     25  C   UNL     1      -3.828  -0.353   8.909  0.00  0.00    +0.017 C 
ATOM     26  C   UNL     1      -2.900  -0.973   9.917  0.00  0.00    -0.048 C 
ATOM     27  C   UNL     1      -1.661  -1.306   9.623  0.00  0.00    -0.041 C 
ATOM     28  C   UNL     1      -1.060  -1.095   8.264  0.00  0.00    -0.050 C 
ATOM     29  H   UNL     1      -2.634  -1.757   7.148  0.00  0.00    -0.081 HD
BRANCH  26  30
ATOM     30  C   UNL     1      -3.397  -1.216  11.288  0.00  0.00    -0.022 A 
ATOM     31  C   UNL     1      -4.421  -2.137  11.508  0.00  0.00    +0.011 A 
ATOM     32  C   UNL     1      -4.881  -2.360  12.789  0.00  0.00    +0.039 A 
ATOM     33  C   UNL     1      -4.327  -1.671  13.857  0.00  0.00    +0.123 A 
ATOM     34  C   UNL     1      -3.310  -0.755  13.643  0.00  0.00    +0.039 A 
ATOM     35  C   UNL     1      -2.839  -0.529  12.367  0.00  0.00    +0.011 A 
ATOM     36  F   UNL     1      -4.782  -1.893  15.110  0.00  0.00    -0.205 F 
ENDBRANCH  26  30
ENDBRANCH  22  23
ENDBRANCH   2  22
TORSDOF 8
