REMARK  Name = ZINC25382508
REMARK  12 active torsions:
REMARK  status: ('A' for Active; 'I' for Inactive)
REMARK    1  A    between atoms: C_1  and  N_2
REMARK    2  A    between atoms: N_2  and  C_3
REMARK    3  A    between atoms: N_2  and  C_4
REMARK    4  A    between atoms: C_4  and  C_6
REMARK    5  A    between atoms: C_4  and  C_13
REMARK    6  A    between atoms: C_6  and  C_7
REMARK    7  A    between atoms: C_13  and  N_14
REMARK    8  A    between atoms: C_15  and  C_17
REMARK    9  A    between atoms: C_17  and  S_18
REMARK   10  A    between atoms: S_18  and  C_19
REMARK   11  A    between atoms: C_22  and  C_30
REMARK   12  A    between atoms: N_23  and  C_24
REMARK                            x       y       z     vdW  Elec       q    Type
REMARK                         _______ _______ _______ _____ _____    ______ ____
ROOT
ATOM      1  S   UNL     1      -1.078   6.387   1.183  0.00  0.00    -0.076 S 
ENDROOT
BRANCH   1   2
ATOM      2  C   UNL     1      -0.902   7.471  -0.195  0.00  0.00    +0.197 A 
ATOM      3  N   UNL     1      -1.181   8.755  -0.217  0.00  0.00    -0.122 NA
ATOM      4  N   UNL     1      -0.936   9.241  -1.382  0.00  0.00    -0.128 NA
ATOM      5  C   UNL     1      -0.481   8.299  -2.175  0.00  0.00    +0.172 A 
ATOM      6  N   UNL     1      -0.449   7.133  -1.441  0.00  0.00    -0.270 N 
BRANCH   5   7
ATOM      7  C   UNL     1      -0.080   8.458  -3.588  0.00  0.00    +0.055 A 
ATOM      8  C   UNL     1      -0.491   7.527  -4.543  0.00  0.00    +0.014 A 
ATOM      9  C   UNL     1      -0.113   7.681  -5.861  0.00  0.00    +0.001 A 
ATOM     10  C   UNL     1       0.671   8.757  -6.239  0.00  0.00    +0.003 A 
ATOM     11  C   UNL     1       1.082   9.685  -5.300  0.00  0.00    +0.039 A 
ATOM     12  C   UNL     1       0.707   9.546  -3.977  0.00  0.00    +0.134 A 
ATOM     13  F   UNL     1       1.105  10.456  -3.061  0.00  0.00    -0.205 F 
ENDBRANCH   5   7
BRANCH   6  14
ATOM     14  C   UNL     1      -0.034   5.867  -1.878  0.00  0.00    +0.051 A 
ATOM     15  C   UNL     1      -0.970   4.864  -2.092  0.00  0.00    +0.026 A 
ATOM     16  C   UNL     1      -0.558   3.618  -2.523  0.00  0.00    +0.002 A 
ATOM     17  C   UNL     1       0.785   3.369  -2.741  0.00  0.00    +0.000 A 
ATOM     18  C   UNL     1       1.719   4.367  -2.527  0.00  0.00    +0.002 A 
ATOM     19  C   UNL     1       1.313   5.614  -2.096  0.00  0.00    +0.026 A 
ENDBRANCH   6  14
ENDBRANCH   1   2
BRANCH   1  20
ATOM     20  C   UNL     1      -1.711   7.549   2.418  0.00  0.00    +0.173 C 
BRANCH  20  22
ATOM     21  N   UNL     1      -2.417   7.492   4.788  0.00  0.00    -0.316 N 
ATOM     22  C   UNL     1      -1.943   6.823   3.718  0.00  0.00    +0.223 C 
ATOM     23  O   UNL     1      -1.704   5.637   3.802  0.00  0.00    -0.275 OA
ATOM     24  H   UNL     1      -2.633   8.568   4.713  0.00  0.00    +0.149 HD
BRANCH  21  25
ATOM     25  C   UNL     1      -2.642   6.786   6.052  0.00  0.00    +0.089 C 
BRANCH  25  26
ATOM     26  C   UNL     1      -3.035   7.793   7.136  0.00  0.00    -0.048 C 
BRANCH  26  28
ATOM     27  C   UNL     1      -0.635   7.807   7.459  0.00  0.00    -0.096 C 
ATOM     28  N   UNL     1      -1.866   8.608   7.493  0.00  0.00    +0.379 N 
ATOM     29  C   UNL     1      -1.755   9.782   6.616  0.00  0.00    -0.096 C 
ATOM     30  H   UNL     1      -2.007   8.968   8.523  0.00  0.00    -0.082 HD
ENDBRANCH  26  28
BRANCH  26  31
ATOM     31  C   UNL     1      -3.531   7.043   8.373  0.00  0.00    +0.021 C 
BRANCH  31  32
ATOM     32  C   UNL     1      -3.981   8.035   9.415  0.00  0.00    -0.049 A 
ATOM     33  C   UNL     1      -3.070   8.548  10.319  0.00  0.00    +0.003 A 
ATOM     34  C   UNL     1      -3.481   9.461  11.272  0.00  0.00    +0.000 A 
ATOM     35  C   UNL     1      -4.806   9.854  11.327  0.00  0.00    +0.000 A 
ATOM     36  C   UNL     1      -5.717   9.336  10.426  0.00  0.00    +0.000 A 
ATOM     37  C   UNL     1      -5.305   8.427   9.470  0.00  0.00    +0.003 A 
ENDBRANCH  31  32
ENDBRANCH  26  31
ENDBRANCH  25  26
ENDBRANCH  21  25
ENDBRANCH  20  22
ENDBRANCH   1  20
TORSDOF 10
