REMARK  Name = ZINC63351225
REMARK  2 active torsions:
REMARK  status: ('A' for Active; 'I' for Inactive)
REMARK    1  A    between atoms: C_4  and  N_7
REMARK    2  A    between atoms: C_10  and  C_17
REMARK                            x       y       z     vdW  Elec       q    Type
REMARK                         _______ _______ _______ _____ _____    ______ ____
ROOT
ATOM      1  N   UNL     1       6.006  -0.599  -0.138  0.00  0.00    -0.229 N 
ATOM      2  C   UNL     1       6.041  -1.941  -0.251  0.00  0.00    +0.270 A 
ATOM      3  O   UNL     1       7.103  -2.514  -0.426  0.00  0.00    -0.267 OA
ATOM      4  C   UNL     1       4.846  -2.676  -0.167  0.00  0.00    +0.101 A 
ATOM      5  C   UNL     1       3.672  -2.010   0.030  0.00  0.00    +0.263 A 
ATOM      6  N   UNL     1       3.681  -0.643   0.140  0.00  0.00    -0.274 N 
ATOM      7  H   UNL     1       2.848  -0.165   0.280  0.00  0.00    +0.173 HD
ATOM      8  C   UNL     1       4.838   0.039   0.061  0.00  0.00    +0.337 A 
ATOM      9  O   UNL     1       4.827   1.251   0.166  0.00  0.00    -0.246 OA
ATOM     10  O   UNL     1       2.510  -2.692   0.114  0.00  0.00    -0.267 OA
ENDROOT
BRANCH   4  11
ATOM     11  C   UNL     1       4.861  -4.178  -0.291  0.00  0.00    +0.121 C 
ATOM     12  C   UNL     1       4.203  -4.804   0.940  0.00  0.00    +0.128 C 
ATOM     13  C   UNL     1       2.733  -4.401   0.889  0.00  0.00    -0.035 C 
ATOM     14  C   UNL     1       2.460  -3.831   2.055  0.00  0.00    -0.001 A 
ATOM     15  C   UNL     1       1.204  -3.321   2.628  0.00  0.00    +0.010 A 
ATOM     16  C   UNL     1       1.289  -2.775   3.870  0.00  0.00    +0.001 A 
ATOM     17  C   UNL     1       2.484  -2.686   4.590  0.00  0.00    +0.002 A 
ATOM     18  C   UNL     1       3.685  -3.134   4.144  0.00  0.00    +0.026 A 
ATOM     19  C   UNL     1       3.722  -3.734   2.852  0.00  0.00    +0.043 A 
ATOM     20  N   UNL     1       4.732  -4.270   2.194  0.00  0.00    -0.376 N 
ATOM     21  C   UNL     1       1.904  -4.587  -0.358  0.00  0.00    +0.048 C 
ATOM     22  C   UNL     1       2.744  -4.024  -1.520  0.00  0.00    +0.086 C 
ATOM     23  N   UNL     1       4.098  -4.584  -1.482  0.00  0.00    -0.307 NA
ATOM     24  H   UNL     1       4.604  -4.367  -2.327  0.00  0.00    +0.123 HD
ATOM     25  H   UNL     1       5.659  -4.304   2.479  0.00  0.00    +0.160 HD
ENDBRANCH   4  11
BRANCH   1  29
ATOM     26  C   UNL     1       9.544   1.591  -0.386  0.00  0.00    +0.000 A 
ATOM     27  C   UNL     1       9.103   1.129   0.840  0.00  0.00    +0.002 A 
ATOM     28  C   UNL     1       7.931   0.404   0.926  0.00  0.00    +0.026 A 
ATOM     29  C   UNL     1       7.195   0.138  -0.221  0.00  0.00    +0.054 A 
ATOM     30  C   UNL     1       7.641   0.603  -1.451  0.00  0.00    +0.026 A 
ATOM     31  C   UNL     1       8.814   1.327  -1.531  0.00  0.00    +0.002 A 
ENDBRANCH   1  29
TORSDOF 2
