REMARK  Name = ZINC63513850
REMARK  5 active torsions:
REMARK  status: ('A' for Active; 'I' for Inactive)
REMARK    1  A    between atoms: C_1  and  C_2
REMARK    2  A    between atoms: C_4  and  C_12
REMARK    3  A    between atoms: C_12  and  C_13
REMARK    4  A    between atoms: C_13  and  N_14
REMARK    5  A    between atoms: C_15  and  C_17
REMARK                            x       y       z     vdW  Elec       q    Type
REMARK                         _______ _______ _______ _____ _____    ______ ____
ROOT
ATOM      1  N   UNL     1      -4.819  -0.827  -1.544  0.00  0.00    -0.314 N 
ATOM      2  C   UNL     1      -6.036  -1.380  -1.371  0.00  0.00    +0.227 C 
ATOM      3  O   UNL     1      -6.258  -2.062  -0.393  0.00  0.00    -0.275 OA
ATOM      4  H   UNL     1      -4.641  -0.281  -2.327  0.00  0.00    +0.149 HD
ENDROOT
BRANCH   2   5
ATOM      5  C   UNL     1      -7.120  -1.151  -2.393  0.00  0.00    +0.188 C 
ATOM      6  C   UNL     1      -8.390  -1.900  -1.979  0.00  0.00    +0.063 C 
ATOM      7  C   UNL     1      -8.226  -3.374  -2.247  0.00  0.00    -0.003 A 
ATOM      8  C   UNL     1      -9.051  -4.263  -1.576  0.00  0.00    +0.022 A 
ATOM      9  C   UNL     1      -8.939  -5.623  -1.796  0.00  0.00    +0.018 A 
ATOM     10  C   UNL     1      -8.000  -6.103  -2.692  0.00  0.00    +0.019 A 
ATOM     11  C   UNL     1      -7.175  -5.223  -3.361  0.00  0.00    +0.048 A 
ATOM     12  C   UNL     1      -7.283  -3.854  -3.138  0.00  0.00    +0.135 A 
ATOM     13  O   UNL     1      -6.437  -3.022  -3.805  0.00  0.00    -0.425 OA
ATOM     14  C   UNL     1      -6.682  -1.697  -3.738  0.00  0.00    +0.325 C 
ATOM     15  O   UNL     1      -6.561  -0.980  -4.703  0.00  0.00    -0.250 OA
ATOM     16 BR   UNL     1     -10.068  -6.826  -0.873  0.00  0.00    -0.050 Br
ENDBRANCH   2   5
BRANCH   1  17
ATOM     17  C   UNL     1      -3.765  -1.049  -0.551  0.00  0.00    +0.108 C 
BRANCH  17  18
ATOM     18  C   UNL     1      -2.494  -0.316  -0.984  0.00  0.00    +0.052 C 
BRANCH  18  21
ATOM     19  C   UNL     1      -0.019   1.526   0.010  0.00  0.00    +0.035 C 
ATOM     20  C   UNL     1       0.002  -0.004   0.002  0.00  0.00    +0.103 C 
ATOM     21  C   UNL     1      -1.410  -0.545   0.038  0.00  0.00    -0.037 C 
ATOM     22  C   UNL     1      -1.503  -1.275   1.173  0.00  0.00    -0.001 A 
ATOM     23  C   UNL     1      -2.599  -2.045   1.772  0.00  0.00    +0.010 A 
ATOM     24  C   UNL     1      -2.386  -2.686   2.944  0.00  0.00    +0.001 A 
ATOM     25  C   UNL     1      -1.148  -2.632   3.599  0.00  0.00    +0.002 A 
ATOM     26  C   UNL     1      -0.094  -1.946   3.110  0.00  0.00    +0.026 A 
ATOM     27  C   UNL     1      -0.205  -1.235   1.884  0.00  0.00    +0.043 A 
ATOM     28  N   UNL     1       0.658  -0.508   1.214  0.00  0.00    -0.378 N 
ATOM     29  H   UNL     1       1.576  -0.332   1.476  0.00  0.00    +0.160 HD
ENDBRANCH  18  21
ENDBRANCH  17  18
ENDBRANCH   1  17
TORSDOF 4
