REMARK  Name = ZINC23127142
REMARK  9 active torsions:
REMARK  status: ('A' for Active; 'I' for Inactive)
REMARK    1  A    between atoms: C_6  and  C_7
REMARK    2  A    between atoms: C_13  and  O_28
REMARK    3  A    between atoms: C_14  and  C_22
REMARK    4  A    between atoms: C_17  and  C_18
REMARK    5  A    between atoms: C_22  and  N_23
REMARK    6  A    between atoms: N_23  and  C_24
REMARK    7  A    between atoms: C_24  and  C_25
REMARK    8  A    between atoms: C_25  and  C_26
REMARK    9  A    between atoms: C_26  and  O_27
REMARK                            x       y       z     vdW  Elec       q    Type
REMARK                         _______ _______ _______ _____ _____    ______ ____
ROOT
ATOM      1  C   UNL     1      -4.669   2.999   0.790  0.00  0.00    +0.076 A 
ATOM      2  C   UNL     1      -4.065   3.340   2.090  0.00  0.00    +0.201 A 
ATOM      3  O   UNL     1      -4.567   4.168   2.830  0.00  0.00    -0.286 OA
ATOM      4  C   UNL     1      -2.824   2.632   2.452  0.00  0.00    +0.065 A 
ATOM      5  C   UNL     1      -2.174   2.883   3.661  0.00  0.00    +0.019 A 
ATOM      6  C   UNL     1      -1.025   2.209   3.965  0.00  0.00    +0.046 A 
ATOM      7  C   UNL     1      -0.501   1.274   3.074  0.00  0.00    +0.122 A 
ATOM      8  C   UNL     1      -1.135   1.015   1.871  0.00  0.00    +0.020 A 
ATOM      9  C   UNL     1      -2.301   1.695   1.544  0.00  0.00    +0.144 A 
ATOM     10  O   UNL     1      -2.933   1.451   0.379  0.00  0.00    -0.450 OA
ATOM     11  C   UNL     1      -4.059   2.068   0.012  0.00  0.00    +0.219 A 
ENDROOT
BRANCH   1  17
ATOM     12  C   UNL     1      -5.885   4.576  -0.710  0.00  0.00    +0.011 A 
ATOM     13  C   UNL     1      -7.051   5.185  -1.128  0.00  0.00    +0.039 A 
ATOM     14  C   UNL     1      -8.250   4.895  -0.499  0.00  0.00    +0.123 A 
ATOM     15  C   UNL     1      -8.287   3.989   0.549  0.00  0.00    +0.039 A 
ATOM     16  C   UNL     1      -7.127   3.372   0.970  0.00  0.00    +0.011 A 
ATOM     17  C   UNL     1      -5.918   3.660   0.341  0.00  0.00    -0.011 A 
ATOM     18  F   UNL     1      -9.388   5.497  -0.908  0.00  0.00    -0.205 F 
ENDBRANCH   1  17
BRANCH  11  19
ATOM     19  C   UNL     1      -4.676   1.720  -1.318  0.00  0.00    +0.451 C 
ATOM     20  F   UNL     1      -4.567   2.813  -2.184  0.00  0.00    -0.163 F 
ATOM     21  F   UNL     1      -4.008   0.620  -1.868  0.00  0.00    -0.163 F 
ATOM     22  F   UNL     1      -6.027   1.402  -1.136  0.00  0.00    -0.163 F 
ENDBRANCH  11  19
BRANCH   7  23
ATOM     23  O   UNL     1       0.641   0.612   3.389  0.00  0.00    -0.506 OA
ATOM     24  H   UNL     1       1.058  -0.127   2.690  0.00  0.00    +0.292 HD
ENDBRANCH   7  23
BRANCH   8  25
ATOM     25  C   UNL     1      -0.558   0.002   0.916  0.00  0.00    -0.039 C 
BRANCH  25  26
ATOM     26  N   UNL     1      -1.115  -1.324   1.213  0.00  0.00    +0.382 N 
ATOM     27  H   UNL     1      -0.860  -1.606   2.245  0.00  0.00    -0.085 HD
ATOM     28  H   UNL     1      -2.209  -1.296   1.100  0.00  0.00    -0.085 HD
BRANCH  26  29
ATOM     29  C   UNL     1      -0.574  -2.339   0.300  0.00  0.00    -0.080 C 
BRANCH  29  30
ATOM     30  C   UNL     1      -1.177  -3.704   0.639  0.00  0.00    +0.009 C 
BRANCH  30  31
ATOM     31  C   UNL     1      -0.613  -4.761  -0.312  0.00  0.00    +0.154 C 
BRANCH  31  32
ATOM     32  O   UNL     1      -1.175  -6.036   0.005  0.00  0.00    -0.395 OA
ATOM     33  H   UNL     1      -0.887  -6.924  -0.576  0.00  0.00    +0.209 HD
ENDBRANCH  31  32
ENDBRANCH  30  31
ENDBRANCH  29  30
ENDBRANCH  26  29
ENDBRANCH  25  26
ENDBRANCH   8  25
TORSDOF 9
