REMARK  Name = ZINC37053293
REMARK  4 active torsions:
REMARK  status: ('A' for Active; 'I' for Inactive)
REMARK    1  A    between atoms: C_3  and  N_8
REMARK    2  A    between atoms: N_8  and  S_9
REMARK    3  A    between atoms: S_9  and  C_12
REMARK    4  A    between atoms: C_13  and  N_20
REMARK                            x       y       z     vdW  Elec       q    Type
REMARK                         _______ _______ _______ _____ _____    ______ ____
ROOT
ATOM      1  S   UNL     1       5.320   1.043  -0.025  0.00  0.00    +0.095 S 
ATOM      2  O   UNL     1       5.381   0.482   1.280  0.00  0.00    -0.148 OA
ATOM      3  O   UNL     1       5.594   0.283  -1.194  0.00  0.00    -0.148 OA
ENDROOT
BRANCH   1   4
ATOM      4  C   UNL     1       6.433   2.408  -0.039  0.00  0.00    +0.149 A 
ATOM      5  C   UNL     1       6.864   2.941  -1.248  0.00  0.00    +0.054 A 
ATOM      6  C   UNL     1       7.741   4.018  -1.255  0.00  0.00    +0.044 A 
ATOM      7  C   UNL     1       8.183   4.556  -0.061  0.00  0.00    +0.044 A 
ATOM      8  C   UNL     1       7.752   4.024   1.141  0.00  0.00    +0.042 A 
ATOM      9  C   UNL     1       6.873   2.954   1.151  0.00  0.00    +0.071 A 
ATOM     10 CL   UNL     1       6.329   2.294   2.662  0.00  0.00    -0.081 Cl
ATOM     11 CL   UNL     1       9.280   5.902  -0.070  0.00  0.00    -0.083 Cl
BRANCH   5  12
ATOM     12  N   UNL     1       6.417   2.394  -2.453  0.00  0.00    -0.356 N 
ATOM     13  H   UNL     1       5.666   1.780  -2.458  0.00  0.00    +0.142 HD
ATOM     14  H   UNL     1       6.857   2.629  -3.284  0.00  0.00    +0.142 HD
ENDBRANCH   5  12
ENDBRANCH   1   4
BRANCH   1  15
ATOM     15  N   UNL     1       3.792   1.655  -0.206  0.00  0.00    -0.098 NA
BRANCH  15  18
ATOM     16  C   UNL     1       0.325   0.450  -0.407  0.00  0.00    +0.003 A 
ATOM     17  C   UNL     1       1.410   1.305  -0.382  0.00  0.00    +0.027 A 
ATOM     18  C   UNL     1       2.692   0.793  -0.231  0.00  0.00    +0.075 A 
ATOM     19  C   UNL     1       2.880  -0.578  -0.105  0.00  0.00    +0.042 A 
ATOM     20  C   UNL     1       1.790  -1.427  -0.130  0.00  0.00    +0.020 A 
ATOM     21  C   UNL     1       0.514  -0.913  -0.281  0.00  0.00    +0.015 A 
ATOM     22 BR   UNL     1       2.043  -3.293   0.041  0.00  0.00    -0.050 Br
ENDBRANCH  15  18
ENDBRANCH   1  15
TORSDOF 4
