REMARK  Name = ZINC63588779
REMARK  8 active torsions:
REMARK  status: ('A' for Active; 'I' for Inactive)
REMARK    1  A    between atoms: C_1  and  C_2
REMARK    2  A    between atoms: C_2  and  C_3
REMARK    3  A    between atoms: C_7  and  N_9
REMARK    4  A    between atoms: N_11  and  C_12
REMARK    5  A    between atoms: C_12  and  C_13
REMARK    6  A    between atoms: C_13  and  C_14
REMARK    7  A    between atoms: N_23  and  C_24
REMARK    8  A    between atoms: C_24  and  C_26
REMARK                            x       y       z     vdW  Elec       q    Type
REMARK                         _______ _______ _______ _____ _____    ______ ____
ROOT
ATOM      1  N   UNL     1      -4.055  -1.949  -2.134  0.00  0.00    -0.328 N 
ATOM      2  C   UNL     1      -5.407  -1.960  -2.322  0.00  0.00    +0.194 C 
ATOM      3  N   UNL     1      -5.920  -1.891  -3.584  0.00  0.00    -0.357 N 
ATOM      4  N   UNL     1      -6.220  -2.037  -1.280  0.00  0.00    -0.143 NA
ATOM      5  H   UNL     1      -5.328  -1.930  -4.352  0.00  0.00    +0.162 HD
ATOM      6  H   UNL     1      -3.672  -2.358  -1.342  0.00  0.00    +0.169 HD
ENDROOT
BRANCH   1  11
ATOM      7  C   UNL     1      -1.194  -1.349  -4.364  0.00  0.00    -0.046 A 
ATOM      8  C   UNL     1      -1.572  -0.159  -4.959  0.00  0.00    +0.004 A 
ATOM      9  C   UNL     1      -2.771   0.438  -4.618  0.00  0.00    +0.002 A 
ATOM     10  C   UNL     1      -3.597  -0.153  -3.682  0.00  0.00    +0.026 A 
ATOM     11  C   UNL     1      -3.221  -1.348  -3.083  0.00  0.00    +0.042 A 
ATOM     12  C   UNL     1      -2.018  -1.948  -3.432  0.00  0.00    +0.029 A 
BRANCH   7  14
ATOM     13  C   UNL     1      -0.106  -2.944  -5.920  0.00  0.00    +0.009 C 
ATOM     14  C   UNL     1       0.114  -1.996  -4.739  0.00  0.00    +0.032 C 
ENDBRANCH   7  14
ENDBRANCH   1  11
BRANCH   4  15
ATOM     15  C   UNL     1      -5.730  -1.926  -0.038  0.00  0.00    +0.270 C 
ATOM     16  O   UNL     1      -4.577  -1.572   0.132  0.00  0.00    -0.268 OA
BRANCH  15  17
ATOM     17  C   UNL     1      -6.590  -2.233   1.127  0.00  0.00    +0.040 A 
ATOM     18  C   UNL     1      -7.871  -2.752   0.936  0.00  0.00    +0.013 A 
ATOM     19  C   UNL     1      -8.668  -3.037   2.025  0.00  0.00    +0.002 A 
ATOM     20  C   UNL     1      -8.199  -2.808   3.307  0.00  0.00    +0.015 A 
ATOM     21  C   UNL     1      -6.930  -2.294   3.505  0.00  0.00    +0.019 A 
ATOM     22  C   UNL     1      -6.121  -2.011   2.422  0.00  0.00    +0.028 A 
ATOM     23 BR   UNL     1      -6.299  -1.984   5.260  0.00  0.00    -0.050 Br
ENDBRANCH  15  17
ENDBRANCH   4  15
BRANCH   3  24
ATOM     24  C   UNL     1      -7.366  -1.759  -3.781  0.00  0.00    +0.120 C 
BRANCH  24  25
ATOM     25  C   UNL     1      -7.674  -1.704  -5.279  0.00  0.00    +0.054 C 
BRANCH  25  26
ATOM     26  C   UNL     1      -9.161  -1.568  -5.481  0.00  0.00    -0.040 C 
ATOM     27  C   UNL     1      -9.855  -0.422  -5.669  0.00  0.00    -0.001 A 
ATOM     28  C   UNL     1      -9.448   0.987  -5.738  0.00  0.00    +0.010 A 
ATOM     29  C   UNL     1     -10.393   1.933  -5.941  0.00  0.00    +0.001 A 
ATOM     30  C   UNL     1     -11.747   1.603  -6.085  0.00  0.00    +0.002 A 
ATOM     31  C   UNL     1     -12.198   0.332  -6.034  0.00  0.00    +0.026 A 
ATOM     32  C   UNL     1     -11.291  -0.744  -5.825  0.00  0.00    +0.043 A 
ATOM     33  N   UNL     1     -11.478  -2.038  -5.737  0.00  0.00    -0.380 N 
ATOM     34  C   UNL     1     -10.179  -2.685  -5.521  0.00  0.00    +0.144 C 
ATOM     35  H   UNL     1     -12.332  -2.493  -5.808  0.00  0.00    +0.160 HD
ENDBRANCH  25  26
ENDBRANCH  24  25
ENDBRANCH   3  24
TORSDOF 7
