REMARK  Name = ZINC38790399
REMARK  7 active torsions:
REMARK  status: ('A' for Active; 'I' for Inactive)
REMARK    1  A    between atoms: C_1  and  O_2
REMARK    2  A    between atoms: O_2  and  C_3
REMARK    3  A    between atoms: C_10  and  C_15
REMARK    4  A    between atoms: C_15  and  N_16
REMARK    5  A    between atoms: N_16  and  C_17
REMARK    6  A    between atoms: C_20  and  N_23
REMARK    7  A    between atoms: C_27  and  O_30
REMARK                            x       y       z     vdW  Elec       q    Type
REMARK                         _______ _______ _______ _____ _____    ______ ____
ROOT
ATOM      1  N   UNL     1      -5.322  -6.369   1.155  0.00  0.00    -0.343 N 
ATOM      2  H   UNL     1      -5.891  -6.302   0.372  0.00  0.00    +0.146 HD
ENDROOT
BRANCH   1   3
ATOM      3  C   UNL     1      -5.637  -7.277   2.173  0.00  0.00    +0.027 A 
ATOM      4  C   UNL     1      -4.825  -7.369   3.296  0.00  0.00    +0.025 A 
ATOM      5  C   UNL     1      -5.136  -8.264   4.301  0.00  0.00    +0.025 A 
ATOM      6  C   UNL     1      -6.259  -9.072   4.188  0.00  0.00    +0.030 A 
ATOM      7  C   UNL     1      -7.071  -8.980   3.065  0.00  0.00    +0.025 A 
ATOM      8  C   UNL     1      -6.764  -8.081   2.063  0.00  0.00    +0.025 A 
BRANCH   6   9
ATOM      9  N   UNL     1      -6.574  -9.980   5.206  0.00  0.00    -0.327 N 
ATOM     10  C   UNL     1      -7.821 -10.755   5.159  0.00  0.00    +0.105 C 
ATOM     11  C   UNL     1      -7.483 -12.243   5.300  0.00  0.00    +0.021 C 
ATOM     12  C   UNL     1      -6.658 -12.456   6.572  0.00  0.00    +0.034 C 
ATOM     13  C   UNL     1      -5.348 -11.671   6.470  0.00  0.00    +0.132 C 
ATOM     14  C   UNL     1      -5.659 -10.181   6.339  0.00  0.00    +0.136 C 
BRANCH  13  15
ATOM     15  O   UNL     1      -4.565 -11.896   7.643  0.00  0.00    -0.390 OA
ATOM     16  H   UNL     1      -4.331 -12.822   7.789  0.00  0.00    +0.210 HD
ENDBRANCH  13  15
ENDBRANCH   6   9
ENDBRANCH   1   3
BRANCH   1  17
ATOM     17  C   UNL     1      -4.133  -5.521   1.271  0.00  0.00    +0.118 C 
BRANCH  17  25
ATOM     18  C   UNL     1      -1.248  -0.600   0.029  0.00  0.00    +0.121 A 
ATOM     19  C   UNL     1      -2.431   0.147   0.026  0.00  0.00    +0.047 A 
ATOM     20  C   UNL     1      -3.660  -0.429   0.025  0.00  0.00    +0.027 A 
ATOM     21  C   UNL     1      -3.794  -1.830   0.028  0.00  0.00    +0.041 A 
ATOM     22  N   UNL     1      -5.008  -2.382   0.027  0.00  0.00    -0.284 N 
ATOM     23  C   UNL     1      -5.206  -3.690   0.029  0.00  0.00    +0.226 C 
ATOM     24  O   UNL     1      -6.338  -4.136   0.028  0.00  0.00    -0.275 OA
ATOM     25  C   UNL     1      -4.021  -4.628   0.034  0.00  0.00    +0.115 C 
ATOM     26  C   UNL     1      -2.638  -4.006   0.035  0.00  0.00    -0.003 C 
ATOM     27  C   UNL     1      -2.566  -2.644   0.031  0.00  0.00    -0.004 A 
ATOM     28  C   UNL     1      -1.272  -1.962   0.026  0.00  0.00    +0.055 A 
ATOM     29  H   UNL     1      -5.781  -1.798   0.025  0.00  0.00    +0.155 HD
BRANCH  18  31
ATOM     30  C   UNL     1      -0.085   1.474   0.033  0.00  0.00    +0.277 C 
ATOM     31  O   UNL     1      -0.051   0.045   0.029  0.00  0.00    -0.495 OA
ENDBRANCH  18  31
ENDBRANCH  17  25
ENDBRANCH   1  17
TORSDOF 6
