REMARK  Name = ZINC15971919
REMARK  7 active torsions:
REMARK  status: ('A' for Active; 'I' for Inactive)
REMARK    1  A    between atoms: C_1  and  C_2
REMARK    2  A    between atoms: C_2  and  C_3
REMARK    3  A    between atoms: C_2  and  C_4
REMARK    4  A    between atoms: C_2  and  N_5
REMARK    5  A    between atoms: C_26  and  C_28
REMARK    6  A    between atoms: C_28  and  C_30
REMARK    7  A    between atoms: C_28  and  O_37
REMARK                            x       y       z     vdW  Elec       q    Type
REMARK                         _______ _______ _______ _____ _____    ______ ____
ROOT
ATOM      1  N   UNL     1       0.688  -0.476  -1.203  0.00  0.00    -0.236 N 
ATOM      2  C   UNL     1       0.091  -1.247  -2.120  0.00  0.00    +0.228 C 
ATOM      3  O   UNL     1      -1.054  -1.640  -2.067  0.00  0.00    -0.275 OA
ATOM      4  C   UNL     1       1.067  -1.550  -3.234  0.00  0.00    +0.110 C 
ATOM      5  C   UNL     1       2.363  -0.819  -2.784  0.00  0.00    +0.123 C 
ATOM      6  C   UNL     1       1.960  -0.168  -1.480  0.00  0.00    +0.229 C 
ATOM      7  O   UNL     1       2.679   0.523  -0.790  0.00  0.00    -0.275 OA
ATOM      8  C   UNL     1       3.373  -1.945  -2.529  0.00  0.00    +0.136 C 
ATOM      9  C   UNL     1       4.296  -2.133  -3.699  0.00  0.00    +0.006 A 
ATOM     10  C   UNL     1       4.095  -2.443  -5.026  0.00  0.00    +0.046 A 
ATOM     11  C   UNL     1       5.177  -2.550  -5.884  0.00  0.00    +0.124 A 
ATOM     12  C   UNL     1       6.460  -2.345  -5.404  0.00  0.00    +0.040 A 
ATOM     13  C   UNL     1       6.664  -2.036  -4.075  0.00  0.00    +0.026 A 
ATOM     14  C   UNL     1       5.581  -1.926  -3.206  0.00  0.00    +0.039 A 
ATOM     15  N   UNL     1       5.533  -1.629  -1.841  0.00  0.00    -0.283 N 
ATOM     16  C   UNL     1       4.272  -1.622  -1.367  0.00  0.00    +0.243 C 
ATOM     17  O   UNL     1       3.928  -1.397  -0.226  0.00  0.00    -0.273 OA
ATOM     18  F   UNL     1       4.982  -2.854  -7.186  0.00  0.00    -0.205 F 
ATOM     19  N   UNL     1       2.572  -3.156  -2.270  0.00  0.00    -0.293 NA
ATOM     20  C   UNL     1       1.414  -3.053  -3.213  0.00  0.00    +0.101 C 
ATOM     21  H   UNL     1       6.316  -1.449  -1.298  0.00  0.00    +0.155 HD
ATOM     22  H   UNL     1       3.111  -3.990  -2.445  0.00  0.00    +0.124 HD
ENDROOT
BRANCH   1  24
ATOM     23  C   UNL     1      -0.019   1.526   0.010  0.00  0.00    +0.031 C 
ATOM     24  C   UNL     1       0.002  -0.004   0.002  0.00  0.00    +0.036 C 
ATOM     25  C   UNL     1       0.742  -0.511   1.242  0.00  0.00    +0.031 C 
ATOM     26  C   UNL     1      -1.433  -0.534   0.013  0.00  0.00    +0.031 C 
ENDBRANCH   1  24
BRANCH  20  27
ATOM     27  C   UNL     1       0.216  -3.869  -2.725  0.00  0.00    +0.162 C 
BRANCH  27  28
ATOM     28  C   UNL     1       0.576  -5.333  -2.712  0.00  0.00    -0.018 A 
ATOM     29  C   UNL     1       0.555  -6.059  -3.888  0.00  0.00    +0.007 A 
ATOM     30  C   UNL     1       0.885  -7.402  -3.878  0.00  0.00    +0.020 A 
ATOM     31  C   UNL     1       1.237  -8.018  -2.690  0.00  0.00    +0.041 A 
ATOM     32  C   UNL     1       1.259  -7.290  -1.514  0.00  0.00    +0.020 A 
ATOM     33  C   UNL     1       0.934  -5.947  -1.526  0.00  0.00    +0.007 A 
ATOM     34 CL   UNL     1       1.652  -9.703  -2.676  0.00  0.00    -0.084 Cl
ENDBRANCH  27  28
BRANCH  27  35
ATOM     35  O   UNL     1      -0.893  -3.659  -3.601  0.00  0.00    -0.386 OA
ATOM     36  H   UNL     1      -0.725  -3.919  -4.517  0.00  0.00    +0.210 HD
ENDBRANCH  27  35
ENDBRANCH  20  27
TORSDOF 4
