REMARK  Name = ZINC03819268
REMARK  5 active torsions:
REMARK  status: ('A' for Active; 'I' for Inactive)
REMARK    1  A    between atoms: C_3  and  O_19
REMARK    2  A    between atoms: C_6  and  C_7
REMARK    3  A    between atoms: C_9  and  C_12
REMARK    4  A    between atoms: O_19  and  C_20
REMARK    5  A    between atoms: C_23  and  N_26
REMARK                            x       y       z     vdW  Elec       q    Type
REMARK                         _______ _______ _______ _____ _____    ______ ____
ROOT
ATOM      1  C   UNL     1       1.116   3.175  -0.035  0.00  0.00    +0.221 A 
ATOM      2  C   UNL     1       1.184   1.791   0.067  0.00  0.00    +0.069 A 
ATOM      3  C   UNL     1       0.013   1.055   0.041  0.00  0.00    +0.030 A 
ATOM      4  C   UNL     1      -1.196   1.735  -0.092  0.00  0.00    +0.049 A 
ATOM      5  C   UNL     1      -1.186   3.119  -0.183  0.00  0.00    +0.137 A 
ATOM      6  N   UNL     1      -0.049   3.788  -0.155  0.00  0.00    -0.219 NA
ENDROOT
BRANCH   4   7
ATOM      7  N   UNL     1      -2.406   1.031  -0.129  0.00  0.00    -0.308 N 
ATOM      8  C   UNL     1      -2.175  -0.426  -0.007  0.00  0.00    +0.107 C 
ATOM      9  C   UNL     1      -3.398  -0.956   0.784  0.00  0.00    +0.022 C 
ATOM     10  C   UNL     1      -3.651   0.203   1.786  0.00  0.00    +0.046 C 
ATOM     11  C   UNL     1      -3.291   1.451   0.964  0.00  0.00    +0.189 C 
ATOM     12  C   UNL     1      -4.568   1.979   0.356  0.00  0.00    +0.253 C 
ATOM     13  O   UNL     1      -5.250   1.296  -0.378  0.00  0.00    -0.272 OA
ATOM     14  N   UNL     1      -4.918   3.249   0.666  0.00  0.00    -0.238 N 
ATOM     15  C   UNL     1      -4.170   4.006   1.476  0.00  0.00    +0.312 C 
ATOM     16  O   UNL     1      -4.558   5.135   1.703  0.00  0.00    -0.252 OA
ATOM     17  N   UNL     1      -3.028   3.620   2.057  0.00  0.00    -0.238 N 
ATOM     18  C   UNL     1      -2.516   2.383   1.865  0.00  0.00    +0.253 C 
ATOM     19  O   UNL     1      -1.481   2.037   2.393  0.00  0.00    -0.272 OA
ATOM     20  H   UNL     1      -5.733   3.619   0.292  0.00  0.00    +0.159 HD
ATOM     21  H   UNL     1      -2.555   4.244   2.630  0.00  0.00    +0.159 HD
ENDBRANCH   4   7
BRANCH   1  22
ATOM     22  O   UNL     1       2.260   3.906  -0.011  0.00  0.00    -0.438 OA
BRANCH  22  25
ATOM     23  C   UNL     1       1.618   7.430   0.609  0.00  0.00    +0.017 A 
ATOM     24  C   UNL     1       1.716   6.071   0.810  0.00  0.00    +0.047 A 
ATOM     25  C   UNL     1       2.165   5.245  -0.213  0.00  0.00    +0.130 A 
ATOM     26  C   UNL     1       2.522   5.787  -1.442  0.00  0.00    +0.047 A 
ATOM     27  C   UNL     1       2.421   7.146  -1.653  0.00  0.00    +0.017 A 
ATOM     28  C   UNL     1       1.970   7.978  -0.626  0.00  0.00    +0.037 A 
BRANCH  28  29
ATOM     29  C   UNL     1       1.866   9.435  -0.847  0.00  0.00    +0.228 A 
ATOM     30  N   UNL     1       2.172  10.063  -1.957  0.00  0.00    -0.209 NA
ATOM     31  C   UNL     1       1.945  11.382  -1.782  0.00  0.00    +0.110 A 
ATOM     32  C   UNL     1       1.493  11.554  -0.514  0.00  0.00    +0.226 A 
ATOM     33  O   UNL     1       1.447  10.336   0.059  0.00  0.00    -0.443 OA
BRANCH  31  34
ATOM     34  C   UNL     1       2.158  12.450  -2.790  0.00  0.00    +0.004 A 
ATOM     35  C   UNL     1       1.880  13.777  -2.471  0.00  0.00    +0.013 A 
ATOM     36  C   UNL     1       2.083  14.768  -3.410  0.00  0.00    +0.039 A 
ATOM     37  C   UNL     1       2.553  14.442  -4.672  0.00  0.00    +0.123 A 
ATOM     38  C   UNL     1       2.825  13.123  -4.996  0.00  0.00    +0.039 A 
ATOM     39  C   UNL     1       2.629  12.127  -4.061  0.00  0.00    +0.013 A 
ATOM     40  F   UNL     1       2.745  15.415  -5.591  0.00  0.00    -0.205 F 
ENDBRANCH  31  34
ENDBRANCH  28  29
ENDBRANCH  22  25
ENDBRANCH   1  22
TORSDOF 5
