REMARK  Name = ZINC16426702
REMARK  7 active torsions:
REMARK  status: ('A' for Active; 'I' for Inactive)
REMARK    1  A    between atoms: C_1  and  C_2
REMARK    2  A    between atoms: C_2  and  O_3
REMARK    3  A    between atoms: O_3  and  C_4
REMARK    4  A    between atoms: C_6  and  C_14
REMARK    5  A    between atoms: C_8  and  N_11
REMARK    6  A    between atoms: C_9  and  O_10
REMARK    7  A    between atoms: C_19  and  C_24
REMARK                            x       y       z     vdW  Elec       q    Type
REMARK                         _______ _______ _______ _____ _____    ______ ____
ROOT
ATOM      1  C   UNL     1      -3.284   1.234  -1.236  0.00  0.00    +0.136 C 
ATOM      2  C   UNL     1      -3.993   2.538  -1.517  0.00  0.00    +0.036 C 
ATOM      3  C   UNL     1      -3.702   3.728  -0.966  0.00  0.00    +0.017 C 
ATOM      4  C   UNL     1      -4.481   4.971  -1.366  0.00  0.00    +0.060 C 
ATOM      5  C   UNL     1      -5.927   4.596  -1.685  0.00  0.00    +0.039 C 
ATOM      6  C   UNL     1      -5.904   3.592  -2.843  0.00  0.00    +0.088 C 
ATOM      7  C   UNL     1      -5.053   2.424  -2.448  0.00  0.00    +0.163 C 
ATOM      8  O   UNL     1      -5.280   1.339  -2.946  0.00  0.00    -0.292 OA
ATOM      9  N   UNL     1      -2.723   3.940  -0.051  0.00  0.00    -0.316 N 
ATOM     10  C   UNL     1      -1.425   3.455  -0.153  0.00  0.00    +0.052 A 
ATOM     11  C   UNL     1      -0.329   4.292  -0.268  0.00  0.00    +0.025 A 
ATOM     12  C   UNL     1       0.943   3.745  -0.306  0.00  0.00    +0.002 A 
ATOM     13  C   UNL     1       1.117   2.376  -0.220  0.00  0.00    +0.002 A 
ATOM     14  C   UNL     1       0.021   1.536  -0.114  0.00  0.00    +0.025 A 
ATOM     15  C   UNL     1      -1.253   2.079  -0.106  0.00  0.00    +0.049 A 
ATOM     16  N   UNL     1      -2.389   1.271  -0.099  0.00  0.00    -0.331 N 
ATOM     17  H   UNL     1      -2.932   4.534   0.851  0.00  0.00    +0.152 HD
ATOM     18  H   UNL     1      -2.601   0.655   0.788  0.00  0.00    +0.147 HD
ENDROOT
BRANCH   1  21
ATOM     19  C   UNL     1      -2.055  -0.663  -4.263  0.00  0.00    +0.164 A 
ATOM     20  C   UNL     1      -2.788  -0.310  -3.141  0.00  0.00    +0.055 A 
ATOM     21  C   UNL     1      -2.486   0.852  -2.456  0.00  0.00    -0.017 A 
ATOM     22  C   UNL     1      -1.458   1.668  -2.891  0.00  0.00    +0.042 A 
ATOM     23  C   UNL     1      -0.720   1.319  -4.006  0.00  0.00    +0.171 A 
ATOM     24  C   UNL     1      -1.016   0.155  -4.697  0.00  0.00    +0.189 A 
BRANCH  23  25
ATOM     25  N   UNL     1       0.385   2.191  -4.465  0.00  0.00    +0.060 N 
ATOM     26  O   UNL     1       0.646   3.213  -3.857  0.00  0.00    -0.126 OA
ATOM     27  O   UNL     1       1.033   1.886  -5.450  0.00  0.00    -0.126 OA
ENDBRANCH  23  25
BRANCH  24  28
ATOM     28  O   UNL     1      -0.294  -0.187  -5.798  0.00  0.00    -0.502 OA
ATOM     29  H   UNL     1       0.527   0.460  -6.140  0.00  0.00    +0.292 HD
ENDBRANCH  24  28
BRANCH  19  30
ATOM     30  O   UNL     1      -2.351  -1.806  -4.939  0.00  0.00    -0.488 OA
BRANCH  30  32
ATOM     31  C   UNL     1      -3.612  -3.832  -5.319  0.00  0.00    +0.048 C 
ATOM     32  C   UNL     1      -3.430  -2.596  -4.436  0.00  0.00    +0.226 C 
ENDBRANCH  30  32
ENDBRANCH  19  30
ENDBRANCH   1  21
BRANCH   5  33
ATOM     33  C   UNL     1      -6.696   5.828  -2.090  0.00  0.00    -0.006 A 
ATOM     34  C   UNL     1      -7.797   6.373  -1.518  0.00  0.00    +0.011 A 
ATOM     35  C   UNL     1      -8.337   7.522  -2.064  0.00  0.00    +0.008 A 
ATOM     36  C   UNL     1      -7.756   8.063  -3.163  0.00  0.00    +0.045 A 
ATOM     37  S   UNL     1      -6.398   6.942  -3.453  0.00  0.00    -0.101 S 
ENDBRANCH   5  33
TORSDOF 6
