REMARK  Name = ZINC39685880
REMARK  15 active torsions:
REMARK  status: ('A' for Active; 'I' for Inactive)
REMARK    1  A    between atoms: C_1  and  C_2
REMARK    2  A    between atoms: C_2  and  C_3
REMARK    3  A    between atoms: C_3  and  C_5
REMARK    4  A    between atoms: C_3  and  C_6
REMARK    5  A    between atoms: C_6  and  C_7
REMARK    6  A    between atoms: C_11  and  C_20
REMARK    7  A    between atoms: N_22  and  C_23
REMARK    8  A    between atoms: C_23  and  C_25
REMARK    9  A    between atoms: C_23  and  C_28
REMARK   10  A    between atoms: C_25  and  C_26
REMARK   11  A    between atoms: C_25  and  C_27
REMARK   12  A    between atoms: N_30  and  C_31
REMARK   13  A    between atoms: C_31  and  C_32
REMARK   14  A    between atoms: C_31  and  C_33
REMARK   15  A    between atoms: C_31  and  C_34
REMARK                            x       y       z     vdW  Elec       q    Type
REMARK                         _______ _______ _______ _____ _____    ______ ____
ROOT
ATOM      1  C   UNL     1      -4.387  -3.830  -1.233  0.00  0.00    +0.216 C 
ATOM      2  O   UNL     1      -5.462  -3.472  -1.664  0.00  0.00    -0.276 OA
ATOM      3  N   UNL     1      -4.153  -5.138  -1.004  0.00  0.00    -0.300 N 
ATOM      4  C   UNL     1      -2.916  -5.761  -0.477  0.00  0.00    +0.121 C 
ATOM      5  C   UNL     1      -3.414  -6.872   0.474  0.00  0.00    +0.100 C 
ATOM      6  C   UNL     1      -4.831  -7.207  -0.020  0.00  0.00    -0.004 C 
ATOM      7  C   UNL     1      -5.079  -6.276  -1.216  0.00  0.00    +0.115 C 
ATOM      8  C   UNL     1      -5.853  -6.930   1.078  0.00  0.00    -0.010 C 
ATOM      9  C   UNL     1      -7.247  -7.325   0.582  0.00  0.00    -0.082 C 
ATOM     10  N   UNL     1      -7.256  -8.749   0.225  0.00  0.00    +0.379 N 
ATOM     11  C   UNL     1      -6.338  -8.991  -0.894  0.00  0.00    -0.082 C 
ATOM     12  C   UNL     1      -4.905  -8.666  -0.461  0.00  0.00    -0.010 C 
ATOM     13  H   UNL     1      -6.965  -9.295   1.022  0.00  0.00    -0.086 HD
ATOM     14  H   UNL     1      -8.190  -9.021  -0.043  0.00  0.00    -0.086 HD
ENDROOT
BRANCH   5  15
ATOM     15  C   UNL     1      -2.522  -8.083   0.379  0.00  0.00    +0.219 C 
ATOM     16  O   UNL     1      -1.976  -8.353  -0.670  0.00  0.00    -0.275 OA
ATOM     17  N   UNL     1      -2.331  -8.866   1.459  0.00  0.00    -0.303 N 
ATOM     18  H   UNL     1      -2.767  -8.650   2.298  0.00  0.00    +0.149 HD
BRANCH  17  19
ATOM     19  C   UNL     1      -1.464 -10.043   1.367  0.00  0.00    +0.161 C 
BRANCH  19  20
ATOM     20  C   UNL     1      -1.867 -11.048   2.414  0.00  0.00    +0.234 C 
ATOM     21  O   UNL     1      -2.535 -10.698   3.365  0.00  0.00    -0.274 OA
ATOM     22  N   UNL     1      -1.487 -12.335   2.295  0.00  0.00    -0.309 N 
ATOM     23  H   UNL     1      -0.896 -12.602   1.573  0.00  0.00    +0.149 HD
BRANCH  22  24
ATOM     24  C   UNL     1      -1.966 -13.333   3.256  0.00  0.00    +0.026 C 
ATOM     25  C   UNL     1      -3.494 -13.393   3.209  0.00  0.00    +0.031 C 
ATOM     26  C   UNL     1      -1.390 -14.704   2.897  0.00  0.00    +0.031 C 
ATOM     27  C   UNL     1      -1.513 -12.943   4.664  0.00  0.00    +0.031 C 
ENDBRANCH  22  24
ENDBRANCH  19  20
BRANCH  19  28
ATOM     28  C   UNL     1      -0.010  -9.625   1.595  0.00  0.00    +0.012 C 
ATOM     29  C   UNL     1       0.431  -8.681   0.475  0.00  0.00    +0.009 C 
ATOM     30  C   UNL     1       0.110  -8.909   2.942  0.00  0.00    +0.009 C 
ENDBRANCH  19  28
ENDBRANCH  17  19
ENDBRANCH   5  15
BRANCH   1  31
ATOM     31  C   UNL     1      -3.311  -2.812  -0.953  0.00  0.00    +0.099 C 
BRANCH  31  32
ATOM     32  C   UNL     1      -3.829  -1.415  -1.295  0.00  0.00    -0.006 C 
ATOM     33  C   UNL     1      -4.092  -1.323  -2.800  0.00  0.00    +0.008 C 
BRANCH  32  35
ATOM     34  C   UNL     1      -3.353   1.032  -1.122  0.00  0.00    +0.004 C 
ATOM     35  C   UNL     1      -2.785  -0.371  -0.895  0.00  0.00    +0.000 C 
ENDBRANCH  32  35
ENDBRANCH  31  32
ENDBRANCH   1  31
TORSDOF 8
