REMARK  Name = ZINC08685502
REMARK  8 active torsions:
REMARK  status: ('A' for Active; 'I' for Inactive)
REMARK    1  A    between atoms: C_1  and  C_2
REMARK    2  A    between atoms: C_5  and  S_28
REMARK    3  A    between atoms: C_7  and  C_8
REMARK    4  A    between atoms: C_8  and  O_10
REMARK    5  A    between atoms: O_10  and  C_11
REMARK    6  A    between atoms: C_11  and  C_12
REMARK    7  A    between atoms: N_17  and  C_18
REMARK    8  A    between atoms: S_28  and  N_31
REMARK                            x       y       z     vdW  Elec       q    Type
REMARK                         _______ _______ _______ _____ _____    ______ ____
ROOT
ATOM      1  O   UNL     1       0.465  -0.657   3.623  0.00  0.00    -0.452 OA
ENDROOT
BRANCH   1   2
ATOM      2  C   UNL     1       0.242   0.020   2.480  0.00  0.00    +0.340 C 
ATOM      3  O   UNL     1       0.134   1.230   2.502  0.00  0.00    -0.245 OA
BRANCH   2  10
ATOM      4  C   UNL     1      -0.510   1.452   0.082  0.00  0.00    +0.044 C 
ATOM      5  C   UNL     1      -0.234  -0.028   0.036  0.00  0.00    -0.036 A 
ATOM      6  C   UNL     1      -0.333  -0.714  -1.157  0.00  0.00    +0.006 A 
ATOM      7  C   UNL     1      -0.079  -2.073  -1.200  0.00  0.00    +0.029 A 
ATOM      8  C   UNL     1       0.275  -2.755  -0.049  0.00  0.00    +0.106 A 
ATOM      9  C   UNL     1       0.378  -2.081   1.150  0.00  0.00    +0.043 A 
ATOM     10  C   UNL     1       0.128  -0.708   1.200  0.00  0.00    +0.064 A 
BRANCH   8  11
ATOM     11  S   UNL     1       0.595  -4.486  -0.116  0.00  0.00    +0.061 S 
ATOM     12  O   UNL     1       0.375  -4.990   1.195  0.00  0.00    -0.153 OA
ATOM     13  O   UNL     1      -0.100  -4.984  -1.250  0.00  0.00    -0.153 OA
BRANCH  11  14
ATOM     14  N   UNL     1       2.210  -4.674  -0.430  0.00  0.00    -0.177 NA
ATOM     15  C   UNL     1       2.699  -4.749  -1.813  0.00  0.00    +0.109 C 
ATOM     16  C   UNL     1       3.801  -3.702  -2.004  0.00  0.00    +0.017 C 
ATOM     17  C   UNL     1       4.884  -3.906  -0.942  0.00  0.00    +0.003 C 
ATOM     18  C   UNL     1       4.277  -3.720   0.450  0.00  0.00    +0.017 C 
ATOM     19  C   UNL     1       3.181  -4.762   0.669  0.00  0.00    +0.109 C 
ENDBRANCH  11  14
ENDBRANCH   8  11
ENDBRANCH   2  10
ENDBRANCH   1   2
BRANCH   1  20
ATOM     20  C   UNL     1       0.563   0.112   4.824  0.00  0.00    +0.328 C 
BRANCH  20  21
ATOM     21  C   UNL     1       0.811  -0.809   5.991  0.00  0.00    +0.258 C 
ATOM     22  O   UNL     1       0.895  -2.005   5.812  0.00  0.00    -0.272 OA
ATOM     23  N   UNL     1       0.940  -0.303   7.234  0.00  0.00    -0.237 N 
ATOM     24  C   UNL     1       1.162  -1.126   8.277  0.00  0.00    +0.306 C 
ATOM     25  O   UNL     1       1.246  -2.325   8.098  0.00  0.00    -0.252 OA
ATOM     26  N   UNL     1       1.290  -0.620   9.520  0.00  0.00    -0.294 N 
ATOM     27  H   UNL     1       0.873   0.654   7.377  0.00  0.00    +0.159 HD
ATOM     28  H   UNL     1       1.223   0.337   9.663  0.00  0.00    +0.151 HD
BRANCH  26  29
ATOM     29  C   UNL     1       1.532  -1.515  10.654  0.00  0.00    +0.037 C 
ATOM     30  C   UNL     1       0.373  -2.507  10.777  0.00  0.00    +0.029 C 
ATOM     31  C   UNL     1       0.625  -3.441  11.961  0.00  0.00    -0.008 C 
ATOM     32  C   UNL     1       0.731  -2.619  13.247  0.00  0.00    +0.007 C 
ATOM     33  C   UNL     1       1.889  -1.627  13.124  0.00  0.00    -0.008 C 
ATOM     34  C   UNL     1       1.637  -0.692  11.939  0.00  0.00    +0.029 C 
ATOM     35  C   UNL     1       3.195  -2.393  12.900  0.00  0.00    +0.007 C 
ATOM     36  C   UNL     1       3.089  -3.216  11.615  0.00  0.00    -0.008 C 
ATOM     37  C   UNL     1       1.930  -4.208  11.738  0.00  0.00    +0.007 C 
ATOM     38  C   UNL     1       2.837  -2.281  10.430  0.00  0.00    +0.029 C 
ENDBRANCH  26  29
ENDBRANCH  20  21
ENDBRANCH   1  20
TORSDOF 7
