REMARK  Name = ZINC08895321
REMARK  8 active torsions:
REMARK  status: ('A' for Active; 'I' for Inactive)
REMARK    1  A    between atoms: C_1  and  C_2
REMARK    2  A    between atoms: C_3  and  C_7
REMARK    3  A    between atoms: C_10  and  S_15
REMARK    4  A    between atoms: N_11  and  C_12
REMARK    5  A    between atoms: C_12  and  C_13
REMARK    6  A    between atoms: S_15  and  C_16
REMARK    7  A    between atoms: C_16  and  C_17
REMARK    8  A    between atoms: C_30  and  C_32
REMARK                            x       y       z     vdW  Elec       q    Type
REMARK                         _______ _______ _______ _____ _____    ______ ____
ROOT
ATOM      1  C   UNL     1       3.033   3.841   0.519  0.00  0.00    +0.173 C 
ENDROOT
BRANCH   1   2
ATOM      2  C   UNL     1       1.597   3.385   0.480  0.00  0.00    +0.230 C 
ATOM      3  O   UNL     1       0.794   3.841   1.267  0.00  0.00    -0.274 OA
ATOM      4  N   UNL     1       1.206   2.470  -0.429  0.00  0.00    -0.266 N 
ATOM      5  C   UNL     1       2.121   1.936  -1.345  0.00  0.00    +0.058 A 
ATOM      6  C   UNL     1       2.588   2.698  -2.403  0.00  0.00    +0.025 A 
ATOM      7  C   UNL     1       3.461   2.142  -3.320  0.00  0.00    +0.002 A 
ATOM      8  C   UNL     1       3.870   0.828  -3.185  0.00  0.00    +0.002 A 
ATOM      9  C   UNL     1       3.418   0.063  -2.125  0.00  0.00    +0.025 A 
ATOM     10  C   UNL     1       2.551   0.617  -1.197  0.00  0.00    +0.055 A 
ATOM     11  N   UNL     1       2.100  -0.127  -0.100  0.00  0.00    -0.284 N 
ATOM     12  C   UNL     1       0.784  -0.171   0.205  0.00  0.00    +0.219 C 
ATOM     13  O   UNL     1       0.417  -0.755   1.203  0.00  0.00    -0.275 OA
ATOM     14  C   UNL     1      -0.229   0.501  -0.683  0.00  0.00    +0.118 C 
ATOM     15  C   UNL     1      -0.185   2.017  -0.480  0.00  0.00    +0.087 C 
ATOM     16  C   UNL     1      -0.903   2.707  -1.641  0.00  0.00    +0.029 C 
ATOM     17  H   UNL     1       2.737  -0.615   0.445  0.00  0.00    +0.155 HD
ENDBRANCH   1   2
BRANCH   1  18
ATOM     18  S   UNL     1       3.242   5.063   1.838  0.00  0.00    -0.077 S 
BRANCH  18  22
ATOM     19  C   UNL     1       6.971   6.228   1.917  0.00  0.00    +0.168 A 
ATOM     20  N   UNL     1       6.960   5.360   0.933  0.00  0.00    -0.128 NA
ATOM     21  N   UNL     1       5.778   4.876   0.787  0.00  0.00    -0.122 NA
ATOM     22  C   UNL     1       4.960   5.413   1.662  0.00  0.00    +0.193 A 
ATOM     23  N   UNL     1       5.691   6.290   2.415  0.00  0.00    -0.298 N 
BRANCH  19  26
ATOM     24  C   UNL     1       9.829   5.085   2.510  0.00  0.00    +0.087 C 
ATOM     25  C   UNL     1       9.386   6.517   2.661  0.00  0.00    +0.112 A 
ATOM     26  C   UNL     1       8.140   6.996   2.399  0.00  0.00    +0.060 A 
ATOM     27  C   UNL     1       8.197   8.435   2.687  0.00  0.00    +0.053 A 
ATOM     28  C   UNL     1       9.452   8.680   3.099  0.00  0.00    +0.196 A 
ATOM     29  O   UNL     1      10.152   7.536   3.077  0.00  0.00    -0.467 OA
ENDBRANCH  19  26
BRANCH  23  30
ATOM     30  C   UNL     1       5.210   7.121   3.521  0.00  0.00    +0.152 C 
BRANCH  30  31
ATOM     31  C   UNL     1       5.375   6.374   4.819  0.00  0.00    -0.013 C 
ATOM     32  C   UNL     1       6.046   6.915   5.806  0.00  0.00    +0.005 C 
ENDBRANCH  30  31
ENDBRANCH  23  30
ENDBRANCH  18  22
ENDBRANCH   1  18
TORSDOF 6
