REMARK  Name = ZINC22635173
REMARK  5 active torsions:
REMARK  status: ('A' for Active; 'I' for Inactive)
REMARK    1  A    between atoms: C_1  and  C_2
REMARK    2  A    between atoms: C_2  and  C_3
REMARK    3  A    between atoms: C_2  and  N_4
REMARK    4  A    between atoms: C_12  and  O_27
REMARK    5  A    between atoms: C_14  and  C_17
REMARK                            x       y       z     vdW  Elec       q    Type
REMARK                         _______ _______ _______ _____ _____    ______ ____
ROOT
ATOM      1  N   UNL     1      -3.693   4.688  -6.849  0.00  0.00    +0.384 N 
ATOM      2  C   UNL     1      -2.482   5.372  -6.375  0.00  0.00    -0.073 C 
ATOM      3  C   UNL     1      -2.663   5.815  -4.920  0.00  0.00    +0.018 C 
ATOM      4  C   UNL     1      -3.126   4.611  -4.109  0.00  0.00    -0.027 A 
ATOM      5  C   UNL     1      -3.642   3.528  -4.740  0.00  0.00    -0.021 A 
ATOM      6  S   UNL     1      -4.039   2.391  -3.441  0.00  0.00    -0.080 S 
ATOM      7  C   UNL     1      -3.536   3.330  -2.102  0.00  0.00    +0.080 A 
ATOM      8  C   UNL     1      -3.056   4.521  -2.663  0.00  0.00    +0.067 A 
ATOM      9  C   UNL     1      -2.531   5.550  -1.728  0.00  0.00    +0.220 C 
ATOM     10  N   UNL     1      -2.364   5.210  -0.480  0.00  0.00    -0.223 NA
ATOM     11  C   UNL     1      -2.560   3.865   0.048  0.00  0.00    +0.225 C 
ATOM     12  N   UNL     1      -3.542   3.105  -0.746  0.00  0.00    -0.313 N 
ATOM     13  C   UNL     1      -3.825   3.362  -6.215  0.00  0.00    -0.035 C 
ATOM     14  H   UNL     1      -4.227   2.403  -0.248  0.00  0.00    +0.149 HD
ATOM     15  H   UNL     1      -4.563   5.297  -6.561  0.00  0.00    -0.081 HD
ENDROOT
BRANCH  11  16
ATOM     16  C   UNL     1      -1.242   3.134   0.031  0.00  0.00    +0.017 A 
ATOM     17  C   UNL     1      -0.057   3.847   0.024  0.00  0.00    +0.058 A 
ATOM     18  C   UNL     1       1.155   3.177   0.008  0.00  0.00    +0.167 A 
ATOM     19  C   UNL     1       1.177   1.784   0.000  0.00  0.00    +0.168 A 
ATOM     20  C   UNL     1      -0.013   1.076   0.008  0.00  0.00    +0.070 A 
ATOM     21  C   UNL     1      -1.220   1.751   0.017  0.00  0.00    +0.051 A 
ATOM     22 CL   UNL     1      -2.711   0.861   0.019  0.00  0.00    -0.083 Cl
ATOM     23  O   UNL     1       2.478   1.369  -0.015  0.00  0.00    -0.453 OA
ATOM     24  C   UNL     1       3.243   2.517  -0.428  0.00  0.00    +0.466 C 
ATOM     25  O   UNL     1       2.441   3.634  -0.002  0.00  0.00    -0.453 OA
ENDBRANCH  11  16
BRANCH   1  27
ATOM     26  C   UNL     1      -2.506   3.720  -8.759  0.00  0.00    -0.014 C 
ATOM     27  C   UNL     1      -3.695   4.574  -8.313  0.00  0.00    -0.074 C 
ATOM     28  C   UNL     1      -4.996   3.914  -8.773  0.00  0.00    -0.014 C 
ENDBRANCH   1  27
BRANCH   9  29
ATOM     29  O   UNL     1      -2.236   6.799  -2.158  0.00  0.00    -0.492 OA
ATOM     30  H   UNL     1      -1.849   7.546  -1.450  0.00  0.00    +0.294 HD
ENDBRANCH   9  29
TORSDOF 3
