REMARK  Name = ZINC38964730
REMARK  4 active torsions:
REMARK  status: ('A' for Active; 'I' for Inactive)
REMARK    1  A    between atoms: C_4  and  C_7
REMARK    2  A    between atoms: C_11  and  S_13
REMARK    3  A    between atoms: S_13  and  C_14
REMARK    4  A    between atoms: C_16  and  C_27
REMARK                            x       y       z     vdW  Elec       q    Type
REMARK                         _______ _______ _______ _____ _____    ______ ____
ROOT
ATOM      1  C   UNL     1       6.667   2.503   0.176  0.00  0.00    +0.171 C 
ATOM      2  C   UNL     1       8.118   2.945   0.159  0.00  0.00    -0.008 C 
ATOM      3  C   UNL     1       8.601   3.490  -1.034  0.00  0.00    +0.002 A 
ATOM      4  C   UNL     1       9.939   3.927  -1.135  0.00  0.00    +0.011 A 
ATOM      5  C   UNL     1      10.389   4.454  -2.305  0.00  0.00    +0.021 A 
ATOM      6  C   UNL     1       9.553   4.576  -3.414  0.00  0.00    +0.043 A 
ATOM      7  C   UNL     1       8.241   4.169  -3.376  0.00  0.00    +0.044 A 
ATOM      8  C   UNL     1       7.715   3.614  -2.197  0.00  0.00    +0.042 A 
ATOM      9  N   UNL     1       6.438   3.217  -2.160  0.00  0.00    -0.284 N 
ATOM     10  C   UNL     1       5.870   2.689  -1.095  0.00  0.00    +0.235 C 
ATOM     11  O   UNL     1       4.702   2.351  -1.134  0.00  0.00    -0.274 OA
ATOM     12 CL   UNL     1      10.185   5.258  -4.880  0.00  0.00    -0.083 Cl
ATOM     13  H   UNL     1       5.901   3.324  -2.961  0.00  0.00    +0.155 HD
ENDROOT
BRANCH   2  14
ATOM     14  C   UNL     1       8.946   2.812   1.300  0.00  0.00    -0.001 A 
ATOM     15  C   UNL     1       9.997   1.879   1.307  0.00  0.00    +0.010 A 
ATOM     16  C   UNL     1      10.796   1.758   2.421  0.00  0.00    +0.001 A 
ATOM     17  C   UNL     1      10.568   2.551   3.535  0.00  0.00    +0.001 A 
ATOM     18  C   UNL     1       9.535   3.473   3.541  0.00  0.00    +0.020 A 
ATOM     19  C   UNL     1       8.726   3.615   2.433  0.00  0.00    +0.048 A 
ATOM     20 CL   UNL     1       7.436   4.777   2.440  0.00  0.00    -0.083 Cl
ENDBRANCH   2  14
BRANCH   1  21
ATOM     21  S   UNL     1       6.627   0.742   0.606  0.00  0.00    -0.070 S 
BRANCH  21  26
ATOM     22  C   UNL     1       2.728   1.156   0.880  0.00  0.00    +0.079 A 
ATOM     23  C   UNL     1       2.281  -0.110   1.230  0.00  0.00    +0.098 A 
ATOM     24  C   UNL     1       3.223  -1.137   1.387  0.00  0.00    +0.253 A 
ATOM     25  N   UNL     1       4.529  -0.859   1.194  0.00  0.00    -0.302 N 
ATOM     26  C   UNL     1       4.916   0.402   0.852  0.00  0.00    +0.170 A 
ATOM     27  N   UNL     1       4.037   1.371   0.697  0.00  0.00    -0.223 NA
ATOM     28  O   UNL     1       2.867  -2.264   1.694  0.00  0.00    -0.268 OA
ATOM     29  H   UNL     1       5.193  -1.557   1.299  0.00  0.00    +0.171 HD
BRANCH  22  33
ATOM     30  C   UNL     1      -0.047   4.337   0.377  0.00  0.00    +0.000 A 
ATOM     31  C   UNL     1       1.305   4.566   0.193  0.00  0.00    +0.001 A 
ATOM     32  C   UNL     1       2.211   3.537   0.354  0.00  0.00    +0.010 A 
ATOM     33  C   UNL     1       1.761   2.265   0.706  0.00  0.00    +0.001 A 
ATOM     34  C   UNL     1       0.397   2.040   0.891  0.00  0.00    +0.010 A 
ATOM     35  C   UNL     1      -0.499   3.076   0.726  0.00  0.00    +0.001 A 
ENDBRANCH  22  33
ENDBRANCH  21  26
ENDBRANCH   1  21
TORSDOF 4
