REMARK  Name = ZINC14464141
REMARK  6 active torsions:
REMARK  status: ('A' for Active; 'I' for Inactive)
REMARK    1  A    between atoms: C_1  and  C_2
REMARK    2  A    between atoms: C_6  and  C_38
REMARK    3  A    between atoms: C_7  and  N_8
REMARK    4  A    between atoms: N_8  and  S_9
REMARK    5  A    between atoms: S_9  and  C_12
REMARK    6  A    between atoms: C_25  and  C_28
REMARK                            x       y       z     vdW  Elec       q    Type
REMARK                         _______ _______ _______ _____ _____    ______ ____
ROOT
ATOM      1  C   UNL     1       0.097   9.756  -2.103  0.00  0.00    +0.109 A 
ATOM      2  C   UNL     1       0.354   9.861  -0.748  0.00  0.00    +0.030 A 
ATOM      3  C   UNL     1       0.984   8.831  -0.080  0.00  0.00    +0.025 A 
ATOM      4  C   UNL     1       1.365   7.681  -0.762  0.00  0.00    +0.031 A 
ATOM      5  C   UNL     1       1.091   7.577  -2.130  0.00  0.00    -0.018 A 
ATOM      6  C   UNL     1       0.466   8.614  -2.789  0.00  0.00    +0.034 A 
ATOM      7  C   UNL     1       1.492   6.328  -2.813  0.00  0.00    +0.049 C 
ATOM      8  C   UNL     1       1.790   6.260  -4.276  0.00  0.00    -0.023 C 
ATOM      9  C   UNL     1       2.728   5.344  -4.488  0.00  0.00    -0.030 C 
ATOM     10  C   UNL     1       3.155   4.715  -3.160  0.00  0.00    +0.033 C 
ATOM     11  C   UNL     1       2.822   5.836  -2.167  0.00  0.00    +0.029 C 
ATOM     12  C   UNL     1       2.455   5.422  -0.753  0.00  0.00    +0.105 C 
ATOM     13  N   UNL     1       2.035   6.665  -0.070  0.00  0.00    -0.336 N 
ATOM     14  H   UNL     1       2.226   6.778   0.874  0.00  0.00    +0.147 HD
ENDROOT
BRANCH  12  15
ATOM     15  C   UNL     1       1.319   4.432  -0.778  0.00  0.00    -0.019 A 
ATOM     16  C   UNL     1       0.035   4.859  -0.629  0.00  0.00    +0.006 A 
ATOM     17  C   UNL     1      -1.028   3.959  -0.648  0.00  0.00    +0.001 A 
ATOM     18  C   UNL     1      -0.813   2.626  -0.819  0.00  0.00    +0.008 A 
ATOM     19  C   UNL     1       0.498   2.147  -0.977  0.00  0.00    -0.018 A 
ATOM     20  C   UNL     1       1.579   3.063  -0.957  0.00  0.00    -0.013 A 
ATOM     21  C   UNL     1       2.891   2.584  -1.116  0.00  0.00    +0.009 A 
ATOM     22  C   UNL     1       3.105   1.251  -1.287  0.00  0.00    +0.001 A 
ATOM     23  C   UNL     1       2.042   0.350  -1.308  0.00  0.00    +0.001 A 
ATOM     24  C   UNL     1       0.758   0.778  -1.162  0.00  0.00    +0.008 A 
ENDBRANCH  12  15
BRANCH   1  25
ATOM     25  S   UNL     1      -0.700  11.077  -2.954  0.00  0.00    +0.072 S 
ATOM     26  O   UNL     1      -1.216  10.530  -4.160  0.00  0.00    -0.150 OA
ATOM     27  O   UNL     1      -1.524  11.735  -2.001  0.00  0.00    -0.150 OA
BRANCH  25  28
ATOM     28  N   UNL     1       0.476  12.158  -3.389  0.00  0.00    -0.216 N 
ATOM     29  H   UNL     1       0.488  13.046  -2.998  0.00  0.00    +0.174 HD
BRANCH  28  36
ATOM     30  C   UNL     1       3.085  11.548  -2.431  0.00  0.00    +0.046 C 
ATOM     31  C   UNL     1       2.738  11.486  -3.897  0.00  0.00    -0.028 A 
ATOM     32  C   UNL     1       3.699  11.121  -4.819  0.00  0.00    +0.005 A 
ATOM     33  C   UNL     1       3.383  11.069  -6.165  0.00  0.00    +0.001 A 
ATOM     34  C   UNL     1       2.104  11.378  -6.590  0.00  0.00    +0.005 A 
ATOM     35  C   UNL     1       1.137  11.740  -5.672  0.00  0.00    -0.028 A 
ATOM     36  C   UNL     1       1.451  11.793  -4.320  0.00  0.00    +0.054 A 
ATOM     37  C   UNL     1      -0.256  12.077  -6.137  0.00  0.00    +0.046 C 
ENDBRANCH  28  36
ENDBRANCH  25  28
ENDBRANCH   1  25
TORSDOF 4
