REMARK  Name = ZINC20881824
REMARK  9 active torsions:
REMARK  status: ('A' for Active; 'I' for Inactive)
REMARK    1  A    between atoms: C_1  and  C_2
REMARK    2  A    between atoms: C_2  and  O_3
REMARK    3  A    between atoms: O_3  and  C_4
REMARK    4  A    between atoms: C_7  and  C_12
REMARK    5  A    between atoms: C_9  and  O_10
REMARK    6  A    between atoms: O_10  and  C_11
REMARK    7  A    between atoms: C_17  and  C_27
REMARK    8  A    between atoms: C_30  and  O_36
REMARK    9  A    between atoms: C_31  and  N_33
REMARK                            x       y       z     vdW  Elec       q    Type
REMARK                         _______ _______ _______ _____ _____    ______ ____
ROOT
ATOM      1  C   UNL     1       4.785  -1.246   1.559  0.00  0.00    +0.032 C 
ATOM      2  C   UNL     1       4.342   0.194   1.308  0.00  0.00    +0.059 C 
ATOM      3  C   UNL     1       2.876   0.222   0.907  0.00  0.00    +0.017 C 
ATOM      4  C   UNL     1       2.018  -0.680   1.408  0.00  0.00    +0.036 C 
ATOM      5  C   UNL     1       0.536  -0.750   1.122  0.00  0.00    +0.136 C 
ATOM      6  N   UNL     1       0.101   0.094   0.029  0.00  0.00    -0.331 N 
ATOM      7  C   UNL     1       0.199   1.480   0.108  0.00  0.00    +0.049 A 
ATOM      8  C   UNL     1      -0.932   2.282   0.141  0.00  0.00    +0.025 A 
ATOM      9  C   UNL     1      -0.791   3.653   0.269  0.00  0.00    +0.002 A 
ATOM     10  C   UNL     1       0.466   4.223   0.368  0.00  0.00    +0.002 A 
ATOM     11  C   UNL     1       1.598   3.426   0.319  0.00  0.00    +0.025 A 
ATOM     12  C   UNL     1       1.458   2.058   0.167  0.00  0.00    +0.052 A 
ATOM     13  N   UNL     1       2.551   1.210   0.033  0.00  0.00    -0.316 N 
ATOM     14  C   UNL     1       2.476  -1.689   2.289  0.00  0.00    +0.163 C 
ATOM     15  O   UNL     1       1.673  -2.483   2.738  0.00  0.00    -0.292 OA
ATOM     16  C   UNL     1       3.916  -1.813   2.687  0.00  0.00    +0.088 C 
ATOM     17  H   UNL     1      -0.316  -0.359  -0.883  0.00  0.00    +0.147 HD
ATOM     18  H   UNL     1       3.174   1.382  -0.858  0.00  0.00    +0.152 HD
ENDROOT
BRANCH   1  22
ATOM     19  C   UNL     1       8.898  -1.315   2.728  0.00  0.00    +0.162 A 
ATOM     20  C   UNL     1       7.977  -0.591   3.467  0.00  0.00    +0.050 A 
ATOM     21  C   UNL     1       6.648  -0.571   3.087  0.00  0.00    +0.008 A 
ATOM     22  C   UNL     1       6.235  -1.271   1.969  0.00  0.00    -0.040 A 
ATOM     23  C   UNL     1       7.149  -2.000   1.230  0.00  0.00    +0.053 A 
ATOM     24  C   UNL     1       8.483  -2.020   1.603  0.00  0.00    +0.162 A 
BRANCH  24  25
ATOM     25  O   UNL     1       9.384  -2.732   0.874  0.00  0.00    -0.491 OA
ATOM     26  C   UNL     1       8.886  -3.432  -0.268  0.00  0.00    +0.277 C 
ENDBRANCH  24  25
BRANCH  19  27
ATOM     27  O   UNL     1      10.206  -1.336   3.102  0.00  0.00    -0.489 OA
BRANCH  27  29
ATOM     28  C   UNL     1      12.061  -0.731   4.528  0.00  0.00    +0.048 C 
ATOM     29  C   UNL     1      10.560  -0.588   4.267  0.00  0.00    +0.226 C 
ENDBRANCH  27  29
ENDBRANCH  19  27
ENDBRANCH   1  22
BRANCH   5  30
ATOM     30  C   UNL     1      -0.209  -0.341   2.367  0.00  0.00    -0.020 A 
ATOM     31  C   UNL     1      -0.098   0.952   2.845  0.00  0.00    +0.009 A 
ATOM     32  C   UNL     1      -0.784   1.330   3.982  0.00  0.00    +0.048 A 
ATOM     33  C   UNL     1      -1.575   0.408   4.653  0.00  0.00    +0.147 A 
ATOM     34  C   UNL     1      -1.680  -0.890   4.175  0.00  0.00    +0.168 A 
ATOM     35  C   UNL     1      -0.996  -1.262   3.034  0.00  0.00    +0.042 A 
BRANCH  34  36
ATOM     36  N   UNL     1      -2.522  -1.876   4.888  0.00  0.00    +0.060 N 
ATOM     37  O   UNL     1      -2.613  -3.016   4.469  0.00  0.00    -0.126 OA
ATOM     38  O   UNL     1      -3.124  -1.548   5.895  0.00  0.00    -0.126 OA
ENDBRANCH  34  36
BRANCH  33  39
ATOM     39  O   UNL     1      -2.247   0.776   5.775  0.00  0.00    -0.504 OA
ATOM     40  H   UNL     1      -2.874   0.045   6.306  0.00  0.00    +0.292 HD
ENDBRANCH  33  39
ENDBRANCH   5  30
TORSDOF 7
