REMARK  Name = ZINC09295249
REMARK  6 active torsions:
REMARK  status: ('A' for Active; 'I' for Inactive)
REMARK    1  A    between atoms: C_4  and  C_7
REMARK    2  A    between atoms: C_9  and  C_26
REMARK    3  A    between atoms: C_15  and  C_18
REMARK    4  A    between atoms: C_18  and  O_19
REMARK    5  A    between atoms: O_19  and  C_20
REMARK    6  A    between atoms: N_28  and  C_29
REMARK                            x       y       z     vdW  Elec       q    Type
REMARK                         _______ _______ _______ _____ _____    ______ ____
ROOT
ATOM      1  C   UNL     1      -0.764   8.588  -3.495  0.00  0.00    +0.140 C 
ATOM      2  C   UNL     1      -1.297  10.006  -3.251  0.00  0.00    +0.166 C 
ATOM      3  S   UNL     1      -0.575  10.613  -1.697  0.00  0.00    -0.069 S 
ATOM      4  C   UNL     1      -0.810   9.153  -0.733  0.00  0.00    +0.209 A 
ATOM      5  N   UNL     1      -0.699   9.014   0.558  0.00  0.00    -0.121 NA
ATOM      6  N   UNL     1      -0.943   7.790   0.880  0.00  0.00    -0.128 NA
ATOM      7  C   UNL     1      -1.213   7.090  -0.187  0.00  0.00    +0.189 A 
ATOM      8  N   UNL     1      -1.147   7.937  -1.256  0.00  0.00    -0.222 N 
ATOM      9  N   UNL     1      -1.378   7.643  -2.562  0.00  0.00    -0.272 N 
ATOM     10  H   UNL     1      -1.103   6.695  -2.773  0.00  0.00    +0.167 HD
ENDROOT
BRANCH   1  14
ATOM     11  C   UNL     1      -1.669   7.407  -7.500  0.00  0.00    +0.000 A 
ATOM     12  C   UNL     1      -0.403   7.864  -7.183  0.00  0.00    +0.000 A 
ATOM     13  C   UNL     1      -0.110   8.246  -5.887  0.00  0.00    +0.005 A 
ATOM     14  C   UNL     1      -1.083   8.172  -4.908  0.00  0.00    -0.024 A 
ATOM     15  C   UNL     1      -2.347   7.710  -5.223  0.00  0.00    +0.005 A 
ATOM     16  C   UNL     1      -2.642   7.333  -6.520  0.00  0.00    +0.000 A 
ENDBRANCH   1  14
BRANCH   2  17
ATOM     17  C   UNL     1      -0.890  10.907  -4.389  0.00  0.00    +0.233 C 
ATOM     18  O   UNL     1       0.125  10.678  -5.011  0.00  0.00    -0.274 OA
ATOM     19  N   UNL     1      -1.656  11.968  -4.714  0.00  0.00    -0.285 N 
ATOM     20  H   UNL     1      -2.506  12.108  -4.268  0.00  0.00    +0.155 HD
BRANCH  19  21
ATOM     21  C   UNL     1      -1.224  12.867  -5.696  0.00  0.00    +0.034 A 
ATOM     22  C   UNL     1       0.130  13.137  -5.846  0.00  0.00    +0.025 A 
ATOM     23  C   UNL     1       0.554  14.021  -6.818  0.00  0.00    +0.022 A 
ATOM     24  C   UNL     1      -0.370  14.646  -7.637  0.00  0.00    +0.041 A 
ATOM     25  C   UNL     1      -1.721  14.384  -7.486  0.00  0.00    +0.022 A 
ATOM     26  C   UNL     1      -2.149  13.496  -6.519  0.00  0.00    +0.025 A 
ATOM     27 CL   UNL     1       0.165  15.762  -8.854  0.00  0.00    -0.084 Cl
ENDBRANCH  19  21
ENDBRANCH   2  17
BRANCH   7  28
ATOM     28  C   UNL     1      -1.544   5.620  -0.231  0.00  0.00    +0.306 C 
BRANCH  28  29
ATOM     29  O   UNL     1      -0.341   4.866  -0.394  0.00  0.00    -0.484 OA
BRANCH  29  30
ATOM     30  C   UNL     1      -0.463   3.514  -0.453  0.00  0.00    +0.121 A 
ATOM     31  C   UNL     1       0.664   2.720  -0.610  0.00  0.00    +0.045 A 
ATOM     32  C   UNL     1       0.537   1.346  -0.669  0.00  0.00    +0.004 A 
ATOM     33  C   UNL     1      -0.712   0.761  -0.572  0.00  0.00    +0.000 A 
ATOM     34  C   UNL     1      -1.838   1.550  -0.421  0.00  0.00    +0.004 A 
ATOM     35  C   UNL     1      -1.715   2.925  -0.355  0.00  0.00    +0.045 A 
ENDBRANCH  29  30
ENDBRANCH  28  29
ENDBRANCH   7  28
TORSDOF 6
