REMARK  Name = ZINC35310930
REMARK  2 active torsions:
REMARK  status: ('A' for Active; 'I' for Inactive)
REMARK    1  A    between atoms: C_12  and  C_14
REMARK    2  A    between atoms: C_15  and  N_30
REMARK                            x       y       z     vdW  Elec       q    Type
REMARK                         _______ _______ _______ _____ _____    ______ ____
ROOT
ATOM      1  C   UNL     1       5.963  -0.809  -0.493  0.00  0.00    +0.097 A 
ATOM      2  C   UNL     1       7.202  -0.386  -0.915  0.00  0.00    +0.053 A 
ATOM      3  C   UNL     1       8.345  -1.266  -0.705  0.00  0.00    +0.028 A 
ATOM      4  C   UNL     1       9.689  -1.032  -1.056  0.00  0.00    +0.022 A 
ATOM      5  C   UNL     1      10.642  -2.010  -0.768  0.00  0.00    +0.003 A 
ATOM      6  C   UNL     1      12.001  -1.839  -1.095  0.00  0.00    +0.059 A 
ATOM      7  C   UNL     1      12.898  -2.822  -0.797  0.00  0.00    +0.167 A 
ATOM      8  C   UNL     1      12.494  -4.011  -0.165  0.00  0.00    +0.168 A 
ATOM      9  C   UNL     1      11.188  -4.226   0.174  0.00  0.00    +0.075 A 
ATOM     10  C   UNL     1      10.222  -3.249  -0.110  0.00  0.00    +0.051 A 
ATOM     11  N   UNL     1       8.936  -3.418   0.203  0.00  0.00    -0.349 N 
ATOM     12  C   UNL     1       8.041  -2.499  -0.069  0.00  0.00    +0.088 A 
ATOM     13  S   UNL     1       6.288  -2.412   0.213  0.00  0.00    -0.064 S 
ATOM     14  O   UNL     1      13.594  -4.803   0.006  0.00  0.00    -0.453 OA
ATOM     15  C   UNL     1      14.590  -4.279  -0.890  0.00  0.00    +0.466 C 
ATOM     16  O   UNL     1      14.247  -2.886  -1.013  0.00  0.00    -0.453 OA
ATOM     17  H   UNL     1       8.657  -4.238   0.641  0.00  0.00    +0.166 HD
ENDROOT
BRANCH   1  29
ATOM     18  C   UNL     1      -0.084   1.210  -0.146  0.00  0.00    +0.002 A 
ATOM     19  C   UNL     1       1.078   1.893   0.162  0.00  0.00    +0.002 A 
ATOM     20  C   UNL     1       2.300   1.245   0.112  0.00  0.00    +0.025 A 
ATOM     21  C   UNL     1       2.355  -0.089  -0.250  0.00  0.00    +0.058 A 
ATOM     22  C   UNL     1       1.183  -0.780  -0.565  0.00  0.00    +0.055 A 
ATOM     23  C   UNL     1      -0.036  -0.124  -0.509  0.00  0.00    +0.025 A 
ATOM     24  N   UNL     1       1.255  -2.126  -0.940  0.00  0.00    -0.283 N 
ATOM     25  C   UNL     1       2.378  -2.839  -0.731  0.00  0.00    +0.235 C 
ATOM     26  O   UNL     1       2.434  -3.992  -1.103  0.00  0.00    -0.274 OA
ATOM     27  C   UNL     1       3.567  -2.221  -0.040  0.00  0.00    +0.210 C 
ATOM     28  N   UNL     1       3.577  -0.775  -0.305  0.00  0.00    -0.256 N 
ATOM     29  C   UNL     1       4.725  -0.129  -0.591  0.00  0.00    +0.260 C 
ATOM     30  O   UNL     1       4.697   1.039  -0.934  0.00  0.00    -0.269 OA
ATOM     31  H   UNL     1       0.488  -2.550  -1.355  0.00  0.00    +0.155 HD
ENDBRANCH   1  29
BRANCH   2  32
ATOM     32  N   UNL     1       7.360   0.850  -1.526  0.00  0.00    -0.356 N 
ATOM     33  H   UNL     1       6.592   1.426  -1.660  0.00  0.00    +0.142 HD
ATOM     34  H   UNL     1       8.239   1.137  -1.819  0.00  0.00    +0.142 HD
ENDBRANCH   2  32
TORSDOF 2
