REMARK  Name = ZINC63547157
REMARK  8 active torsions:
REMARK  status: ('A' for Active; 'I' for Inactive)
REMARK    1  A    between atoms: C_1  and  O_2
REMARK    2  A    between atoms: O_2  and  C_3
REMARK    3  A    between atoms: C_9  and  C_12
REMARK    4  A    between atoms: C_12  and  C_13
REMARK    5  A    between atoms: C_13  and  N_14
REMARK    6  A    between atoms: C_15  and  C_17
REMARK    7  A    between atoms: C_22  and  C_31
REMARK    8  A    between atoms: C_24  and  C_27
REMARK                            x       y       z     vdW  Elec       q    Type
REMARK                         _______ _______ _______ _____ _____    ______ ____
ROOT
ATOM      1  C   UNL     1       0.535  -8.564   2.584  0.00  0.00    +0.185 C 
ATOM      2  C   UNL     1      -0.079  -9.727   1.839  0.00  0.00    +0.045 C 
ATOM      3  C   UNL     1      -0.187 -10.742   2.722  0.00  0.00    +0.116 C 
ATOM      4  N   UNL     1      -0.676 -11.993   2.533  0.00  0.00    -0.342 N 
ATOM      5  C   UNL     1      -0.706 -12.864   3.519  0.00  0.00    +0.050 C 
ATOM      6  C   UNL     1      -0.223 -12.505   4.802  0.00  0.00    +0.055 C 
ATOM      7  C   UNL     1       0.266 -11.266   5.006  0.00  0.00    +0.133 C 
ATOM      8  N   UNL     1       0.291 -10.364   3.968  0.00  0.00    -0.215 N 
ATOM      9  N   UNL     1       0.741  -9.069   3.953  0.00  0.00    -0.218 NA
ATOM     10  H   UNL     1       1.715  -9.019   4.214  0.00  0.00    +0.146 HD
ATOM     11  H   UNL     1      -1.009 -12.249   1.659  0.00  0.00    +0.167 HD
ENDROOT
BRANCH   5  12
ATOM     12  C   UNL     1      -1.245 -14.224   3.287  0.00  0.00    -0.002 A 
ATOM     13  C   UNL     1      -1.716 -14.584   2.024  0.00  0.00    +0.010 A 
ATOM     14  C   UNL     1      -2.216 -15.852   1.814  0.00  0.00    +0.001 A 
ATOM     15  C   UNL     1      -2.252 -16.766   2.852  0.00  0.00    +0.000 A 
ATOM     16  C   UNL     1      -1.786 -16.415   4.107  0.00  0.00    +0.001 A 
ATOM     17  C   UNL     1      -1.278 -15.151   4.328  0.00  0.00    +0.010 A 
ENDBRANCH   5  12
BRANCH   1  19
ATOM     18  N   UNL     1      -0.759  -6.798   1.434  0.00  0.00    -0.313 N 
ATOM     19  C   UNL     1      -0.408  -7.389   2.593  0.00  0.00    +0.236 C 
ATOM     20  O   UNL     1      -0.851  -6.975   3.644  0.00  0.00    -0.274 OA
ATOM     21  H   UNL     1      -0.405  -7.128   0.594  0.00  0.00    +0.149 HD
BRANCH  18  22
ATOM     22  C   UNL     1      -1.676  -5.655   1.443  0.00  0.00    +0.108 C 
BRANCH  22  23
ATOM     23  C   UNL     1      -1.908  -5.176   0.009  0.00  0.00    +0.052 C 
BRANCH  23  30
ATOM     24  C   UNL     1      -1.200  -0.637   0.010  0.00  0.00    +0.121 A 
ATOM     25  C   UNL     1      -2.375   0.135   0.020  0.00  0.00    +0.047 A 
ATOM     26  C   UNL     1      -3.607  -0.415   0.028  0.00  0.00    +0.029 A 
ATOM     27  C   UNL     1      -3.753  -1.875   0.027  0.00  0.00    +0.043 A 
ATOM     28  N   UNL     1      -4.809  -2.650   0.034  0.00  0.00    -0.380 N 
ATOM     29  C   UNL     1      -4.362  -4.047   0.029  0.00  0.00    +0.144 C 
ATOM     30  C   UNL     1      -2.851  -4.000   0.018  0.00  0.00    -0.040 C 
ATOM     31  C   UNL     1      -2.516  -2.690   0.016  0.00  0.00    +0.002 A 
ATOM     32  C   UNL     1      -1.226  -1.992   0.003  0.00  0.00    +0.055 A 
ATOM     33  H   UNL     1      -5.731  -2.350   0.042  0.00  0.00    +0.160 HD
BRANCH  24  35
ATOM     34  C   UNL     1      -0.017   1.425   0.010  0.00  0.00    +0.277 C 
ATOM     35  O   UNL     1       0.002  -0.004   0.002  0.00  0.00    -0.495 OA
ENDBRANCH  24  35
ENDBRANCH  23  30
ENDBRANCH  22  23
ENDBRANCH  18  22
ENDBRANCH   1  19
BRANCH   7  36
ATOM     36  C   UNL     1       0.783 -10.870   6.365  0.00  0.00    +0.432 C 
ATOM     37  F   UNL     1       0.653 -11.950   7.246  0.00  0.00    -0.165 F 
ATOM     38  F   UNL     1       2.131 -10.511   6.265  0.00  0.00    -0.165 F 
ATOM     39  F   UNL     1       0.045  -9.784   6.847  0.00  0.00    -0.165 F 
ENDBRANCH   7  36
TORSDOF 7
