REMARK  Name = ZINC21247807
REMARK  10 active torsions:
REMARK  status: ('A' for Active; 'I' for Inactive)
REMARK    1  A    between atoms: C_1  and  C_2
REMARK    2  A    between atoms: C_2  and  C_3
REMARK    3  A    between atoms: C_2  and  C_4
REMARK    4  A    between atoms: C_2  and  C_5
REMARK    5  A    between atoms: C_8  and  C_11
REMARK    6  A    between atoms: C_16  and  C_26
REMARK    7  A    between atoms: C_28  and  O_34
REMARK    8  A    between atoms: C_31  and  O_32
REMARK    9  A    between atoms: O_32  and  C_33
REMARK   10  A    between atoms: O_34  and  C_35
REMARK                            x       y       z     vdW  Elec       q    Type
REMARK                         _______ _______ _______ _____ _____    ______ ____
ROOT
ATOM      1  C   UNL     1       2.410   3.993  -0.198  0.00  0.00    +0.032 C 
ATOM      2  C   UNL     1       2.553   4.896  -1.421  0.00  0.00    +0.059 C 
ATOM      3  C   UNL     1       3.865   5.660  -1.349  0.00  0.00    +0.017 C 
ATOM      4  C   UNL     1       4.368   6.036  -0.161  0.00  0.00    +0.037 C 
ATOM      5  C   UNL     1       5.643   6.814   0.055  0.00  0.00    +0.140 C 
ATOM      6  N   UNL     1       6.481   6.930  -1.120  0.00  0.00    -0.331 N 
ATOM      7  C   UNL     1       6.049   7.628  -2.247  0.00  0.00    +0.049 A 
ATOM      8  C   UNL     1       6.646   8.817  -2.634  0.00  0.00    +0.025 A 
ATOM      9  C   UNL     1       6.115   9.530  -3.695  0.00  0.00    +0.002 A 
ATOM     10  C   UNL     1       5.000   9.063  -4.365  0.00  0.00    +0.002 A 
ATOM     11  C   UNL     1       4.414   7.864  -3.995  0.00  0.00    +0.025 A 
ATOM     12  C   UNL     1       4.954   7.141  -2.945  0.00  0.00    +0.052 A 
ATOM     13  N   UNL     1       4.444   5.909  -2.551  0.00  0.00    -0.316 N 
ATOM     14  C   UNL     1       3.698   5.693   1.036  0.00  0.00    +0.163 C 
ATOM     15  O   UNL     1       4.164   6.065   2.095  0.00  0.00    -0.292 OA
ATOM     16  C   UNL     1       2.433   4.888   1.048  0.00  0.00    +0.088 C 
ATOM     17  H   UNL     1       7.476   6.463  -1.135  0.00  0.00    +0.147 HD
ATOM     18  H   UNL     1       4.534   5.104  -3.296  0.00  0.00    +0.152 HD
ENDROOT
BRANCH   1  22
ATOM     19  C   UNL     1      -1.292   1.871  -0.393  0.00  0.00    -0.042 A 
ATOM     20  C   UNL     1      -0.098   1.175  -0.351  0.00  0.00    +0.004 A 
ATOM     21  C   UNL     1       1.100   1.862  -0.290  0.00  0.00    +0.004 A 
ATOM     22  C   UNL     1       1.104   3.244  -0.265  0.00  0.00    -0.043 A 
ATOM     23  C   UNL     1      -0.090   3.940  -0.302  0.00  0.00    +0.004 A 
ATOM     24  C   UNL     1      -1.288   3.253  -0.363  0.00  0.00    +0.004 A 
BRANCH  19  26
ATOM     25  C   UNL     1      -2.738   0.220   0.762  0.00  0.00    +0.015 C 
ATOM     26  C   UNL     1      -2.598   1.122  -0.466  0.00  0.00    -0.013 C 
ATOM     27  C   UNL     1      -3.756   2.120  -0.501  0.00  0.00    +0.015 C 
ATOM     28  C   UNL     1      -2.624   0.266  -1.734  0.00  0.00    +0.015 C 
ENDBRANCH  19  26
ENDBRANCH   1  22
BRANCH   5  29
ATOM     29  C   UNL     1       5.284   8.200   0.524  0.00  0.00    +0.022 A 
ATOM     30  C   UNL     1       4.027   8.713   0.267  0.00  0.00    +0.055 A 
ATOM     31  C   UNL     1       3.696   9.988   0.699  0.00  0.00    +0.121 A 
ATOM     32  C   UNL     1       4.627  10.749   1.390  0.00  0.00    +0.049 A 
ATOM     33  C   UNL     1       5.884  10.237   1.648  0.00  0.00    +0.049 A 
ATOM     34  C   UNL     1       6.213   8.959   1.220  0.00  0.00    +0.126 A 
BRANCH  34  35
ATOM     35  O   UNL     1       7.448   8.453   1.479  0.00  0.00    -0.495 OA
ATOM     36  C   UNL     1       8.355   9.290   2.200  0.00  0.00    +0.277 C 
ENDBRANCH  34  35
BRANCH  31  37
ATOM     37  O   UNL     1       2.459  10.493   0.445  0.00  0.00    -0.495 OA
ATOM     38  C   UNL     1       2.187  11.813   0.919  0.00  0.00    +0.277 C 
ENDBRANCH  31  37
ENDBRANCH   5  29
TORSDOF 5
