REMARK  Name = ZINC57415291
REMARK  8 active torsions:
REMARK  status: ('A' for Active; 'I' for Inactive)
REMARK    1  A    between atoms: C_1  and  C_2
REMARK    2  A    between atoms: C_2  and  C_3
REMARK    3  A    between atoms: C_6  and  C_9
REMARK    4  A    between atoms: C_11  and  C_30
REMARK    5  A    between atoms: C_12  and  C_17
REMARK    6  A    between atoms: C_17  and  N_18
REMARK    7  A    between atoms: C_30  and  O_32
REMARK    8  A    between atoms: O_32  and  C_33
REMARK                            x       y       z     vdW  Elec       q    Type
REMARK                         _______ _______ _______ _____ _____    ______ ____
ROOT
ATOM      1  C   UNL     1       2.732  -1.664   4.624  0.00  0.00    +0.144 C 
ATOM      2  C   UNL     1       2.930  -0.561   5.644  0.00  0.00    +0.079 C 
ATOM      3  C   UNL     1       2.591  -0.821   6.925  0.00  0.00    +0.038 C 
ATOM      4  N   UNL     1       2.086  -2.037   7.287  0.00  0.00    -0.271 N 
ATOM      5  C   UNL     1       1.891  -3.046   6.429  0.00  0.00    +0.304 C 
ATOM      6  O   UNL     1       1.436  -4.093   6.846  0.00  0.00    -0.252 OA
ATOM      7  N   UNL     1       2.182  -2.938   5.118  0.00  0.00    -0.288 N 
ATOM      8  H   UNL     1       1.857  -2.178   8.219  0.00  0.00    +0.156 HD
ATOM      9  H   UNL     1       2.032  -3.681   4.513  0.00  0.00    +0.151 HD
ENDROOT
BRANCH   1  13
ATOM     10  C   UNL     1       0.120  -0.194   1.581  0.00  0.00    -0.048 A 
ATOM     11  C   UNL     1       1.489  -0.149   1.397  0.00  0.00    +0.004 A 
ATOM     12  C   UNL     1       2.335  -0.625   2.382  0.00  0.00    +0.006 A 
ATOM     13  C   UNL     1       1.811  -1.145   3.551  0.00  0.00    -0.022 A 
ATOM     14  C   UNL     1       0.441  -1.189   3.735  0.00  0.00    +0.006 A 
ATOM     15  C   UNL     1      -0.404  -0.709   2.752  0.00  0.00    +0.004 A 
BRANCH  10  17
ATOM     16  C   UNL     1      -1.071   1.812   0.740  0.00  0.00    +0.009 C 
ATOM     17  C   UNL     1      -0.802   0.324   0.507  0.00  0.00    +0.032 C 
ENDBRANCH  10  17
ENDBRANCH   1  13
BRANCH   2  18
ATOM     18  C   UNL     1       3.453   0.698   5.267  0.00  0.00    +0.339 C 
ATOM     19  O   UNL     1       3.489   1.608   6.074  0.00  0.00    -0.245 OA
BRANCH  18  20
ATOM     20  O   UNL     1       3.911   0.890   4.013  0.00  0.00    -0.465 OA
ATOM     21  C   UNL     1       4.425   2.187   3.701  0.00  0.00    +0.280 C 
ENDBRANCH  18  20
ENDBRANCH   2  18
BRANCH   3  22
ATOM     22  C   UNL     1       2.772   0.248   7.971  0.00  0.00    +0.136 C 
BRANCH  22  23
ATOM     23  N   UNL     1       1.593   1.125   7.984  0.00  0.00    -0.294 NA
ATOM     24  C   UNL     1       0.428   0.433   8.551  0.00  0.00    +0.103 C 
ATOM     25  C   UNL     1      -0.816   1.312   8.381  0.00  0.00    +0.122 C 
ATOM     26  N   UNL     1      -0.536   2.634   8.960  0.00  0.00    -0.314 N 
ATOM     27  C   UNL     1       0.689   3.332   8.542  0.00  0.00    +0.122 C 
ATOM     28  C   UNL     1       1.874   2.374   8.706  0.00  0.00    +0.103 C 
ATOM     29  C   UNL     1      -1.407   3.210   9.878  0.00  0.00    +0.099 A 
ATOM     30  C   UNL     1      -1.061   4.405  10.501  0.00  0.00    +0.042 A 
ATOM     31  C   UNL     1      -1.937   4.967  11.412  0.00  0.00    +0.005 A 
ATOM     32  C   UNL     1      -3.134   4.312  11.671  0.00  0.00    +0.018 A 
ATOM     33  C   UNL     1      -3.413   3.129  11.017  0.00  0.00    +0.084 A 
ATOM     34  N   UNL     1      -2.561   2.619  10.148  0.00  0.00    -0.350 N 
ATOM     35  H   UNL     1      -2.783   1.788   9.699  0.00  0.00    +0.166 HD
ENDBRANCH  22  23
ENDBRANCH   3  22
TORSDOF 6
