REMARK  Name = ZINC22852222
REMARK  6 active torsions:
REMARK  status: ('A' for Active; 'I' for Inactive)
REMARK    1  A    between atoms: C_4  and  C_7
REMARK    2  A    between atoms: C_7  and  C_8
REMARK    3  A    between atoms: N_11  and  C_14
REMARK    4  A    between atoms: C_14  and  C_16
REMARK    5  A    between atoms: C_14  and  C_23
REMARK    6  A    between atoms: C_29  and  C_31
REMARK                            x       y       z     vdW  Elec       q    Type
REMARK                         _______ _______ _______ _____ _____    ______ ____
ROOT
ATOM      1  C   UNL     1      -8.386   0.319   0.038  0.00  0.00    +0.006 C 
ENDROOT
BRANCH   1   2
ATOM      2  C   UNL     1      -6.881   0.400   0.032  0.00  0.00    +0.050 A 
ATOM      3  C   UNL     1      -6.094   1.482   0.036  0.00  0.00    +0.282 A 
ATOM      4  N   UNL     1      -4.726   1.354   0.029  0.00  0.00    -0.169 N 
ATOM      5  C   UNL     1      -4.219   0.084   0.020  0.00  0.00    +0.200 A 
ATOM      6  S   UNL     1      -5.682  -0.924   0.020  0.00  0.00    -0.050 S 
ATOM      7  N   UNL     1      -2.916   0.130   0.009  0.00  0.00    -0.197 NA
ATOM      8  C   UNL     1      -2.518   1.410   0.020  0.00  0.00    +0.218 A 
ATOM      9  N   UNL     1      -3.579   2.189   0.029  0.00  0.00    -0.138 NA
ATOM     10  O   UNL     1      -6.654   2.721   0.045  0.00  0.00    -0.265 OA
BRANCH   8  11
ATOM     11  C   UNL     1      -1.115   1.872   0.017  0.00  0.00    +0.173 A 
ATOM     12  C   UNL     1      -0.013   1.076   0.008  0.00  0.00    +0.053 A 
ATOM     13  C   UNL     1       1.107   1.932   0.002  0.00  0.00    +0.042 A 
ATOM     14  C   UNL     1       0.638   3.195   0.013  0.00  0.00    +0.196 A 
ATOM     15  O   UNL     1      -0.705   3.155   0.026  0.00  0.00    -0.460 OA
ENDBRANCH   8  11
ENDBRANCH   1   2
BRANCH   1  19
ATOM     16  C   UNL     1     -10.215  -1.717   3.323  0.00  0.00    -0.010 C 
ATOM     17  C   UNL     1      -8.701  -1.488   3.326  0.00  0.00    -0.015 C 
ATOM     18  C   UNL     1      -8.360  -0.347   2.365  0.00  0.00    -0.077 C 
ATOM     19  N   UNL     1      -8.818  -0.691   1.013  0.00  0.00    +0.387 N 
ATOM     20  C   UNL     1     -10.275  -0.869   0.975  0.00  0.00    -0.077 C 
ATOM     21  C   UNL     1     -10.674  -2.025   1.895  0.00  0.00    -0.015 C 
ATOM     22  H   UNL     1      -8.356  -1.650   0.736  0.00  0.00    -0.080 HD
BRANCH  16  23
ATOM     23  C   UNL     1     -10.557  -2.895   4.237  0.00  0.00    +0.038 C 
BRANCH  23  27
ATOM     24  C   UNL     1     -14.800  -3.312   4.500  0.00  0.00    +0.000 A 
ATOM     25  C   UNL     1     -14.100  -3.980   3.513  0.00  0.00    +0.000 A 
ATOM     26  C   UNL     1     -12.726  -3.845   3.428  0.00  0.00    +0.003 A 
ATOM     27  C   UNL     1     -12.054  -3.042   4.329  0.00  0.00    -0.047 A 
ATOM     28  C   UNL     1     -12.753  -2.378   5.319  0.00  0.00    +0.003 A 
ATOM     29  C   UNL     1     -14.127  -2.509   5.401  0.00  0.00    +0.000 A 
ENDBRANCH  23  27
ENDBRANCH  16  23
ENDBRANCH   1  19
BRANCH   1  30
ATOM     30  C   UNL     1      -8.873  -0.067  -1.335  0.00  0.00    -0.056 A 
ATOM     31  C   UNL     1      -8.832  -1.389  -1.736  0.00  0.00    +0.005 A 
ATOM     32  C   UNL     1      -9.284  -1.745  -2.993  0.00  0.00    +0.038 A 
ATOM     33  C   UNL     1      -9.767  -0.775  -3.854  0.00  0.00    +0.123 A 
ATOM     34  C   UNL     1      -9.802   0.550  -3.454  0.00  0.00    +0.038 A 
ATOM     35  C   UNL     1      -9.355   0.903  -2.195  0.00  0.00    +0.005 A 
ATOM     36  F   UNL     1     -10.204  -1.121  -5.085  0.00  0.00    -0.205 F 
ENDBRANCH   1  30
TORSDOF 6
