REMARK  Name = ZINC53493523
REMARK  5 active torsions:
REMARK  status: ('A' for Active; 'I' for Inactive)
REMARK    1  A    between atoms: C_4  and  C_7
REMARK    2  A    between atoms: C_7  and  C_9
REMARK    3  A    between atoms: C_7  and  C_22
REMARK    4  A    between atoms: C_9  and  N_10
REMARK    5  A    between atoms: C_16  and  C_19
REMARK                            x       y       z     vdW  Elec       q    Type
REMARK                         _______ _______ _______ _____ _____    ______ ____
ROOT
ATOM      1  C   UNL     1       3.701  -0.709  -0.038  0.00  0.00    +0.068 C 
ENDROOT
BRANCH   1   2
ATOM      2  C   UNL     1       3.806  -1.580   1.187  0.00  0.00    -0.013 A 
ATOM      3  C   UNL     1       2.981  -2.583   1.526  0.00  0.00    +0.088 A 
ATOM      4  N   UNL     1       3.391  -3.146   2.705  0.00  0.00    -0.360 N 
ATOM      5  H   UNL     1       2.952  -3.888   3.150  0.00  0.00    +0.165 HD
ATOM      6  C   UNL     1       4.518  -2.502   3.164  0.00  0.00    +0.047 A 
ATOM      7  C   UNL     1       4.831  -1.497   2.231  0.00  0.00    +0.003 A 
ATOM      8  C   UNL     1       5.942  -0.677   2.436  0.00  0.00    +0.010 A 
ATOM      9  C   UNL     1       6.723  -0.858   3.543  0.00  0.00    +0.001 A 
ATOM     10  C   UNL     1       6.421  -1.851   4.464  0.00  0.00    +0.002 A 
ATOM     11  C   UNL     1       5.324  -2.664   4.286  0.00  0.00    +0.026 A 
ENDBRANCH   1   2
BRANCH   1  15
ATOM     12  C   UNL     1      -0.034   1.363   0.002  0.00  0.00    +0.000 A 
ATOM     13  C   UNL     1       1.151   2.075  -0.003  0.00  0.00    +0.000 A 
ATOM     14  C   UNL     1       2.360   1.405  -0.016  0.00  0.00    +0.004 A 
ATOM     15  C   UNL     1       2.383   0.022  -0.023  0.00  0.00    -0.038 A 
ATOM     16  C   UNL     1       1.198  -0.689  -0.017  0.00  0.00    +0.004 A 
ATOM     17  C   UNL     1      -0.011  -0.019  -0.006  0.00  0.00    +0.000 A 
ENDBRANCH   1  15
BRANCH   1  18
ATOM     18  C   UNL     1       3.787  -1.580  -1.292  0.00  0.00    +0.118 C 
BRANCH  18  19
ATOM     19  N   UNL     1       3.805  -0.724  -2.481  0.00  0.00    -0.298 N 
ATOM     20  C   UNL     1       3.878  -1.277  -3.708  0.00  0.00    +0.302 C 
ATOM     21  O   UNL     1       4.019  -2.479  -3.826  0.00  0.00    -0.253 OA
ATOM     22  N   UNL     1       3.793  -0.497  -4.805  0.00  0.00    -0.286 N 
ATOM     23  C   UNL     1       3.750  -1.095  -6.146  0.00  0.00    +0.110 C 
ATOM     24  C   UNL     1       4.852  -0.465  -7.003  0.00  0.00    +0.032 C 
ATOM     25  C   UNL     1       4.697   1.058  -6.987  0.00  0.00    +0.078 C 
ATOM     26  C   UNL     1       4.846   1.573  -5.553  0.00  0.00    +0.032 C 
ATOM     27  C   UNL     1       3.737   0.965  -4.680  0.00  0.00    +0.110 C 
ATOM     28  H   UNL     1       3.765   0.240  -2.385  0.00  0.00    +0.150 HD
BRANCH  25  29
ATOM     29  C   UNL     1       5.760   1.680  -7.856  0.00  0.00    +0.214 C 
ATOM     30  O   UNL     1       6.562   0.975  -8.431  0.00  0.00    -0.276 OA
ATOM     31  N   UNL     1       5.819   3.019  -7.994  0.00  0.00    -0.329 N 
ATOM     32  H   UNL     1       5.178   3.583  -7.534  0.00  0.00    +0.145 HD
ATOM     33  H   UNL     1       6.503   3.419  -8.553  0.00  0.00    +0.145 HD
ENDBRANCH  25  29
ENDBRANCH  18  19
ENDBRANCH   1  18
TORSDOF 5
