REMARK  Name = ZINC08790469
REMARK  8 active torsions:
REMARK  status: ('A' for Active; 'I' for Inactive)
REMARK    1  A    between atoms: C_1  and  C_2
REMARK    2  A    between atoms: C_2  and  C_3
REMARK    3  A    between atoms: C_14  and  C_16
REMARK    4  A    between atoms: C_16  and  C_17
REMARK    5  A    between atoms: C_20  and  O_24
REMARK    6  A    between atoms: C_21  and  O_23
REMARK    7  A    between atoms: N_27  and  C_30
REMARK    8  A    between atoms: C_30  and  C_31
REMARK                            x       y       z     vdW  Elec       q    Type
REMARK                         _______ _______ _______ _____ _____    ______ ____
ROOT
ATOM      1  C   UNL     1       0.904   1.949  -2.693  0.00  0.00    -0.047 A 
ATOM      2  C   UNL     1       0.515   3.243  -2.989  0.00  0.00    +0.005 A 
ATOM      3  C   UNL     1      -0.535   3.474  -3.854  0.00  0.00    +0.024 A 
ATOM      4  C   UNL     1      -1.211   2.404  -4.436  0.00  0.00    +0.036 A 
ATOM      5  C   UNL     1      -0.810   1.107  -4.130  0.00  0.00    -0.027 A 
ATOM      6  C   UNL     1       0.237   0.881  -3.265  0.00  0.00    +0.008 A 
ATOM      7  C   UNL     1      -1.723   0.201  -4.908  0.00  0.00    +0.050 C 
ATOM      8  C   UNL     1      -2.499  -0.746  -3.987  0.00  0.00    +0.088 C 
ATOM      9  C   UNL     1      -1.712  -2.085  -4.048  0.00  0.00    +0.073 C 
ATOM     10  C   UNL     1      -0.520  -1.801  -4.987  0.00  0.00    -0.053 C 
ATOM     11  C   UNL     1      -1.201  -2.254  -2.635  0.00  0.00    +0.224 C 
ATOM     12  O   UNL     1      -0.532  -3.183  -2.237  0.00  0.00    -0.275 OA
ATOM     13  N   UNL     1      -1.603  -1.217  -1.890  0.00  0.00    -0.237 N 
ATOM     14  C   UNL     1      -2.340  -0.314  -2.547  0.00  0.00    +0.225 C 
ATOM     15  O   UNL     1      -2.806   0.695  -2.063  0.00  0.00    -0.275 OA
ATOM     16  C   UNL     1      -2.647   1.125  -5.654  0.00  0.00    +0.211 C 
ATOM     17  O   UNL     1      -3.544   0.801  -6.404  0.00  0.00    -0.277 OA
ATOM     18  N   UNL     1      -2.286   2.380  -5.327  0.00  0.00    -0.286 N 
ATOM     19  H   UNL     1      -2.721   3.176  -5.672  0.00  0.00    +0.155 HD
ATOM     20  N   UNL     1      -0.972  -0.668  -5.798  0.00  0.00    +0.394 N 
ATOM     21  H   UNL     1      -0.165  -0.166  -6.187  0.00  0.00    -0.083 HD
ATOM     22  H   UNL     1      -1.572  -0.997  -6.563  0.00  0.00    -0.083 HD
ENDROOT
BRANCH   1  24
ATOM     23  C   UNL     1       1.537   1.709  -0.307  0.00  0.00    +0.009 C 
ATOM     24  C   UNL     1       2.052   1.704  -1.748  0.00  0.00    +0.032 C 
ENDBRANCH   1  24
BRANCH  10  25
ATOM     25  C   UNL     1      -0.222  -3.025  -5.854  0.00  0.00    +0.020 C 
BRANCH  25  26
ATOM     26  C   UNL     1       1.018  -2.771  -6.673  0.00  0.00    -0.045 A 
ATOM     27  C   UNL     1       2.259  -3.112  -6.169  0.00  0.00    +0.007 A 
ATOM     28  C   UNL     1       3.399  -2.881  -6.916  0.00  0.00    +0.049 A 
ATOM     29  C   UNL     1       3.299  -2.305  -8.172  0.00  0.00    +0.158 A 
ATOM     30  C   UNL     1       2.050  -1.961  -8.679  0.00  0.00    +0.158 A 
ATOM     31  C   UNL     1       0.910  -2.201  -7.928  0.00  0.00    +0.052 A 
BRANCH  30  32
ATOM     32  O   UNL     1       1.946  -1.396  -9.912  0.00  0.00    -0.503 OA
ATOM     33  H   UNL     1       1.843  -2.034 -10.630  0.00  0.00    +0.292 HD
ENDBRANCH  30  32
BRANCH  29  34
ATOM     34  O   UNL     1       4.420  -2.076  -8.908  0.00  0.00    -0.503 OA
ATOM     35  H   UNL     1       4.670  -2.812  -9.483  0.00  0.00    +0.292 HD
ENDBRANCH  29  34
ENDBRANCH  25  26
ENDBRANCH  10  25
BRANCH  13  36
ATOM     36  C   UNL     1      -1.268  -1.084  -0.470  0.00  0.00    +0.151 C 
BRANCH  36  37
ATOM     37  C   UNL     1      -2.309  -1.789   0.360  0.00  0.00    -0.030 A 
ATOM     38  C   UNL     1      -2.124  -3.108   0.728  0.00  0.00    +0.005 A 
ATOM     39  C   UNL     1      -3.079  -3.755   1.489  0.00  0.00    +0.000 A 
ATOM     40  C   UNL     1      -4.221  -3.082   1.882  0.00  0.00    +0.000 A 
ATOM     41  C   UNL     1      -4.407  -1.762   1.515  0.00  0.00    +0.000 A 
ATOM     42  C   UNL     1      -3.451  -1.116   0.754  0.00  0.00    +0.005 A 
ENDBRANCH  36  37
ENDBRANCH  13  36
TORSDOF 7
