REMARK  Name = ZINC60373594
REMARK  11 active torsions:
REMARK  status: ('A' for Active; 'I' for Inactive)
REMARK    1  A    between atoms: C_1  and  C_2
REMARK    2  A    between atoms: C_5  and  C_34
REMARK    3  A    between atoms: N_8  and  C_10
REMARK    4  A    between atoms: C_10  and  C_11
REMARK    5  A    between atoms: C_10  and  C_12
REMARK    6  A    between atoms: C_10  and  C_13
REMARK    7  A    between atoms: C_13  and  N_14
REMARK    8  A    between atoms: C_15  and  C_17
REMARK    9  A    between atoms: C_22  and  S_23
REMARK   10  A    between atoms: S_23  and  C_24
REMARK   11  A    between atoms: C_24  and  C_25
REMARK                            x       y       z     vdW  Elec       q    Type
REMARK                         _______ _______ _______ _____ _____    ______ ____
ROOT
ATOM      1  N   UNL     1       2.801  -0.371   2.305  0.00  0.00    -0.313 N 
ATOM      2  C   UNL     1       3.883   0.403   2.090  0.00  0.00    +0.245 C 
ATOM      3  O   UNL     1       4.956  -0.108   1.836  0.00  0.00    -0.270 OA
ATOM      4  H   UNL     1       1.945   0.037   2.508  0.00  0.00    +0.149 HD
ENDROOT
BRANCH   2   5
ATOM      5  C   UNL     1       3.765   1.871   2.163  0.00  0.00    +0.050 A 
ATOM      6  C   UNL     1       2.535   2.463   2.461  0.00  0.00    +0.014 A 
ATOM      7  C   UNL     1       2.431   3.835   2.527  0.00  0.00    +0.001 A 
ATOM      8  C   UNL     1       3.542   4.634   2.300  0.00  0.00    +0.001 A 
ATOM      9  C   UNL     1       4.763   4.065   2.006  0.00  0.00    +0.015 A 
ATOM     10  C   UNL     1       4.889   2.682   1.940  0.00  0.00    +0.020 A 
BRANCH  10  11
ATOM     11  S   UNL     1       6.450   1.952   1.572  0.00  0.00    -0.118 S 
BRANCH  11  12
ATOM     12  C   UNL     1       7.562   3.370   1.371  0.00  0.00    +0.131 C 
BRANCH  12  13
ATOM     13  C   UNL     1       8.950   2.879   1.048  0.00  0.00    +0.070 A 
ATOM     14  C   UNL     1       9.911   2.583   1.951  0.00  0.00    +0.116 A 
ATOM     15  N   UNL     1      11.012   2.175   1.249  0.00  0.00    -0.306 N 
ATOM     16  C   UNL     1      12.253   1.761   1.638  0.00  0.00    +0.092 A 
ATOM     17  C   UNL     1      13.177   1.405   0.721  0.00  0.00    +0.018 A 
ATOM     18  C   UNL     1      12.873   1.456  -0.649  0.00  0.00    +0.005 A 
ATOM     19  C   UNL     1      11.639   1.867  -1.050  0.00  0.00    +0.047 A 
ATOM     20  C   UNL     1      10.685   2.235  -0.081  0.00  0.00    +0.138 A 
ATOM     21  N   UNL     1       9.433   2.658  -0.177  0.00  0.00    -0.232 NA
ENDBRANCH  12  13
ENDBRANCH  11  12
ENDBRANCH  10  11
ENDBRANCH   2   5
BRANCH   1  22
ATOM     22  C   UNL     1       2.918  -1.830   2.232  0.00  0.00    +0.092 C 
BRANCH  22  23
ATOM     23  C   UNL     1       1.589  -2.469   2.639  0.00  0.00    -0.055 C 
ATOM     24  C   UNL     1       1.737  -3.992   2.646  0.00  0.00    -0.008 C 
ATOM     25  C   UNL     1       0.503  -2.067   1.640  0.00  0.00    -0.008 C 
BRANCH  23  31
ATOM     26  C   UNL     1       3.028  -2.192   7.310  0.00  0.00    +0.005 C 
ATOM     27  C   UNL     1       1.925  -1.816   6.319  0.00  0.00    -0.031 C 
ATOM     28  C   UNL     1       0.595  -2.417   6.782  0.00  0.00    +0.003 C 
ATOM     29  C   UNL     1      -0.486  -2.101   5.744  0.00  0.00    -0.031 C 
ATOM     30  C   UNL     1      -0.049  -2.640   4.381  0.00  0.00    -0.075 C 
ATOM     31  N   UNL     1       1.214  -2.007   3.982  0.00  0.00    +0.384 N 
ATOM     32  C   UNL     1       2.273  -2.364   4.934  0.00  0.00    -0.075 C 
ATOM     33  C   UNL     1      -0.682  -0.586   5.657  0.00  0.00    +0.005 C 
ATOM     34  H   UNL     1       1.098  -1.005   3.971  0.00  0.00    -0.081 HD
ENDBRANCH  23  31
ENDBRANCH  22  23
ENDBRANCH   1  22
TORSDOF 7
