REMARK  Name = ZINC64481039
REMARK  5 active torsions:
REMARK  status: ('A' for Active; 'I' for Inactive)
REMARK    1  A    between atoms: C_1  and  C_2
REMARK    2  A    between atoms: C_2  and  O_3
REMARK    3  A    between atoms: O_3  and  C_4
REMARK    4  A    between atoms: C_6  and  C_11
REMARK    5  A    between atoms: C_9  and  O_10
REMARK                            x       y       z     vdW  Elec       q    Type
REMARK                         _______ _______ _______ _____ _____    ______ ____
ROOT
ATOM      1  C   UNL     1      -0.229  -4.969   0.477  0.00  0.00    +0.111 C 
ATOM      2  C   UNL     1      -1.630  -5.409   0.046  0.00  0.00    +0.128 C 
ATOM      3  C   UNL     1      -1.443  -6.250  -1.212  0.00  0.00    -0.035 C 
ATOM      4  C   UNL     1      -2.223  -5.715  -2.140  0.00  0.00    +0.001 A 
ATOM      5  C   UNL     1      -2.534  -6.129  -3.518  0.00  0.00    +0.030 A 
ATOM      6  C   UNL     1      -3.382  -5.321  -4.210  0.00  0.00    +0.042 A 
ATOM      7  C   UNL     1      -3.945  -4.157  -3.674  0.00  0.00    +0.022 A 
ATOM      8  C   UNL     1      -3.718  -3.705  -2.416  0.00  0.00    +0.027 A 
ATOM      9  C   UNL     1      -2.847  -4.473  -1.589  0.00  0.00    +0.043 A 
ATOM     10  N   UNL     1      -2.481  -4.282  -0.336  0.00  0.00    -0.376 N 
ATOM     11 CL   UNL     1      -3.787  -5.757  -5.841  0.00  0.00    -0.084 Cl
ATOM     12  C   UNL     1      -0.447  -7.383  -1.265  0.00  0.00    +0.048 C 
ATOM     13  C   UNL     1       0.868  -6.827  -0.689  0.00  0.00    +0.086 C 
ATOM     14  N   UNL     1       0.617  -6.167   0.596  0.00  0.00    -0.307 NA
ATOM     15  H   UNL     1       1.482  -5.953   1.069  0.00  0.00    +0.123 HD
ATOM     16  H   UNL     1      -2.721  -3.535   0.232  0.00  0.00    +0.160 HD
ENDROOT
BRANCH   1  19
ATOM     17  C   UNL     1       1.362  -1.939  -1.122  0.00  0.00    +0.162 A 
ATOM     18  C   UNL     1       0.828  -2.796  -0.174  0.00  0.00    +0.054 A 
ATOM     19  C   UNL     1       0.352  -4.037  -0.555  0.00  0.00    -0.024 A 
ATOM     20  C   UNL     1       0.407  -4.425  -1.881  0.00  0.00    +0.009 A 
ATOM     21  C   UNL     1       0.939  -3.574  -2.832  0.00  0.00    +0.049 A 
ATOM     22  C   UNL     1       1.413  -2.327  -2.458  0.00  0.00    +0.158 A 
BRANCH  22  23
ATOM     23  O   UNL     1       1.931  -1.486  -3.393  0.00  0.00    -0.503 OA
ATOM     24  H   UNL     1       2.882  -1.591  -3.532  0.00  0.00    +0.292 HD
ENDBRANCH  22  23
BRANCH  17  25
ATOM     25  O   UNL     1       1.831  -0.718  -0.749  0.00  0.00    -0.489 OA
BRANCH  25  27
ATOM     26  C   UNL     1       2.319   1.015   0.864  0.00  0.00    +0.048 C 
ATOM     27  C   UNL     1       1.748  -0.387   0.638  0.00  0.00    +0.226 C 
ENDBRANCH  25  27
ENDBRANCH  17  25
ENDBRANCH   1  19
TORSDOF 4
