REMARK  Name = ZINC02312564
REMARK  10 active torsions:
REMARK  status: ('A' for Active; 'I' for Inactive)
REMARK    1  A    between atoms: C_1  and  C_2
REMARK    2  A    between atoms: C_2  and  O_3
REMARK    3  A    between atoms: O_3  and  C_4
REMARK    4  A    between atoms: C_4  and  C_6
REMARK    5  A    between atoms: C_7  and  N_17
REMARK    6  A    between atoms: C_18  and  C_20
REMARK    7  A    between atoms: C_20  and  C_22
REMARK    8  A    between atoms: C_20  and  N_62
REMARK    9  A    between atoms: N_25  and  C_28
REMARK   10  A    between atoms: C_33  and  C_34
REMARK                            x       y       z     vdW  Elec       q    Type
REMARK                         _______ _______ _______ _____ _____    ______ ____
ROOT
ATOM      1  N   UNL     1       0.558   0.467  -5.290  0.00  0.00    -0.284 N 
ATOM      2  C   UNL     1       1.062  -0.457  -4.449  0.00  0.00    +0.203 C 
ATOM      3  O   UNL     1       0.556  -0.627  -3.360  0.00  0.00    -0.277 OA
ATOM      4  H   UNL     1       0.918   0.554  -6.187  0.00  0.00    +0.155 HD
ENDROOT
BRANCH   1   6
ATOM      5  C   UNL     1      -0.693   2.603  -5.253  0.00  0.00    +0.147 A 
ATOM      6  C   UNL     1      -0.480   1.294  -4.873  0.00  0.00    +0.073 A 
ATOM      7  C   UNL     1      -1.559   0.946  -3.946  0.00  0.00    +0.024 A 
ATOM      8  C   UNL     1      -1.880  -0.216  -3.238  0.00  0.00    +0.050 A 
ATOM      9  C   UNL     1      -2.990  -0.233  -2.423  0.00  0.00    +0.124 A 
ATOM     10  C   UNL     1      -3.791   0.898  -2.303  0.00  0.00    +0.040 A 
ATOM     11  C   UNL     1      -3.487   2.049  -2.994  0.00  0.00    +0.029 A 
ATOM     12  C   UNL     1      -2.369   2.090  -3.824  0.00  0.00    +0.049 A 
ATOM     13  N   UNL     1      -1.828   3.079  -4.614  0.00  0.00    -0.348 N 
ATOM     14  H   UNL     1      -2.189   3.974  -4.711  0.00  0.00    +0.166 HD
ATOM     15  F   UNL     1      -3.304  -1.354  -1.737  0.00  0.00    -0.205 F 
BRANCH   5  16
ATOM     16  C   UNL     1       0.121   3.345  -6.147  0.00  0.00    +0.358 C 
ATOM     17  O   UNL     1       1.155   2.864  -6.570  0.00  0.00    -0.243 OA
BRANCH  16  18
ATOM     18  O   UNL     1      -0.252   4.585  -6.529  0.00  0.00    -0.460 OA
BRANCH  18  20
ATOM     19  C   UNL     1       0.032   6.653  -7.747  0.00  0.00    +0.048 C 
ATOM     20  C   UNL     1       0.615   5.274  -7.431  0.00  0.00    +0.229 C 
ENDBRANCH  18  20
ENDBRANCH  16  18
ENDBRANCH   5  16
ENDBRANCH   1   6
BRANCH   2  21
ATOM     21  C   UNL     1       2.256  -1.280  -4.861  0.00  0.00    +0.017 C 
ATOM     22  C   UNL     1       3.440  -0.353  -5.146  0.00  0.00    -0.004 C 
BRANCH  21  28
ATOM     23  C   UNL     1       2.970  -1.475  -2.555  0.00  0.00    -0.059 C 
ATOM     24  C   UNL     1       3.254  -2.474  -1.430  0.00  0.00    +0.086 C 
ATOM     25  N   UNL     1       4.340  -3.375  -1.841  0.00  0.00    -0.333 N 
ATOM     26  C   UNL     1       3.979  -4.107  -3.064  0.00  0.00    +0.086 C 
ATOM     27  C   UNL     1       3.695  -3.108  -4.188  0.00  0.00    -0.059 C 
ATOM     28  N   UNL     1       2.587  -2.223  -3.771  0.00  0.00    +0.389 N 
ATOM     29  H   UNL     1       1.762  -2.797  -3.564  0.00  0.00    -0.081 HD
BRANCH  25  30
ATOM     30  C   UNL     1       4.676  -4.256  -0.811  0.00  0.00    +0.034 A 
ATOM     31  C   UNL     1       3.744  -5.179  -0.353  0.00  0.00    +0.043 A 
ATOM     32  C   UNL     1       4.081  -6.052   0.664  0.00  0.00    +0.043 A 
ATOM     33  C   UNL     1       5.342  -6.001   1.231  0.00  0.00    +0.020 A 
ATOM     34  C   UNL     1       6.270  -5.081   0.780  0.00  0.00    +0.006 A 
ATOM     35  C   UNL     1       5.940  -4.208  -0.239  0.00  0.00    -0.029 A 
ATOM     36  C   UNL     1       6.952  -3.205  -0.730  0.00  0.00    +0.045 C 
ATOM     37 CL   UNL     1       2.919  -7.210   1.234  0.00  0.00    -0.083 Cl
ENDBRANCH  25  30
ENDBRANCH  21  28
ENDBRANCH   2  21
TORSDOF 7
