REMARK  Name = ZINC39948903
REMARK  6 active torsions:
REMARK  status: ('A' for Active; 'I' for Inactive)
REMARK    1  A    between atoms: C_7  and  C_10
REMARK    2  A    between atoms: N_11  and  N_12
REMARK    3  A    between atoms: C_13  and  C_15
REMARK    4  A    between atoms: C_18  and  C_21
REMARK    5  A    between atoms: C_21  and  S_22
REMARK    6  A    between atoms: S_22  and  C_23
REMARK                            x       y       z     vdW  Elec       q    Type
REMARK                         _______ _______ _______ _____ _____    ______ ____
ROOT
ATOM      1  C   UNL     1      -0.201  -7.842  -0.039  0.00  0.00    +0.038 A 
ATOM      2  C   UNL     1      -1.580  -7.621  -0.031  0.00  0.00    +0.013 A 
ATOM      3  C   UNL     1      -2.447  -8.694  -0.029  0.00  0.00    +0.005 A 
ATOM      4  C   UNL     1      -1.953  -9.987  -0.035  0.00  0.00    -0.037 A 
ATOM      5  C   UNL     1      -0.588 -10.213  -0.043  0.00  0.00    +0.005 A 
ATOM      6  C   UNL     1       0.290  -9.149  -0.051  0.00  0.00    +0.013 A 
ENDROOT
BRANCH   1   8
ATOM      7  N   UNL     1       0.256  -5.437  -0.030  0.00  0.00    -0.203 N 
ATOM      8  C   UNL     1       0.733  -6.698  -0.042  0.00  0.00    +0.263 C 
ATOM      9  O   UNL     1       1.933  -6.893  -0.054  0.00  0.00    -0.268 OA
ATOM     10  H   UNL     1      -0.702  -5.282  -0.021  0.00  0.00    +0.178 HD
BRANCH   7  12
ATOM     11  C   UNL     1       0.678  -3.128  -0.022  0.00  0.00    +0.136 C 
ATOM     12  N   UNL     1       1.142  -4.352  -0.033  0.00  0.00    -0.188 NA
BRANCH  11  19
ATOM     13  C   UNL     1      -0.016   1.353   0.009  0.00  0.00    +0.001 A 
ATOM     14  C   UNL     1       1.164   2.102   0.002  0.00  0.00    +0.002 A 
ATOM     15  C   UNL     1       2.384   1.513  -0.013  0.00  0.00    +0.026 A 
ATOM     16  C   UNL     1       2.485   0.097  -0.021  0.00  0.00    +0.043 A 
ATOM     17  N   UNL     1       3.531  -0.702  -0.036  0.00  0.00    -0.380 N 
ATOM     18  C   UNL     1       3.076  -2.096  -0.039  0.00  0.00    +0.150 C 
ATOM     19  C   UNL     1       1.564  -2.042  -0.024  0.00  0.00    +0.000 C 
ATOM     20  C   UNL     1       1.238  -0.688  -0.013  0.00  0.00    +0.004 A 
ATOM     21  C   UNL     1       0.002  -0.004   0.002  0.00  0.00    +0.010 A 
ATOM     22  H   UNL     1       4.457  -0.414  -0.043  0.00  0.00    +0.160 HD
ENDBRANCH  11  19
ENDBRANCH   7  12
ENDBRANCH   1   8
BRANCH   4  23
ATOM     23  C   UNL     1      -2.906 -11.154  -0.032  0.00  0.00    +0.109 C 
BRANCH  23  24
ATOM     24  S   UNL     1      -3.299 -11.618  -1.741  0.00  0.00    -0.118 S 
BRANCH  24  25
ATOM     25  C   UNL     1      -4.408 -12.977  -1.569  0.00  0.00    +0.034 A 
ATOM     26  C   UNL     1      -4.770 -13.424  -0.316  0.00  0.00    +0.017 A 
ATOM     27  C   UNL     1      -5.645 -14.496  -0.167  0.00  0.00    +0.002 A 
ATOM     28  C   UNL     1      -6.166 -15.132  -1.253  0.00  0.00    +0.010 A 
ATOM     29  C   UNL     1      -5.822 -14.706  -2.546  0.00  0.00    +0.001 A 
ATOM     30  C   UNL     1      -4.937 -13.614  -2.714  0.00  0.00    +0.084 A 
ATOM     31  N   UNL     1      -4.610 -13.204  -3.942  0.00  0.00    -0.254 NA
ATOM     32  C   UNL     1      -5.097 -13.791  -5.009  0.00  0.00    +0.111 A 
ATOM     33  C   UNL     1      -5.977 -14.867  -4.915  0.00  0.00    +0.020 A 
ATOM     34  C   UNL     1      -6.343 -15.343  -3.689  0.00  0.00    +0.011 A 
ENDBRANCH  24  25
ENDBRANCH  23  24
ENDBRANCH   4  23
TORSDOF 6
