REMARK  Name = ZINC40390757
REMARK  4 active torsions:
REMARK  status: ('A' for Active; 'I' for Inactive)
REMARK    1  A    between atoms: C_1  and  C_2
REMARK    2  A    between atoms: C_5  and  N_9
REMARK    3  A    between atoms: C_6  and  C_8
REMARK    4  A    between atoms: C_10  and  C_12
REMARK                            x       y       z     vdW  Elec       q    Type
REMARK                         _______ _______ _______ _____ _____    ______ ____
ROOT
ATOM      1  C   UNL     1      -0.134  -6.343  -1.187  0.00  0.00    +0.122 C 
ATOM      2  C   UNL     1       1.114  -6.932  -0.527  0.00  0.00    +0.114 C 
ATOM      3  C   UNL     1       2.297  -6.769  -1.446  0.00  0.00    +0.219 C 
ATOM      4  O   UNL     1       3.387  -6.514  -0.981  0.00  0.00    -0.275 OA
ATOM      5  N   UNL     1       2.156  -6.903  -2.776  0.00  0.00    -0.270 N 
ATOM      6  C   UNL     1       0.907  -7.088  -3.344  0.00  0.00    +0.138 A 
ATOM      7  C   UNL     1      -0.235  -6.838  -2.604  0.00  0.00    +0.069 A 
ATOM      8  C   UNL     1      -1.486  -7.053  -3.192  0.00  0.00    +0.258 A 
ATOM      9  O   UNL     1      -2.512  -6.853  -2.563  0.00  0.00    -0.267 OA
ATOM     10  N   UNL     1      -1.534  -7.486  -4.471  0.00  0.00    -0.295 N 
ATOM     11  H   UNL     1      -2.391  -7.656  -4.893  0.00  0.00    +0.172 HD
ATOM     12  C   UNL     1      -0.382  -7.683  -5.167  0.00  0.00    +0.200 A 
ATOM     13  N   UNL     1       0.796  -7.485  -4.616  0.00  0.00    -0.200 NA
ATOM     14  N   UNL     1      -0.451  -8.097  -6.471  0.00  0.00    -0.296 N 
ATOM     15  C   UNL     1       0.764  -8.434  -7.232  0.00  0.00    +0.113 C 
ATOM     16  C   UNL     1       0.702  -9.921  -7.580  0.00  0.00    +0.054 C 
ATOM     17  C   UNL     1      -0.648 -10.284  -8.141  0.00  0.00    -0.041 A 
ATOM     18  C   UNL     1      -0.742 -11.451  -8.890  0.00  0.00    +0.004 A 
ATOM     19  C   UNL     1      -1.950 -11.846  -9.425  0.00  0.00    +0.000 A 
ATOM     20  C   UNL     1      -3.080 -11.078  -9.214  0.00  0.00    +0.000 A 
ATOM     21  C   UNL     1      -2.989  -9.917  -8.475  0.00  0.00    +0.005 A 
ATOM     22  C   UNL     1      -1.772  -9.514  -7.941  0.00  0.00    -0.027 A 
ATOM     23  C   UNL     1      -1.737  -8.228  -7.163  0.00  0.00    +0.143 C 
ATOM     24  H   UNL     1       2.940  -6.869  -3.346  0.00  0.00    +0.156 HD
ENDROOT
BRANCH   1  26
ATOM     25  N   UNL     1       0.059  -4.170  -0.021  0.00  0.00    -0.285 N 
ATOM     26  C   UNL     1      -0.040  -4.839  -1.187  0.00  0.00    +0.225 C 
ATOM     27  O   UNL     1      -0.053  -4.230  -2.236  0.00  0.00    -0.275 OA
ATOM     28  H   UNL     1       0.136  -4.658   0.814  0.00  0.00    +0.155 HD
BRANCH  25  33
ATOM     29  C   UNL     1       0.029   1.503   0.005  0.00  0.00    +0.044 C 
ATOM     30  C   UNL     1       0.037  -0.004  -0.002  0.00  0.00    -0.050 A 
ATOM     31  C   UNL     1       0.634  -0.686  -1.046  0.00  0.00    +0.005 A 
ATOM     32  C   UNL     1       0.644  -2.067  -1.055  0.00  0.00    +0.024 A 
ATOM     33  C   UNL     1       0.052  -2.771  -0.014  0.00  0.00    +0.036 A 
ATOM     34  C   UNL     1      -0.547  -2.083   1.033  0.00  0.00    -0.029 A 
ATOM     35  C   UNL     1      -0.548  -0.702   1.039  0.00  0.00    +0.008 A 
ATOM     36  C   UNL     1      -1.190  -2.843   2.164  0.00  0.00    +0.045 C 
ENDBRANCH  25  33
ENDBRANCH   1  26
TORSDOF 2
