REMARK  Name = ZINC03456441
REMARK  6 active torsions:
REMARK  status: ('A' for Active; 'I' for Inactive)
REMARK    1  A    between atoms: C_6  and  C_7
REMARK    2  A    between atoms: C_10  and  S_19
REMARK    3  A    between atoms: N_11  and  C_12
REMARK    4  A    between atoms: S_19  and  C_20
REMARK    5  A    between atoms: C_20  and  C_21
REMARK    6  A    between atoms: N_23  and  C_24
REMARK                            x       y       z     vdW  Elec       q    Type
REMARK                         _______ _______ _______ _____ _____    ______ ____
ROOT
ATOM      1  C   UNL     1      -2.395   0.914   0.285  0.00  0.00    +0.169 A 
ATOM      2  N   UNL     1      -2.739  -0.353   0.297  0.00  0.00    -0.128 NA
ATOM      3  N   UNL     1      -4.018  -0.461   0.355  0.00  0.00    -0.122 NA
ATOM      4  C   UNL     1      -4.572   0.730   0.384  0.00  0.00    +0.197 A 
ATOM      5  N   UNL     1      -3.559   1.649   0.347  0.00  0.00    -0.270 N 
ENDROOT
BRANCH   1  11
ATOM      6  C   UNL     1      -0.801   2.778  -0.151  0.00  0.00    +0.013 A 
ATOM      7  C   UNL     1       0.485   3.275  -0.201  0.00  0.00    +0.021 A 
ATOM      8  C   UNL     1       1.558   2.458   0.114  0.00  0.00    +0.041 A 
ATOM      9  C   UNL     1       1.348   1.140   0.480  0.00  0.00    +0.021 A 
ATOM     10  C   UNL     1       0.067   0.632   0.535  0.00  0.00    +0.013 A 
ATOM     11  C   UNL     1      -1.019   1.451   0.223  0.00  0.00    +0.020 A 
ATOM     12 CL   UNL     1       3.174   3.091   0.049  0.00  0.00    -0.084 Cl
ENDBRANCH   1  11
BRANCH   5  13
ATOM     13  C   UNL     1      -3.680   3.046   0.364  0.00  0.00    +0.051 A 
ATOM     14  C   UNL     1      -3.236   3.769   1.463  0.00  0.00    +0.028 A 
ATOM     15  C   UNL     1      -3.353   5.145   1.475  0.00  0.00    +0.022 A 
ATOM     16  C   UNL     1      -3.920   5.802   0.398  0.00  0.00    +0.041 A 
ATOM     17  C   UNL     1      -4.367   5.083  -0.697  0.00  0.00    +0.022 A 
ATOM     18  C   UNL     1      -4.249   3.708  -0.716  0.00  0.00    +0.028 A 
ATOM     19 CL   UNL     1      -4.070   7.532   0.419  0.00  0.00    -0.084 Cl
ENDBRANCH   5  13
BRANCH   4  20
ATOM     20  S   UNL     1      -6.298   1.079   0.464  0.00  0.00    -0.076 S 
BRANCH  20  21
ATOM     21  C   UNL     1      -6.958  -0.606   0.489  0.00  0.00    +0.173 C 
BRANCH  21  22
ATOM     22  C   UNL     1      -8.463  -0.554   0.558  0.00  0.00    +0.227 C 
ATOM     23  O   UNL     1      -9.032   0.516   0.587  0.00  0.00    -0.275 OA
ATOM     24  N   UNL     1      -9.175  -1.698   0.587  0.00  0.00    -0.285 N 
ATOM     25  H   UNL     1      -8.719  -2.553   0.634  0.00  0.00    +0.155 HD
BRANCH  24  26
ATOM     26  C   UNL     1     -10.575  -1.652   0.549  0.00  0.00    +0.035 A 
ATOM     27  C   UNL     1     -11.319  -2.612   1.226  0.00  0.00    +0.025 A 
ATOM     28  C   UNL     1     -12.698  -2.570   1.197  0.00  0.00    +0.029 A 
ATOM     29  C   UNL     1     -13.345  -1.573   0.481  0.00  0.00    +0.067 A 
ATOM     30  C   UNL     1     -12.600  -0.611  -0.204  0.00  0.00    +0.069 A 
ATOM     31  C   UNL     1     -11.215  -0.653  -0.168  0.00  0.00    +0.051 A 
ATOM     32  N   UNL     1     -13.514   0.243  -0.818  0.00  0.00    -0.306 N 
ATOM     33  H   UNL     1     -13.292   1.011  -1.367  0.00  0.00    +0.170 HD
ATOM     34  C   UNL     1     -14.757  -0.180  -0.521  0.00  0.00    +0.325 A 
ATOM     35  O   UNL     1     -15.786   0.346  -0.902  0.00  0.00    -0.247 OA
ATOM     36  N   UNL     1     -14.689  -1.274   0.261  0.00  0.00    -0.306 N 
ATOM     37  H   UNL     1     -15.446  -1.769   0.612  0.00  0.00    +0.170 HD
ENDBRANCH  24  26
ENDBRANCH  21  22
ENDBRANCH  20  21
ENDBRANCH   4  20
TORSDOF 6
