REMARK  Name = ZINC00808491
REMARK  5 active torsions:
REMARK  status: ('A' for Active; 'I' for Inactive)
REMARK    1  A    between atoms: C_1  and  N_2
REMARK    2  A    between atoms: N_11  and  C_24
REMARK    3  A    between atoms: C_24  and  C_25
REMARK    4  A    between atoms: C_25  and  S_26
REMARK    5  A    between atoms: S_26  and  C_27
REMARK                            x       y       z     vdW  Elec       q    Type
REMARK                         _______ _______ _______ _____ _____    ______ ____
ROOT
ATOM      1  C   UNL     1       2.563  -0.392   2.045  0.00  0.00    +0.155 C 
ATOM      2  N   UNL     1       1.777   0.157   0.938  0.00  0.00    -0.280 N 
ATOM      3  C   UNL     1       2.082   1.407   0.425  0.00  0.00    +0.170 A 
ATOM      4  C   UNL     1       1.319   1.904  -0.627  0.00  0.00    +0.153 A 
ATOM      5  C   UNL     1       0.264   1.127  -1.137  0.00  0.00    +0.280 A 
ATOM      6  O   UNL     1      -0.414   1.540  -2.061  0.00  0.00    -0.265 OA
ATOM      7  N   UNL     1       0.015  -0.084  -0.596  0.00  0.00    -0.273 N 
ATOM      8  H   UNL     1      -0.735  -0.639  -0.957  0.00  0.00    +0.173 HD
ATOM      9  C   UNL     1       0.758  -0.555   0.419  0.00  0.00    +0.331 A 
ATOM     10  O   UNL     1       0.504  -1.650   0.882  0.00  0.00    -0.246 OA
ATOM     11  N   UNL     1       1.841   3.154  -0.932  0.00  0.00    -0.305 N 
ATOM     12  C   UNL     1       2.877   3.365  -0.076  0.00  0.00    +0.201 A 
ATOM     13  N   UNL     1       3.006   2.323   0.720  0.00  0.00    -0.196 NA
ATOM     14  N   UNL     1       3.666   4.491  -0.046  0.00  0.00    -0.296 N 
ATOM     15  C   UNL     1       5.088   4.144  -0.201  0.00  0.00    +0.113 C 
ATOM     16  C   UNL     1       5.866   5.418  -0.527  0.00  0.00    +0.054 C 
ATOM     17  C   UNL     1       5.522   6.499   0.466  0.00  0.00    -0.041 A 
ATOM     18  C   UNL     1       6.363   7.597   0.566  0.00  0.00    +0.004 A 
ATOM     19  C   UNL     1       6.080   8.613   1.456  0.00  0.00    +0.000 A 
ATOM     20  C   UNL     1       4.952   8.536   2.252  0.00  0.00    +0.000 A 
ATOM     21  C   UNL     1       4.116   7.442   2.155  0.00  0.00    +0.005 A 
ATOM     22  C   UNL     1       4.400   6.419   1.262  0.00  0.00    -0.027 A 
ATOM     23  C   UNL     1       3.460   5.244   1.195  0.00  0.00    +0.143 C 
ENDROOT
BRANCH  11  24
ATOM     24  C   UNL     1       1.368   4.068  -1.974  0.00  0.00    +0.136 C 
BRANCH  24  25
ATOM     25  C   UNL     1       0.180   4.874  -1.445  0.00  0.00    +0.099 C 
BRANCH  25  26
ATOM     26  S   UNL     1      -0.541   5.842  -2.793  0.00  0.00    -0.084 S 
BRANCH  26  27
ATOM     27  C   UNL     1      -1.848   6.646  -1.927  0.00  0.00    +0.188 A 
ATOM     28  N   UNL     1      -2.015   6.402  -0.635  0.00  0.00    -0.230 NA
ATOM     29  C   UNL     1      -2.982   6.994   0.045  0.00  0.00    +0.115 A 
ATOM     30  C   UNL     1      -3.834   7.868  -0.612  0.00  0.00    +0.039 A 
ATOM     31  C   UNL     1      -3.635   8.097  -1.964  0.00  0.00    +0.115 A 
ATOM     32  N   UNL     1      -2.645   7.477  -2.585  0.00  0.00    -0.230 NA
ENDBRANCH  26  27
ENDBRANCH  25  26
ENDBRANCH  24  25
ENDBRANCH  11  24
TORSDOF 4
