REMARK  Name = ZINC44714148
REMARK  9 active torsions:
REMARK  status: ('A' for Active; 'I' for Inactive)
REMARK    1  A    between atoms: C_1  and  C_2
REMARK    2  A    between atoms: C_3  and  C_9
REMARK    3  A    between atoms: C_4  and  C_8
REMARK    4  A    between atoms: C_9  and  C_11
REMARK    5  A    between atoms: C_9  and  N_12
REMARK    6  A    between atoms: C_13  and  C_15
REMARK    7  A    between atoms: C_26  and  C_28
REMARK    8  A    between atoms: C_31  and  O_34
REMARK    9  A    between atoms: O_34  and  C_35
REMARK                            x       y       z     vdW  Elec       q    Type
REMARK                         _______ _______ _______ _____ _____    ______ ____
ROOT
ATOM      1  C   UNL     1       2.990  -0.773  -4.428  0.00  0.00    +0.100 C 
ATOM      2  C   UNL     1       4.345  -1.222  -3.836  0.00  0.00    +0.121 C 
ATOM      3  N   UNL     1       5.291  -1.159  -4.975  0.00  0.00    -0.296 N 
ATOM      4  C   UNL     1       4.899   0.066  -5.712  0.00  0.00    +0.115 C 
ATOM      5  C   UNL     1       3.358   0.073  -5.659  0.00  0.00    -0.004 C 
ATOM      6  C   UNL     1       2.843   1.499  -5.494  0.00  0.00    -0.010 C 
ATOM      7  C   UNL     1       3.169   2.305  -6.754  0.00  0.00    -0.082 C 
ATOM      8  N   UNL     1       2.543   1.669  -7.920  0.00  0.00    +0.379 N 
ATOM      9  C   UNL     1       3.113   0.332  -8.127  0.00  0.00    -0.082 C 
ATOM     10  C   UNL     1       2.784  -0.557  -6.924  0.00  0.00    -0.010 C 
ATOM     11  C   UNL     1       6.283  -2.021  -5.273  0.00  0.00    +0.248 C 
ATOM     12  O   UNL     1       6.400  -3.055  -4.644  0.00  0.00    -0.270 OA
ATOM     13  H   UNL     1       1.549   1.589  -7.764  0.00  0.00    -0.086 HD
ATOM     14  H   UNL     1       2.708   2.234  -8.739  0.00  0.00    -0.086 HD
ENDROOT
BRANCH  11  15
ATOM     15  C   UNL     1       7.229  -1.709  -6.363  0.00  0.00    +0.055 A 
ATOM     16  C   UNL     1       7.381  -0.391  -6.819  0.00  0.00    +0.020 A 
ATOM     17  C   UNL     1       8.277  -0.150  -7.840  0.00  0.00    +0.068 A 
ATOM     18  C   UNL     1       8.994  -1.213  -8.381  0.00  0.00    +0.220 A 
ATOM     19  N   UNL     1       8.827  -2.447  -7.929  0.00  0.00    -0.220 NA
ATOM     20  C   UNL     1       7.988  -2.721  -6.953  0.00  0.00    +0.127 A 
BRANCH  18  21
ATOM     21  O   UNL     1       9.875  -0.983  -9.384  0.00  0.00    -0.438 OA
BRANCH  21  22
ATOM     22  C   UNL     1      10.628  -2.025  -9.824  0.00  0.00    +0.130 A 
ATOM     23  C   UNL     1      10.080  -2.962 -10.689  0.00  0.00    +0.046 A 
ATOM     24  C   UNL     1      10.848  -4.020 -11.134  0.00  0.00    +0.004 A 
ATOM     25  C   UNL     1      12.161  -4.146 -10.720  0.00  0.00    +0.000 A 
ATOM     26  C   UNL     1      12.709  -3.214  -9.858  0.00  0.00    +0.004 A 
ATOM     27  C   UNL     1      11.947  -2.151  -9.414  0.00  0.00    +0.046 A 
ENDBRANCH  21  22
ENDBRANCH  18  21
ENDBRANCH  11  15
BRANCH   1  29
ATOM     28  N   UNL     1       0.882   0.069  -3.445  0.00  0.00    -0.308 N 
ATOM     29  C   UNL     1       2.230   0.059  -3.428  0.00  0.00    +0.219 C 
ATOM     30  O   UNL     1       2.831   0.720  -2.608  0.00  0.00    -0.275 OA
ATOM     31  H   UNL     1       0.402  -0.460  -4.101  0.00  0.00    +0.149 HD
BRANCH  28  32
ATOM     32  C   UNL     1       0.143   0.878  -2.473  0.00  0.00    +0.104 C 
ATOM     33  C   UNL     1       0.014   2.310  -2.995  0.00  0.00    +0.033 C 
BRANCH  32  36
ATOM     34  C   UNL     1      -1.285   0.434   0.275  0.00  0.00    +0.065 C 
ATOM     35  C   UNL     1      -1.847   0.099  -1.083  0.00  0.00    +0.038 A 
ATOM     36  C   UNL     1      -1.230   0.291  -2.272  0.00  0.00    +0.015 A 
ATOM     37  C   UNL     1      -2.092  -0.152  -3.280  0.00  0.00    +0.065 A 
ATOM     38  N   UNL     1      -3.187  -0.594  -2.717  0.00  0.00    -0.179 NA
ATOM     39  N   UNL     1      -3.055  -0.451  -1.330  0.00  0.00    -0.281 N 
ATOM     40  H   UNL     1      -3.715  -0.700  -0.665  0.00  0.00    +0.189 HD
ATOM     41  C   UNL     1      -1.808  -0.125  -4.760  0.00  0.00    +0.068 C 
ENDBRANCH  32  36
ENDBRANCH  28  32
ENDBRANCH   1  29
TORSDOF 6
