REMARK  Name = ZINC03532252
REMARK  6 active torsions:
REMARK  status: ('A' for Active; 'I' for Inactive)
REMARK    1  A    between atoms: C_1  and  C_2
REMARK    2  A    between atoms: N_13  and  C_26
REMARK    3  A    between atoms: C_14  and  S_16
REMARK    4  A    between atoms: S_16  and  C_17
REMARK    5  A    between atoms: C_17  and  C_19
REMARK    6  A    between atoms: C_17  and  C_20
REMARK                            x       y       z     vdW  Elec       q    Type
REMARK                         _______ _______ _______ _____ _____    ______ ____
ROOT
ATOM      1  C   UNL     1       1.397   3.572   0.258  0.00  0.00    +0.008 C 
ATOM      2  C   UNL     1       1.415   2.064  -0.000  0.00  0.00    -0.009 C 
ATOM      3  C   UNL     1      -0.019   1.524   0.010  0.00  0.00    +0.008 C 
ATOM      4  C   UNL     1       0.002  -0.004   0.002  0.00  0.00    +0.037 C 
ATOM      5  C   UNL     1       0.873  -0.481  -1.157  0.00  0.00    -0.023 A 
ATOM      6  C   UNL     1       1.763   0.356  -1.737  0.00  0.00    -0.004 A 
ATOM      7  S   UNL     1       2.540  -0.602  -3.014  0.00  0.00    -0.073 S 
ATOM      8  C   UNL     1       1.673  -2.120  -2.768  0.00  0.00    +0.117 A 
ATOM      9  C   UNL     1       0.801  -1.831  -1.694  0.00  0.00    +0.076 A 
ATOM     10  C   UNL     1      -0.058  -2.886  -1.245  0.00  0.00    +0.268 A 
ATOM     11  O   UNL     1      -0.845  -2.733  -0.326  0.00  0.00    -0.267 OA
ATOM     12  N   UNL     1       0.057  -4.062  -1.904  0.00  0.00    -0.253 N 
ATOM     13  C   UNL     1       0.929  -4.254  -2.935  0.00  0.00    +0.178 A 
ATOM     14  N   UNL     1       1.738  -3.299  -3.374  0.00  0.00    -0.215 NA
ATOM     15  C   UNL     1       2.034   1.784  -1.377  0.00  0.00    +0.046 C 
ENDROOT
BRANCH  12  16
ATOM     16  C   UNL     1      -0.758  -5.133  -1.510  0.00  0.00    +0.087 A 
ATOM     17  C   UNL     1      -0.317  -6.022  -0.539  0.00  0.00    +0.029 A 
ATOM     18  C   UNL     1      -1.124  -7.073  -0.149  0.00  0.00    +0.002 A 
ATOM     19  C   UNL     1      -2.366  -7.248  -0.731  0.00  0.00    +0.003 A 
ATOM     20  C   UNL     1      -2.808  -6.368  -1.702  0.00  0.00    +0.040 A 
ATOM     21  C   UNL     1      -2.007  -5.310  -2.094  0.00  0.00    +0.147 A 
ATOM     22  F   UNL     1      -2.438  -4.451  -3.043  0.00  0.00    -0.203 F 
ENDBRANCH  12  16
BRANCH  13  23
ATOM     23  S   UNL     1       0.984  -5.833  -3.713  0.00  0.00    -0.075 S 
BRANCH  23  24
ATOM     24  C   UNL     1       2.264  -5.526  -4.957  0.00  0.00    +0.137 C 
ATOM     25  C   UNL     1       3.597  -5.252  -4.259  0.00  0.00    +0.029 C 
BRANCH  24  26
ATOM     26  C   UNL     1       2.400  -6.735  -5.846  0.00  0.00    +0.233 C 
ATOM     27  O   UNL     1       1.996  -7.814  -5.469  0.00  0.00    -0.274 OA
ATOM     28  N   UNL     1       2.973  -6.617  -7.060  0.00  0.00    -0.239 N 
ATOM     29  C   UNL     1       3.095  -7.699  -7.856  0.00  0.00    +0.303 C 
ATOM     30  O   UNL     1       2.689  -8.780  -7.477  0.00  0.00    -0.253 OA
ATOM     31  N   UNL     1       3.668  -7.580  -9.070  0.00  0.00    -0.313 N 
ATOM     32  H   UNL     1       3.296  -5.754  -7.362  0.00  0.00    +0.159 HD
ATOM     33  H   UNL     1       3.991  -6.717  -9.372  0.00  0.00    +0.146 HD
ATOM     34  H   UNL     1       3.756  -8.359  -9.642  0.00  0.00    +0.146 HD
ENDBRANCH  24  26
ENDBRANCH  23  24
ENDBRANCH  13  23
TORSDOF 4
