REMARK  Name = ZINC44168845
REMARK  8 active torsions:
REMARK  status: ('A' for Active; 'I' for Inactive)
REMARK    1  A    between atoms: C_4  and  C_7
REMARK    2  A    between atoms: C_9  and  C_12
REMARK    3  A    between atoms: C_17  and  C_20
REMARK    4  A    between atoms: N_22  and  C_23
REMARK    5  A    between atoms: C_23  and  C_24
REMARK    6  A    between atoms: C_24  and  C_25
REMARK    7  A    between atoms: C_25  and  C_26
REMARK    8  A    between atoms: C_25  and  C_32
REMARK                            x       y       z     vdW  Elec       q    Type
REMARK                         _______ _______ _______ _____ _____    ______ ____
ROOT
ATOM      1  C   UNL     1       8.162  -0.769   1.148  0.00  0.00    +0.010 C 
ATOM      2  C   UNL     1       8.624  -0.856  -0.311  0.00  0.00    +0.061 C 
ATOM      3  S   UNL     1       8.714  -2.613  -0.778  0.00  0.00    -0.163 S 
ATOM      4  C   UNL     1       9.679  -3.338   0.585  0.00  0.00    +0.062 C 
ATOM      5  C   UNL     1       9.058  -2.880   1.910  0.00  0.00    +0.027 C 
ATOM      6  N   UNL     1       9.142  -1.422   2.019  0.00  0.00    +0.394 N 
ATOM      7  H   UNL     1      10.069  -1.122   1.756  0.00  0.00    -0.084 HD
ATOM      8  H   UNL     1       8.966  -1.152   2.975  0.00  0.00    -0.084 HD
ENDROOT
BRANCH   1  11
ATOM      9  C   UNL     1       7.182   2.693   2.015  0.00  0.00    +0.114 A 
ATOM     10  C   UNL     1       6.877   1.375   1.599  0.00  0.00    +0.074 A 
ATOM     11  C   UNL     1       8.025   0.678   1.545  0.00  0.00    +0.125 A 
ATOM     12  O   UNL     1       9.028   1.493   1.905  0.00  0.00    -0.361 OA
ATOM     13  N   UNL     1       8.479   2.766   2.194  0.00  0.00    -0.078 NA
BRANCH   9  17
ATOM     14  C   UNL     1       4.395   5.858   2.567  0.00  0.00    +0.000 A 
ATOM     15  C   UNL     1       5.742   6.078   2.795  0.00  0.00    +0.001 A 
ATOM     16  C   UNL     1       6.651   5.054   2.618  0.00  0.00    +0.010 A 
ATOM     17  C   UNL     1       6.210   3.798   2.208  0.00  0.00    +0.004 A 
ATOM     18  C   UNL     1       4.852   3.582   1.980  0.00  0.00    +0.010 A 
ATOM     19  C   UNL     1       3.952   4.612   2.160  0.00  0.00    +0.001 A 
ENDBRANCH   9  17
ENDBRANCH   1  11
BRANCH   5  20
ATOM     20  C   UNL     1       9.806  -3.510   3.057  0.00  0.00    +0.200 C 
ATOM     21  O   UNL     1      10.357  -2.809   3.879  0.00  0.00    -0.278 OA
ATOM     22  N   UNL     1       9.861  -4.852   3.169  0.00  0.00    -0.317 N 
ATOM     23  H   UNL     1       9.421  -5.412   2.512  0.00  0.00    +0.149 HD
BRANCH  22  24
ATOM     24  C   UNL     1      10.588  -5.464   4.284  0.00  0.00    +0.105 C 
BRANCH  24  25
ATOM     25  C   UNL     1      10.497  -6.988   4.177  0.00  0.00    +0.031 C 
BRANCH  25  26
ATOM     26  C   UNL     1      11.255  -7.627   5.342  0.00  0.00    +0.050 C 
BRANCH  26  27
ATOM     27  C   UNL     1      10.573  -7.277   6.639  0.00  0.00    -0.040 A 
ATOM     28  C   UNL     1      11.300  -6.720   7.674  0.00  0.00    +0.004 A 
ATOM     29  C   UNL     1      10.673  -6.399   8.864  0.00  0.00    +0.000 A 
ATOM     30  C   UNL     1       9.320  -6.634   9.018  0.00  0.00    +0.000 A 
ATOM     31  C   UNL     1       8.593  -7.191   7.983  0.00  0.00    +0.000 A 
ATOM     32  C   UNL     1       9.218  -7.508   6.791  0.00  0.00    +0.004 A 
ENDBRANCH  26  27
BRANCH  26  33
ATOM     33  C   UNL     1      11.270  -9.124   5.170  0.00  0.00    -0.040 A 
ATOM     34  C   UNL     1      10.088  -9.806   4.950  0.00  0.00    +0.004 A 
ATOM     35  C   UNL     1      10.102 -11.180   4.793  0.00  0.00    +0.000 A 
ATOM     36  C   UNL     1      11.298 -11.871   4.854  0.00  0.00    +0.000 A 
ATOM     37  C   UNL     1      12.480 -11.188   5.073  0.00  0.00    +0.000 A 
ATOM     38  C   UNL     1      12.467  -9.815   5.227  0.00  0.00    +0.004 A 
ENDBRANCH  26  33
ENDBRANCH  25  26
ENDBRANCH  24  25
ENDBRANCH  22  24
ENDBRANCH   5  20
TORSDOF 8
