REMARK  Name = ZINC15522260
REMARK  11 active torsions:
REMARK  status: ('A' for Active; 'I' for Inactive)
REMARK    1  A    between atoms: C_1  and  C_2
REMARK    2  A    between atoms: C_5  and  N_9
REMARK    3  A    between atoms: C_7  and  C_8
REMARK    4  A    between atoms: C_10  and  S_14
REMARK    5  A    between atoms: S_14  and  C_15
REMARK    6  A    between atoms: C_15  and  C_16
REMARK    7  A    between atoms: N_18  and  C_19
REMARK    8  A    between atoms: C_19  and  C_21
REMARK    9  A    between atoms: C_19  and  C_32
REMARK   10  A    between atoms: C_32  and  C_33
REMARK   11  A    between atoms: C_32  and  C_34
REMARK                            x       y       z     vdW  Elec       q    Type
REMARK                         _______ _______ _______ _____ _____    ______ ____
ROOT
ATOM      1  C   UNL     1      -2.022  -1.094   2.428  0.00  0.00    +0.224 C 
ATOM      2  O   UNL     1      -1.929  -0.492   3.476  0.00  0.00    -0.275 OA
ATOM      3  N   UNL     1      -2.144  -0.415   1.270  0.00  0.00    -0.308 N 
ATOM      4  H   UNL     1      -2.219  -0.897   0.431  0.00  0.00    +0.149 HD
ENDROOT
BRANCH   1   5
ATOM      5  C   UNL     1      -2.002  -2.601   2.419  0.00  0.00    +0.173 C 
BRANCH   5   6
ATOM      6  S   UNL     1      -1.829  -3.211   4.114  0.00  0.00    -0.075 S 
BRANCH   6   8
ATOM      7  N   UNL     1      -1.723  -5.927   4.749  0.00  0.00    -0.187 N 
ATOM      8  C   UNL     1      -1.833  -4.948   3.816  0.00  0.00    +0.214 A 
ATOM      9  N   UNL     1      -1.938  -5.540   2.646  0.00  0.00    -0.101 NA
ATOM     10  N   UNL     1      -1.906  -6.816   2.784  0.00  0.00    -0.022 NA
ATOM     11  N   UNL     1      -1.781  -7.132   4.027  0.00  0.00    -0.038 NA
BRANCH   7  16
ATOM     12  C   UNL     1      -1.161  -5.293  10.362  0.00  0.00    +0.044 C 
ATOM     13  C   UNL     1      -1.310  -5.461   8.872  0.00  0.00    -0.047 A 
ATOM     14  C   UNL     1      -0.720  -4.553   8.012  0.00  0.00    +0.006 A 
ATOM     15  C   UNL     1      -0.855  -4.704   6.646  0.00  0.00    +0.028 A 
ATOM     16  C   UNL     1      -1.584  -5.770   6.136  0.00  0.00    +0.070 A 
ATOM     17  C   UNL     1      -2.180  -6.678   7.001  0.00  0.00    +0.031 A 
ATOM     18  C   UNL     1      -2.036  -6.524   8.367  0.00  0.00    -0.046 A 
ATOM     19  C   UNL     1      -2.678  -7.512   9.307  0.00  0.00    +0.044 C 
ENDBRANCH   7  16
ENDBRANCH   6   8
ENDBRANCH   5   6
ENDBRANCH   1   5
BRANCH   3  20
ATOM     20  C   UNL     1      -2.164   1.050   1.278  0.00  0.00    +0.106 C 
BRANCH  20  21
ATOM     21  C   UNL     1      -2.893   1.549   0.057  0.00  0.00    -0.023 A 
ATOM     22  C   UNL     1      -2.702   0.925  -1.162  0.00  0.00    +0.009 A 
ATOM     23  C   UNL     1      -3.373   1.374  -2.286  0.00  0.00    +0.050 A 
ATOM     24  C   UNL     1      -4.227   2.459  -2.188  0.00  0.00    +0.162 A 
ATOM     25  C   UNL     1      -4.415   3.088  -0.965  0.00  0.00    +0.162 A 
ATOM     26  C   UNL     1      -3.747   2.633   0.159  0.00  0.00    +0.055 A 
ATOM     27  O   UNL     1      -5.260   4.156  -0.879  0.00  0.00    -0.488 OA
ATOM     28  C   UNL     1      -4.834   5.346  -1.544  0.00  0.00    +0.232 C 
ATOM     29  C   UNL     1      -5.213   5.307  -3.016  0.00  0.00    +0.082 C 
ATOM     30  C   UNL     1      -4.492   4.201  -3.771  0.00  0.00    +0.232 C 
ATOM     31  O   UNL     1      -4.891   2.916  -3.290  0.00  0.00    -0.488 OA
ENDBRANCH  20  21
BRANCH  20  32
ATOM     32  C   UNL     1      -0.729   1.579   1.267  0.00  0.00    +0.008 C 
ATOM     33  C   UNL     1      -0.013   1.086   0.008  0.00  0.00    +0.009 C 
ATOM     34  C   UNL     1       0.011   1.072   2.506  0.00  0.00    +0.009 C 
ENDBRANCH  20  32
ENDBRANCH   3  20
TORSDOF 7
