REMARK  Name = ZINC09470751
REMARK  6 active torsions:
REMARK  status: ('A' for Active; 'I' for Inactive)
REMARK    1  A    between atoms: C_1  and  C_2
REMARK    2  A    between atoms: C_2  and  C_4
REMARK    3  A    between atoms: C_2  and  N_11
REMARK    4  A    between atoms: C_12  and  C_14
REMARK    5  A    between atoms: C_14  and  S_15
REMARK    6  A    between atoms: S_15  and  C_16
REMARK                            x       y       z     vdW  Elec       q    Type
REMARK                         _______ _______ _______ _____ _____    ______ ____
ROOT
ATOM      1  C   UNL     1      -0.897  -2.588  -0.003  0.00  0.00    +0.173 C 
ENDROOT
BRANCH   1   3
ATOM      2  N   UNL     1      -1.833  -4.878  -0.006  0.00  0.00    -0.308 N 
ATOM      3  C   UNL     1      -2.058  -3.550   0.004  0.00  0.00    +0.224 C 
ATOM      4  O   UNL     1      -3.195  -3.128   0.017  0.00  0.00    -0.275 OA
ATOM      5  H   UNL     1      -0.923  -5.216  -0.017  0.00  0.00    +0.149 HD
BRANCH   2   7
ATOM      6  C   UNL     1      -3.448  -6.034  -1.433  0.00  0.00    +0.033 C 
ATOM      7  C   UNL     1      -2.961  -5.813   0.000  0.00  0.00    +0.100 C 
BRANCH   7   8
ATOM      8  C   UNL     1      -2.520  -7.128   0.589  0.00  0.00    -0.027 A 
ATOM      9  C   UNL     1      -1.276  -7.643   0.277  0.00  0.00    +0.008 A 
ATOM     10  C   UNL     1      -0.869  -8.847   0.821  0.00  0.00    +0.038 A 
ATOM     11  C   UNL     1      -1.712  -9.542   1.670  0.00  0.00    +0.123 A 
ATOM     12  C   UNL     1      -2.961  -9.028   1.978  0.00  0.00    +0.038 A 
ATOM     13  C   UNL     1      -3.363  -7.822   1.438  0.00  0.00    +0.008 A 
ATOM     14  F   UNL     1      -1.318 -10.722   2.197  0.00  0.00    -0.205 F 
ENDBRANCH   7   8
ENDBRANCH   2   7
ENDBRANCH   1   3
BRANCH   1  15
ATOM     15  S   UNL     1      -1.521  -0.889   0.012  0.00  0.00    -0.077 S 
BRANCH  15  16
ATOM     16  C   UNL     1       0.002  -0.004   0.002  0.00  0.00    +0.191 A 
ATOM     17  N   UNL     1      -0.016   1.324   0.009  0.00  0.00    -0.207 NA
ATOM     18  C   UNL     1       1.094   2.042   0.003  0.00  0.00    +0.129 A 
ATOM     19  C   UNL     1       2.353   1.378  -0.013  0.00  0.00    +0.047 A 
ATOM     20  C   UNL     1       3.695   1.935  -0.023  0.00  0.00    +0.021 A 
ATOM     21  C   UNL     1       4.748   1.106  -0.037  0.00  0.00    +0.048 A 
ATOM     22  S   UNL     1       4.003  -0.514  -0.039  0.00  0.00    -0.077 S 
ATOM     23  C   UNL     1       2.296  -0.032  -0.020  0.00  0.00    +0.114 A 
ATOM     24  N   UNL     1       1.145  -0.676  -0.013  0.00  0.00    -0.215 NA
ATOM     25  N   UNL     1       1.033   3.423   0.010  0.00  0.00    -0.343 N 
ATOM     26  H   UNL     1       0.172   3.870   0.020  0.00  0.00    +0.144 HD
ATOM     27  H   UNL     1       1.851   3.945   0.005  0.00  0.00    +0.144 HD
ENDBRANCH  15  16
ENDBRANCH   1  15
TORSDOF 5
