REMARK  Name = ZINC00691093
REMARK  6 active torsions:
REMARK  status: ('A' for Active; 'I' for Inactive)
REMARK    1  A    between atoms: C_1  and  C_2
REMARK    2  A    between atoms: C_2  and  C_33
REMARK    3  A    between atoms: C_6  and  C_20
REMARK    4  A    between atoms: C_8  and  C_18
REMARK    5  A    between atoms: C_9  and  N_17
REMARK    6  A    between atoms: C_25  and  C_26
REMARK                            x       y       z     vdW  Elec       q    Type
REMARK                         _______ _______ _______ _____ _____    ______ ____
ROOT
ATOM      1  C   UNL     1      -5.013  -1.769   1.830  0.00  0.00    +0.011 C 
ATOM      2  C   UNL     1      -3.727  -1.766   2.658  0.00  0.00    -0.023 C 
ATOM      3  C   UNL     1      -2.558  -2.250   1.796  0.00  0.00    +0.058 C 
ATOM      4  C   UNL     1      -2.368  -1.312   0.629  0.00  0.00    +0.028 C 
ATOM      5  C   UNL     1      -2.662   0.001   0.738  0.00  0.00    +0.025 C 
ATOM      6  C   UNL     1      -2.451   0.940  -0.423  0.00  0.00    +0.098 C 
ATOM      7  C   UNL     1      -2.332   0.187  -1.715  0.00  0.00    +0.077 C 
ATOM      8  C   UNL     1      -2.055  -1.142  -1.729  0.00  0.00    +0.109 C 
ATOM      9  N   UNL     1      -1.885  -1.825  -0.546  0.00  0.00    -0.228 N 
ATOM     10  C   UNL     1      -1.214  -3.053  -0.544  0.00  0.00    +0.246 A 
ATOM     11  N   UNL     1      -0.979  -3.809   0.533  0.00  0.00    -0.202 NA
ATOM     12  C   UNL     1      -0.334  -4.892   0.182  0.00  0.00    +0.217 A 
ATOM     13  N   UNL     1      -0.130  -4.847  -1.146  0.00  0.00    -0.264 N 
ATOM     14  H   UNL     1       0.326  -5.511  -1.686  0.00  0.00    +0.190 HD
ATOM     15  N   UNL     1      -0.708  -3.649  -1.597  0.00  0.00    -0.136 NA
ATOM     16  C   UNL     1      -3.175   0.532   1.934  0.00  0.00    +0.162 C 
ATOM     17  O   UNL     1      -3.423   1.720   2.001  0.00  0.00    -0.292 OA
ATOM     18  C   UNL     1      -3.423  -0.342   3.133  0.00  0.00    +0.086 C 
ATOM     19  C   UNL     1      -3.892  -2.691   3.866  0.00  0.00    +0.011 C 
ENDROOT
BRANCH   6  20
ATOM     20  C   UNL     1      -1.189   1.732  -0.194  0.00  0.00    -0.023 A 
ATOM     21  C   UNL     1       0.002   1.077   0.056  0.00  0.00    +0.005 A 
ATOM     22  C   UNL     1       1.161   1.802   0.260  0.00  0.00    +0.000 A 
ATOM     23  C   UNL     1       1.127   3.184   0.219  0.00  0.00    +0.001 A 
ATOM     24  C   UNL     1      -0.065   3.839  -0.025  0.00  0.00    +0.012 A 
ATOM     25  C   UNL     1      -1.224   3.113  -0.230  0.00  0.00    +0.059 A 
BRANCH  25  26
ATOM     26  C   UNL     1      -2.523   3.828  -0.496  0.00  0.00    +0.418 C 
ATOM     27  F   UNL     1      -2.286   5.202  -0.606  0.00  0.00    -0.166 F 
ATOM     28  F   UNL     1      -3.080   3.353  -1.689  0.00  0.00    -0.166 F 
ATOM     29  F   UNL     1      -3.411   3.591   0.559  0.00  0.00    -0.166 F 
ENDBRANCH  25  26
ENDBRANCH   6  20
BRANCH   8  30
ATOM     30  N   UNL     1      -1.944  -1.807  -2.927  0.00  0.00    -0.345 N 
ATOM     31  H   UNL     1      -2.063  -1.326  -3.761  0.00  0.00    +0.144 HD
ATOM     32  H   UNL     1      -1.747  -2.756  -2.938  0.00  0.00    +0.144 HD
ENDBRANCH   8  30
BRANCH   7  33
ATOM     33  C   UNL     1      -2.513   0.882  -2.954  0.00  0.00    +0.099 C 
ATOM     34  N   UNL     1      -2.656   1.434  -3.937  0.00  0.00    -0.191 NA
ENDBRANCH   7  33
TORSDOF 4
