REMARK  Name = ZINC02768277
REMARK  12 active torsions:
REMARK  status: ('A' for Active; 'I' for Inactive)
REMARK    1  A    between atoms: C_1  and  O_2
REMARK    2  A    between atoms: O_2  and  C_3
REMARK    3  A    between atoms: C_6  and  O_9
REMARK    4  A    between atoms: O_9  and  C_10
REMARK    5  A    between atoms: C_10  and  C_11
REMARK    6  A    between atoms: C_14  and  C_19
REMARK    7  A    between atoms: C_16  and  O_17
REMARK    8  A    between atoms: O_17  and  C_18
REMARK    9  A    between atoms: C_29  and  N_35
REMARK   10  A    between atoms: C_30  and  C_31
REMARK   11  A    between atoms: C_31  and  O_33
REMARK   12  A    between atoms: O_33  and  C_34
REMARK                            x       y       z     vdW  Elec       q    Type
REMARK                         _______ _______ _______ _____ _____    ______ ____
ROOT
ATOM      1  C   UNL     1       5.763  -2.835   1.204  0.00  0.00    +0.031 A 
ATOM      2  C   UNL     1       5.605  -1.544   0.736  0.00  0.00    +0.011 A 
ATOM      3  C   UNL     1       4.657  -0.713   1.304  0.00  0.00    +0.005 A 
ATOM      4  C   UNL     1       3.872  -1.168   2.348  0.00  0.00    -0.032 A 
ATOM      5  C   UNL     1       4.026  -2.457   2.819  0.00  0.00    +0.050 A 
ATOM      6  C   UNL     1       4.973  -3.295   2.248  0.00  0.00    +0.127 A 
ENDROOT
BRANCH   4   7
ATOM      7  C   UNL     1       2.844  -0.257   2.968  0.00  0.00    +0.098 C 
ATOM      8  C   UNL     1       1.850   0.167   1.913  0.00  0.00    +0.045 C 
ATOM      9  C   UNL     1       1.935   1.382   1.342  0.00  0.00    +0.115 C 
ATOM     10  C   UNL     1       0.950   1.803   0.276  0.00  0.00    +0.075 C 
ATOM     11  C   UNL     1      -0.402   1.134   0.532  0.00  0.00    +0.016 C 
ATOM     12  C   UNL     1      -0.201  -0.385   0.524  0.00  0.00    +0.080 C 
ATOM     13  C   UNL     1       0.839  -0.744   1.550  0.00  0.00    +0.163 C 
ATOM     14  O   UNL     1       0.806  -1.838   2.075  0.00  0.00    -0.292 OA
ATOM     15  O   UNL     1       2.896   2.257   1.693  0.00  0.00    -0.446 OA
ATOM     16  C   UNL     1       3.515   2.132   2.877  0.00  0.00    +0.195 C 
ATOM     17  C   UNL     1       3.531   0.949   3.544  0.00  0.00    +0.105 C 
BRANCH  16  18
ATOM     18  N   UNL     1       4.141   3.219   3.424  0.00  0.00    -0.329 N 
ATOM     19  H   UNL     1       4.572   3.871   2.849  0.00  0.00    +0.145 HD
ATOM     20  H   UNL     1       4.155   3.338   4.386  0.00  0.00    +0.145 HD
ENDBRANCH  16  18
BRANCH  17  21
ATOM     21  C   UNL     1       4.194   0.852   4.777  0.00  0.00    +0.341 C 
ATOM     22  O   UNL     1       4.846   1.793   5.194  0.00  0.00    -0.245 OA
BRANCH  21  23
ATOM     23  O   UNL     1       4.108  -0.284   5.503  0.00  0.00    -0.465 OA
ATOM     24  C   UNL     1       4.808  -0.312   6.748  0.00  0.00    +0.280 C 
ENDBRANCH  21  23
ENDBRANCH  17  21
ENDBRANCH   4   7
BRANCH   6  25
ATOM     25  O   UNL     1       5.127  -4.564   2.709  0.00  0.00    -0.495 OA
ATOM     26  C   UNL     1       4.279  -4.969   3.785  0.00  0.00    +0.277 C 
ENDBRANCH   6  25
BRANCH   1  27
ATOM     27  C   UNL     1       6.793  -3.742   0.581  0.00  0.00    +0.268 C 
BRANCH  27  28
ATOM     28  O   UNL     1       7.472  -3.044  -0.465  0.00  0.00    -0.487 OA
BRANCH  28  32
ATOM     29  C   UNL     1      10.410  -5.112  -2.497  0.00  0.00    +0.120 A 
ATOM     30  C   UNL     1      10.122  -3.800  -2.841  0.00  0.00    +0.049 A 
ATOM     31  C   UNL     1       9.139  -3.108  -2.161  0.00  0.00    +0.049 A 
ATOM     32  C   UNL     1       8.440  -3.725  -1.135  0.00  0.00    +0.121 A 
ATOM     33  C   UNL     1       8.732  -5.036  -0.787  0.00  0.00    +0.049 A 
ATOM     34  C   UNL     1       9.711  -5.730  -1.471  0.00  0.00    +0.049 A 
BRANCH  29  36
ATOM     35  C   UNL     1      11.622  -7.141  -2.760  0.00  0.00    +0.277 C 
ATOM     36  O   UNL     1      11.378  -5.794  -3.167  0.00  0.00    -0.495 OA
ENDBRANCH  29  36
ENDBRANCH  28  32
ENDBRANCH  27  28
ENDBRANCH   1  27
TORSDOF 9
