REMARK  Name = ZINC31166712
REMARK  15 active torsions:
REMARK  status: ('A' for Active; 'I' for Inactive)
REMARK    1  A    between atoms: C_2  and  C_3
REMARK    2  A    between atoms: C_3  and  C_4
REMARK    3  A    between atoms: C_7  and  O_10
REMARK    4  A    between atoms: O_10  and  C_11
REMARK    5  A    between atoms: C_13  and  O_42
REMARK    6  A    between atoms: C_15  and  O_41
REMARK    7  A    between atoms: C_17  and  O_40
REMARK    8  A    between atoms: C_19  and  C_22
REMARK    9  A    between atoms: C_22  and  O_23
REMARK   10  A    between atoms: O_23  and  C_24
REMARK   11  A    between atoms: C_26  and  O_39
REMARK   12  A    between atoms: C_28  and  O_38
REMARK   13  A    between atoms: C_30  and  O_37
REMARK   14  A    between atoms: C_32  and  C_35
REMARK   15  A    between atoms: C_35  and  O_36
REMARK                            x       y       z     vdW  Elec       q    Type
REMARK                         _______ _______ _______ _____ _____    ______ ____
ROOT
ATOM      1  C   UNL     1       2.065   1.115   1.238  0.00  0.00    +0.339 C 
ATOM      2  C   UNL     1       1.286   1.562  -0.002  0.00  0.00    +0.214 C 
ATOM      3  C   UNL     1       1.146   3.087   0.016  0.00  0.00    +0.180 C 
ATOM      4  C   UNL     1       2.541   3.716   0.084  0.00  0.00    +0.177 C 
ATOM      5  C   UNL     1       3.271   3.186   1.321  0.00  0.00    +0.179 C 
ATOM      6  O   UNL     1       3.340   1.760   1.257  0.00  0.00    -0.331 OA
ENDROOT
BRANCH   4   7
ATOM      7  O   UNL     1       3.279   3.373  -1.090  0.00  0.00    -0.386 OA
ATOM      8  H   UNL     1       4.309   3.738  -1.219  0.00  0.00    +0.210 HD
ENDBRANCH   4   7
BRANCH   3   9
ATOM      9  O   UNL     1       0.386   3.484   1.159  0.00  0.00    -0.386 OA
ATOM     10  H   UNL     1       0.181   4.550   1.339  0.00  0.00    +0.210 HD
ENDBRANCH   3   9
BRANCH   2  11
ATOM     11  O   UNL     1      -0.011   0.963   0.007  0.00  0.00    -0.383 OA
ATOM     12  H   UNL     1      -0.718   1.169  -0.810  0.00  0.00    +0.210 HD
ENDBRANCH   2  11
BRANCH   1  13
ATOM     13  O   UNL     1       1.334   1.469   2.413  0.00  0.00    -0.461 OA
BRANCH  13  17
ATOM     14  C   UNL     1       2.865   0.195   6.027  0.00  0.00    -0.043 A 
ATOM     15  C   UNL     1       1.694   0.931   5.994  0.00  0.00    +0.007 A 
ATOM     16  C   UNL     1       1.180   1.359   4.785  0.00  0.00    +0.046 A 
ATOM     17  C   UNL     1       1.838   1.050   3.604  0.00  0.00    +0.124 A 
ATOM     18  C   UNL     1       3.009   0.306   3.639  0.00  0.00    +0.046 A 
ATOM     19  C   UNL     1       3.523  -0.114   4.851  0.00  0.00    +0.007 A 
BRANCH  14  20
ATOM     20  C   UNL     1       3.424  -0.271   7.346  0.00  0.00    +0.061 C 
BRANCH  20  22
ATOM     21  C   UNL     1       3.664  -2.627   7.937  0.00  0.00    +0.004 C 
ATOM     22  C   UNL     1       2.858  -1.627   7.681  0.00  0.00    -0.030 C 
ENDBRANCH  20  22
ENDBRANCH  14  20
ENDBRANCH  13  17
ENDBRANCH   1  13
BRANCH   5  23
ATOM     23  C   UNL     1       4.688   3.763   1.364  0.00  0.00    +0.197 C 
BRANCH  23  24
ATOM     24  O   UNL     1       5.329   3.361   2.576  0.00  0.00    -0.346 OA
BRANCH  24  25
ATOM     25  C   UNL     1       6.665   3.850   2.716  0.00  0.00    +0.282 C 
ATOM     26  C   UNL     1       7.207   3.465   4.095  0.00  0.00    +0.201 C 
ATOM     27  C   UNL     1       8.658   3.939   4.215  0.00  0.00    +0.179 C 
ATOM     28  C   UNL     1       9.480   3.328   3.076  0.00  0.00    +0.177 C 
ATOM     29  C   UNL     1       8.850   3.719   1.736  0.00  0.00    +0.178 C 
ATOM     30  O   UNL     1       7.492   3.275   1.703  0.00  0.00    -0.341 OA
BRANCH  28  31
ATOM     31  O   UNL     1      10.820   3.822   3.135  0.00  0.00    -0.386 OA
ATOM     32  H   UNL     1      11.561   3.492   2.392  0.00  0.00    +0.210 HD
ENDBRANCH  28  31
BRANCH  27  33
ATOM     33  O   UNL     1       9.197   3.522   5.471  0.00  0.00    -0.386 OA
ATOM     34  H   UNL     1      10.235   3.773   5.735  0.00  0.00    +0.210 HD
ENDBRANCH  27  33
BRANCH  26  35
ATOM     35  O   UNL     1       7.155   2.045   4.249  0.00  0.00    -0.384 OA
ATOM     36  H   UNL     1       7.505   1.580   5.183  0.00  0.00    +0.210 HD
ENDBRANCH  26  35
BRANCH  29  37
ATOM     37  C   UNL     1       9.630   3.063   0.595  0.00  0.00    +0.190 C 
BRANCH  37  38
ATOM     38  O   UNL     1       9.114   3.519  -0.658  0.00  0.00    -0.392 OA
ATOM     39  H   UNL     1       9.552   3.154  -1.598  0.00  0.00    +0.210 HD
ENDBRANCH  37  38
ENDBRANCH  29  37
ENDBRANCH  24  25
ENDBRANCH  23  24
ENDBRANCH   5  23
TORSDOF 15
