REMARK  Name = ZINC16675698
REMARK  8 active torsions:
REMARK  status: ('A' for Active; 'I' for Inactive)
REMARK    1  A    between atoms: C_1  and  C_2
REMARK    2  A    between atoms: C_2  and  C_23
REMARK    3  A    between atoms: N_3  and  N_4
REMARK    4  A    between atoms: C_5  and  S_7
REMARK    5  A    between atoms: S_7  and  C_8
REMARK    6  A    between atoms: N_13  and  C_16
REMARK    7  A    between atoms: C_23  and  C_24
REMARK    8  A    between atoms: C_24  and  C_25
REMARK                            x       y       z     vdW  Elec       q    Type
REMARK                         _______ _______ _______ _____ _____    ______ ____
ROOT
ATOM      1  N   UNL     1      -0.356  -0.846   2.285  0.00  0.00    -0.259 N 
ATOM      2  C   UNL     1      -0.261  -1.286   3.522  0.00  0.00    +0.146 C 
ATOM      3  N   UNL     1      -0.293  -2.635   3.776  0.00  0.00    -0.338 N 
ATOM      4  H   UNL     1      -0.387  -3.264   3.044  0.00  0.00    +0.144 HD
ATOM      5  H   UNL     1      -0.222  -2.958   4.688  0.00  0.00    +0.144 HD
ATOM      6  H   UNL     1      -0.334   0.107   2.105  0.00  0.00    +0.191 HD
ENDROOT
BRANCH   1   9
ATOM      7  C   UNL     1      -0.550   0.157  -0.268  0.00  0.00    +0.062 C 
ATOM      8  C   UNL     1      -0.586  -1.323   0.011  0.00  0.00    +0.036 C 
ATOM      9  N   UNL     1      -0.492  -1.755   1.227  0.00  0.00    -0.182 NA
BRANCH   8  10
ATOM     10  C   UNL     1      -0.731  -2.301  -1.127  0.00  0.00    +0.057 C 
BRANCH  10  11
ATOM     11  C   UNL     1      -2.099  -2.115  -1.787  0.00  0.00    +0.041 C 
BRANCH  11  12
ATOM     12  C   UNL     1      -2.244  -3.092  -2.925  0.00  0.00    -0.043 A 
ATOM     13  C   UNL     1      -1.832  -2.738  -4.196  0.00  0.00    +0.007 A 
ATOM     14  C   UNL     1      -1.963  -3.631  -5.243  0.00  0.00    +0.050 A 
ATOM     15  C   UNL     1      -2.508  -4.885  -5.020  0.00  0.00    +0.166 A 
ATOM     16  C   UNL     1      -2.923  -5.243  -3.739  0.00  0.00    +0.166 A 
ATOM     17  C   UNL     1      -2.783  -4.344  -2.694  0.00  0.00    +0.053 A 
ATOM     18  O   UNL     1      -3.418  -6.514  -3.780  0.00  0.00    -0.453 OA
ATOM     19  C   UNL     1      -3.680  -6.780  -5.171  0.00  0.00    +0.466 C 
ATOM     20  O   UNL     1      -2.744  -5.933  -5.863  0.00  0.00    -0.453 OA
ENDBRANCH  11  12
ENDBRANCH  10  11
ENDBRANCH   8  10
ENDBRANCH   1   9
BRANCH   2  21
ATOM     21  S   UNL     1      -0.091  -0.142   4.852  0.00  0.00    -0.078 S 
BRANCH  21  22
ATOM     22  C   UNL     1       0.002  -1.195   6.327  0.00  0.00    +0.149 C 
ATOM     23  C   UNL     1       0.083  -0.335   7.604  0.00  0.00    +0.120 C 
ATOM     24  C   UNL     1       1.416  -0.720   8.207  0.00  0.00    +0.228 C 
ATOM     25  O   UNL     1       1.878  -0.272   9.234  0.00  0.00    -0.275 OA
ATOM     26  N   UNL     1       2.004  -1.636   7.427  0.00  0.00    -0.209 N 
ATOM     27  C   UNL     1       1.296  -1.980   6.340  0.00  0.00    +0.240 C 
ATOM     28  O   UNL     1       1.636  -2.788   5.503  0.00  0.00    -0.274 OA
BRANCH  26  29
ATOM     29  C   UNL     1       3.257  -2.192   7.723  0.00  0.00    +0.044 A 
ATOM     30  C   UNL     1       3.407  -3.021   8.826  0.00  0.00    +0.025 A 
ATOM     31  C   UNL     1       4.642  -3.568   9.115  0.00  0.00    +0.022 A 
ATOM     32  C   UNL     1       5.729  -3.290   8.305  0.00  0.00    +0.041 A 
ATOM     33  C   UNL     1       5.582  -2.464   7.205  0.00  0.00    +0.022 A 
ATOM     34  C   UNL     1       4.348  -1.920   6.909  0.00  0.00    +0.025 A 
ATOM     35 CL   UNL     1       7.280  -3.979   8.671  0.00  0.00    -0.084 Cl
ENDBRANCH  26  29
ENDBRANCH  21  22
ENDBRANCH   2  21
TORSDOF 7
