REMARK  Name = ZINC12659727
REMARK  9 active torsions:
REMARK  status: ('A' for Active; 'I' for Inactive)
REMARK    1  A    between atoms: C_1  and  C_2
REMARK    2  A    between atoms: C_5  and  N_9
REMARK    3  A    between atoms: C_6  and  C_8
REMARK    4  A    between atoms: N_9  and  C_10
REMARK    5  A    between atoms: N_9  and  S_24
REMARK    6  A    between atoms: C_10  and  C_11
REMARK    7  A    between atoms: C_21  and  C_23
REMARK    8  A    between atoms: S_24  and  C_27
REMARK    9  A    between atoms: C_31  and  N_33
REMARK                            x       y       z     vdW  Elec       q    Type
REMARK                         _______ _______ _______ _____ _____    ______ ____
ROOT
ATOM      1  N   UNL     1       3.329   1.285   4.155  0.00  0.00    -0.194 N 
ENDROOT
BRANCH   1   6
ATOM      2  C   UNL     1       5.118   5.990   6.767  0.00  0.00    +0.044 C 
ATOM      3  C   UNL     1       4.642   4.740   6.073  0.00  0.00    -0.050 A 
ATOM      4  C   UNL     1       4.154   4.811   4.781  0.00  0.00    +0.005 A 
ATOM      5  C   UNL     1       3.722   3.666   4.140  0.00  0.00    +0.025 A 
ATOM      6  C   UNL     1       3.769   2.444   4.799  0.00  0.00    +0.055 A 
ATOM      7  C   UNL     1       4.260   2.376   6.096  0.00  0.00    -0.028 A 
ATOM      8  C   UNL     1       4.694   3.524   6.730  0.00  0.00    +0.008 A 
ATOM      9  C   UNL     1       4.319   1.051   6.812  0.00  0.00    +0.046 C 
ENDBRANCH   1   6
BRANCH   1  10
ATOM     10  S   UNL     1       4.413   0.318   3.359  0.00  0.00    +0.075 S 
ATOM     11  O   UNL     1       5.701   0.658   3.854  0.00  0.00    -0.150 OA
ATOM     12  O   UNL     1       3.898  -1.005   3.421  0.00  0.00    -0.150 OA
BRANCH  10  13
ATOM     13  C   UNL     1       4.384   0.790   1.662  0.00  0.00    +0.111 A 
ATOM     14  C   UNL     1       5.270   1.744   1.196  0.00  0.00    +0.030 A 
ATOM     15  C   UNL     1       5.248   2.115  -0.135  0.00  0.00    +0.024 A 
ATOM     16  C   UNL     1       4.340   1.533  -1.001  0.00  0.00    +0.071 A 
ATOM     17  C   UNL     1       3.454   0.579  -0.534  0.00  0.00    +0.146 A 
ATOM     18  C   UNL     1       3.480   0.204   0.797  0.00  0.00    +0.063 A 
ATOM     19 CL   UNL     1       4.311   1.999  -2.673  0.00  0.00    -0.081 Cl
BRANCH  17  20
ATOM     20  N   UNL     1       2.481  -0.045  -1.459  0.00  0.00    +0.058 N 
ATOM     21  O   UNL     1       1.701  -0.885  -1.047  0.00  0.00    -0.126 OA
ATOM     22  O   UNL     1       2.461   0.282  -2.632  0.00  0.00    -0.126 OA
ENDBRANCH  17  20
ENDBRANCH  10  13
ENDBRANCH   1  10
BRANCH   1  23
ATOM     23  C   UNL     1       1.910   0.925   4.184  0.00  0.00    +0.227 C 
BRANCH  23  24
ATOM     24  C   UNL     1       1.189   1.631   3.065  0.00  0.00    +0.239 C 
ATOM     25  O   UNL     1       1.806   2.344   2.302  0.00  0.00    -0.273 OA
ATOM     26  N   UNL     1      -0.140   1.471   2.913  0.00  0.00    -0.267 N 
ATOM     27  C   UNL     1      -0.951   0.677   3.730  0.00  0.00    +0.040 A 
ATOM     28  C   UNL     1      -0.602  -0.098   4.838  0.00  0.00    +0.024 A 
ATOM     29  C   UNL     1      -1.565  -0.817   5.514  0.00  0.00    +0.002 A 
ATOM     30  C   UNL     1      -2.884  -0.774   5.101  0.00  0.00    +0.000 A 
ATOM     31  C   UNL     1      -3.237  -0.009   4.005  0.00  0.00    +0.005 A 
ATOM     32  C   UNL     1      -2.276   0.713   3.324  0.00  0.00    -0.024 A 
ATOM     33  C   UNL     1      -2.384   1.615   2.115  0.00  0.00    +0.059 C 
ATOM     34  C   UNL     1      -0.948   2.104   1.866  0.00  0.00    +0.083 C 
ATOM     35  C   UNL     1      -0.468   1.659   0.483  0.00  0.00    +0.029 C 
ENDBRANCH  23  24
ENDBRANCH   1  23
TORSDOF 6
