REMARK  Name = ZINC20727056
REMARK  9 active torsions:
REMARK  status: ('A' for Active; 'I' for Inactive)
REMARK    1  A    between atoms: C_1  and  C_2
REMARK    2  A    between atoms: C_2  and  C_3
REMARK    3  A    between atoms: C_3  and  C_5
REMARK    4  A    between atoms: C_3  and  C_6
REMARK    5  A    between atoms: C_6  and  C_8
REMARK    6  A    between atoms: C_6  and  N_12
REMARK    7  A    between atoms: C_8  and  O_10
REMARK    8  A    between atoms: O_10  and  C_11
REMARK    9  A    between atoms: C_24  and  C_26
REMARK                            x       y       z     vdW  Elec       q    Type
REMARK                         _______ _______ _______ _____ _____    ______ ____
ROOT
ATOM      1  N   UNL     1      -3.026  -2.771   1.788  0.00  0.00    -0.286 N 
ATOM      2  C   UNL     1      -3.598  -1.644   1.321  0.00  0.00    +0.304 C 
ATOM      3  O   UNL     1      -2.932  -0.636   1.185  0.00  0.00    -0.253 OA
ATOM      4  N   UNL     1      -4.908  -1.635   1.003  0.00  0.00    -0.273 N 
ATOM      5  C   UNL     1      -5.522  -0.456   0.374  0.00  0.00    +0.116 C 
ATOM      6  C   UNL     1      -6.569   0.133   1.328  0.00  0.00    +0.074 C 
ATOM      7  C   UNL     1      -7.402  -0.990   1.888  0.00  0.00    +0.040 A 
ATOM      8  C   UNL     1      -7.049  -2.293   1.874  0.00  0.00    +0.062 A 
ATOM      9  N   UNL     1      -8.024  -2.994   2.457  0.00  0.00    -0.348 N 
ATOM     10  C   UNL     1      -8.973  -2.177   2.832  0.00  0.00    +0.171 A 
ATOM     11  N   UNL     1      -8.621  -0.915   2.492  0.00  0.00    -0.349 N 
ATOM     12  H   UNL     1      -9.138  -0.110   2.649  0.00  0.00    +0.166 HD
ATOM     13  C   UNL     1      -5.758  -2.808   1.272  0.00  0.00    +0.156 C 
ATOM     14  H   UNL     1      -3.535  -3.597   1.819  0.00  0.00    +0.151 HD
ATOM     15  H   UNL     1      -8.027  -3.956   2.583  0.00  0.00    +0.167 HD
ENDROOT
BRANCH  13  16
ATOM     16  C   UNL     1      -6.043  -3.541  -0.013  0.00  0.00    -0.020 A 
ATOM     17  C   UNL     1      -6.763  -2.921  -1.017  0.00  0.00    +0.006 A 
ATOM     18  C   UNL     1      -7.025  -3.592  -2.197  0.00  0.00    +0.002 A 
ATOM     19  C   UNL     1      -6.567  -4.885  -2.373  0.00  0.00    +0.020 A 
ATOM     20  C   UNL     1      -5.846  -5.505  -1.369  0.00  0.00    +0.041 A 
ATOM     21  C   UNL     1      -5.579  -4.831  -0.191  0.00  0.00    +0.025 A 
ATOM     22 CL   UNL     1      -5.270  -7.128  -1.589  0.00  0.00    -0.084 Cl
ENDBRANCH  13  16
BRANCH   1  23
ATOM     23  C   UNL     1      -1.635  -2.751   2.248  0.00  0.00    +0.186 C 
BRANCH  23  24
ATOM     24  C   UNL     1      -1.589  -2.296   3.709  0.00  0.00    +0.017 C 
ATOM     25  C   UNL     1      -2.518  -3.176   4.546  0.00  0.00    +0.010 C 
BRANCH  24  27
ATOM     26  C   UNL     1      -1.023   0.061   3.103  0.00  0.00    +0.004 C 
ATOM     27  C   UNL     1      -2.043  -0.839   3.804  0.00  0.00    +0.002 C 
ENDBRANCH  24  27
ENDBRANCH  23  24
BRANCH  23  28
ATOM     28  C   UNL     1      -1.047  -4.133   2.133  0.00  0.00    +0.328 C 
ATOM     29  O   UNL     1      -1.774  -5.091   2.010  0.00  0.00    -0.249 OA
BRANCH  28  30
ATOM     30  O   UNL     1       0.284  -4.302   2.169  0.00  0.00    -0.467 OA
ATOM     31  C   UNL     1       0.777  -5.623   1.940  0.00  0.00    +0.280 C 
ENDBRANCH  28  30
ENDBRANCH  23  28
ENDBRANCH   1  23
TORSDOF 6
