REMARK  Name = ZINC40859079
REMARK  8 active torsions:
REMARK  status: ('A' for Active; 'I' for Inactive)
REMARK    1  A    between atoms: C_1  and  C_2
REMARK    2  A    between atoms: C_2  and  C_4
REMARK    3  A    between atoms: C_8  and  C_10
REMARK    4  A    between atoms: C_10  and  C_11
REMARK    5  A    between atoms: C_10  and  C_12
REMARK    6  A    between atoms: C_10  and  N_13
REMARK    7  A    between atoms: N_16  and  N_17
REMARK    8  A    between atoms: C_18  and  C_19
REMARK                            x       y       z     vdW  Elec       q    Type
REMARK                         _______ _______ _______ _____ _____    ______ ____
ROOT
ATOM      1  N   UNL     1      -2.687  -2.582   3.579  0.00  0.00    -0.289 N 
ATOM      2  C   UNL     1      -3.256  -2.775   4.786  0.00  0.00    +0.320 C 
ATOM      3  O   UNL     1      -4.243  -3.478   4.888  0.00  0.00    -0.251 OA
ATOM      4  N   UNL     1      -2.730  -2.189   5.880  0.00  0.00    -0.191 N 
ATOM      5  H   UNL     1      -1.900  -2.021   3.498  0.00  0.00    +0.151 HD
ATOM      6  H   UNL     1      -3.139  -2.328   6.748  0.00  0.00    +0.179 HD
ENDROOT
BRANCH   1   7
ATOM      7  C   UNL     1      -3.259  -3.219   2.390  0.00  0.00    +0.056 C 
ATOM      8  C   UNL     1      -4.701  -2.743   2.200  0.00  0.00    +0.036 C 
ATOM      9  C   UNL     1      -3.243  -4.738   2.568  0.00  0.00    +0.036 C 
BRANCH   7  14
ATOM     10  C   UNL     1      -0.341  -2.239   0.189  0.00  0.00    -0.022 A 
ATOM     11  C   UNL     1      -0.957  -2.160  -1.060  0.00  0.00    +0.008 A 
ATOM     12  C   UNL     1      -2.306  -2.424  -1.179  0.00  0.00    +0.001 A 
ATOM     13  C   UNL     1      -3.048  -2.765  -0.062  0.00  0.00    +0.006 A 
ATOM     14  C   UNL     1      -2.443  -2.845   1.179  0.00  0.00    -0.024 A 
ATOM     15  C   UNL     1      -1.093  -2.590   1.310  0.00  0.00    +0.014 A 
BRANCH  10  17
ATOM     16  C   UNL     1       1.631  -0.573   0.047  0.00  0.00    +0.044 C 
ATOM     17  C   UNL     1       1.104  -1.958   0.324  0.00  0.00    -0.050 C 
ATOM     18  C   UNL     1       1.936  -2.923   0.688  0.00  0.00    +0.012 C 
ENDBRANCH  10  17
ENDBRANCH   7  14
ENDBRANCH   1   7
BRANCH   4  19
ATOM     19  N   UNL     1      -1.592  -1.380   5.763  0.00  0.00    -0.186 NA
ATOM     20  C   UNL     1      -1.016  -0.912   6.827  0.00  0.00    +0.138 C 
BRANCH  20  21
ATOM     21  C   UNL     1      -1.224  -1.573   8.129  0.00  0.00    -0.005 A 
ATOM     22  C   UNL     1      -0.853  -0.927   9.311  0.00  0.00    +0.011 A 
ATOM     23  C   UNL     1      -1.051  -1.550  10.525  0.00  0.00    +0.020 A 
ATOM     24  C   UNL     1      -1.616  -2.814  10.574  0.00  0.00    +0.041 A 
ATOM     25  C   UNL     1      -1.986  -3.459   9.406  0.00  0.00    +0.020 A 
ATOM     26  C   UNL     1      -1.799  -2.845   8.186  0.00  0.00    +0.011 A 
ATOM     27 CL   UNL     1      -1.860  -3.592  12.107  0.00  0.00    -0.084 Cl
ENDBRANCH  20  21
ENDBRANCH   4  19
TORSDOF 5
