REMARK  Name = ZINC38705048
REMARK  11 active torsions:
REMARK  status: ('A' for Active; 'I' for Inactive)
REMARK    1  A    between atoms: C_1  and  C_2
REMARK    2  A    between atoms: C_2  and  O_3
REMARK    3  A    between atoms: O_3  and  C_4
REMARK    4  A    between atoms: C_6  and  C_11
REMARK    5  A    between atoms: C_9  and  O_10
REMARK    6  A    between atoms: C_14  and  C_29
REMARK    7  A    between atoms: N_21  and  C_22
REMARK    8  A    between atoms: C_22  and  C_23
REMARK    9  A    between atoms: C_30  and  C_37
REMARK   10  A    between atoms: C_32  and  C_36
REMARK   11  A    between atoms: C_34  and  O_35
REMARK                            x       y       z     vdW  Elec       q    Type
REMARK                         _______ _______ _______ _____ _____    ______ ____
ROOT
ATOM      1  C   UNL     1       0.684  -4.955  -0.013  0.00  0.00    +0.142 C 
ATOM      2  C   UNL     1       0.842  -5.569  -1.378  0.00  0.00    +0.035 A 
ATOM      3  C   UNL     1       1.048  -5.364  -2.746  0.00  0.00    +0.102 A 
ATOM      4  N   UNL     1       1.063  -6.549  -3.324  0.00  0.00    -0.173 NA
ATOM      5  N   UNL     1       0.888  -7.481  -2.456  0.00  0.00    -0.272 N 
ATOM      6  H   UNL     1       0.863  -8.430  -2.655  0.00  0.00    +0.189 HD
ATOM      7  C   UNL     1       0.742  -6.937  -1.212  0.00  0.00    +0.126 A 
ATOM      8  C   UNL     1       0.525  -7.220   0.211  0.00  0.00    +0.266 C 
ATOM      9  O   UNL     1       0.395  -8.332   0.686  0.00  0.00    -0.268 OA
ATOM     10  N   UNL     1       0.490  -6.074   0.917  0.00  0.00    -0.281 N 
ENDROOT
BRANCH   3  11
ATOM     11  C   UNL     1       1.216  -4.054  -3.423  0.00  0.00    +0.047 A 
ATOM     12  C   UNL     1       0.466  -3.751  -4.556  0.00  0.00    -0.037 A 
ATOM     13  C   UNL     1       0.626  -2.531  -5.183  0.00  0.00    +0.007 A 
ATOM     14  C   UNL     1       1.531  -1.608  -4.689  0.00  0.00    -0.047 A 
ATOM     15  C   UNL     1       2.281  -1.899  -3.565  0.00  0.00    +0.049 A 
ATOM     16  C   UNL     1       2.125  -3.118  -2.923  0.00  0.00    +0.127 A 
ATOM     17  C   UNL     1       1.699  -0.279  -5.379  0.00  0.00    +0.044 C 
ATOM     18  C   UNL     1      -0.520  -4.753  -5.099  0.00  0.00    +0.044 C 
BRANCH  16  19
ATOM     19  O   UNL     1       2.857  -3.403  -1.815  0.00  0.00    -0.506 OA
ATOM     20  H   UNL     1       3.736  -3.759  -2.004  0.00  0.00    +0.292 HD
ENDBRANCH  16  19
ENDBRANCH   3  11
BRANCH   1  23
ATOM     21  C   UNL     1      -1.455  -1.848   0.194  0.00  0.00    +0.162 A 
ATOM     22  C   UNL     1      -0.351  -2.684   0.173  0.00  0.00    +0.055 A 
ATOM     23  C   UNL     1      -0.519  -4.047   0.010  0.00  0.00    -0.019 A 
ATOM     24  C   UNL     1      -1.787  -4.578  -0.132  0.00  0.00    +0.009 A 
ATOM     25  C   UNL     1      -2.893  -3.749  -0.111  0.00  0.00    +0.049 A 
ATOM     26  C   UNL     1      -2.732  -2.383   0.058  0.00  0.00    +0.158 A 
BRANCH  26  27
ATOM     27  O   UNL     1      -3.820  -1.567   0.084  0.00  0.00    -0.503 OA
ATOM     28  H   UNL     1      -4.082  -1.232  -0.785  0.00  0.00    +0.292 HD
ENDBRANCH  26  27
BRANCH  21  29
ATOM     29  O   UNL     1      -1.292  -0.507   0.355  0.00  0.00    -0.489 OA
BRANCH  29  31
ATOM     30  C   UNL     1       0.032   1.492   0.659  0.00  0.00    +0.048 C 
ATOM     31  C   UNL     1       0.048  -0.029   0.489  0.00  0.00    +0.226 C 
ENDBRANCH  29  31
ENDBRANCH  21  29
ENDBRANCH   1  23
BRANCH  10  32
ATOM     32  C   UNL     1       0.292  -5.962   2.365  0.00  0.00    +0.144 C 
BRANCH  32  33
ATOM     33  C   UNL     1      -1.180  -5.845   2.663  0.00  0.00    -0.030 A 
ATOM     34  C   UNL     1      -1.778  -4.600   2.713  0.00  0.00    +0.005 A 
ATOM     35  C   UNL     1      -3.129  -4.493   2.987  0.00  0.00    +0.000 A 
ATOM     36  C   UNL     1      -3.881  -5.631   3.211  0.00  0.00    +0.000 A 
ATOM     37  C   UNL     1      -3.283  -6.876   3.160  0.00  0.00    +0.000 A 
ATOM     38  C   UNL     1      -1.933  -6.983   2.882  0.00  0.00    +0.005 A 
ENDBRANCH  32  33
ENDBRANCH  10  32
TORSDOF 8
