REMARK  Name = ZINC39675185
REMARK  12 active torsions:
REMARK  status: ('A' for Active; 'I' for Inactive)
REMARK    1  A    between atoms: C_1  and  C_2
REMARK    2  A    between atoms: C_2  and  C_4
REMARK    3  A    between atoms: C_2  and  N_14
REMARK    4  A    between atoms: C_4  and  C_5
REMARK    5  A    between atoms: C_5  and  C_6
REMARK    6  A    between atoms: C_9  and  O_12
REMARK    7  A    between atoms: O_12  and  C_13
REMARK    8  A    between atoms: C_15  and  C_17
REMARK    9  A    between atoms: C_28  and  C_30
REMARK   10  A    between atoms: C_35  and  O_36
REMARK   11  A    between atoms: O_36  and  C_37
REMARK   12  A    between atoms: C_37  and  C_39
REMARK                            x       y       z     vdW  Elec       q    Type
REMARK                         _______ _______ _______ _____ _____    ______ ____
ROOT
ATOM      1  C   UNL     1      -3.054  -1.132   1.532  0.00  0.00    +0.100 C 
ATOM      2  C   UNL     1      -3.235  -2.433   0.719  0.00  0.00    +0.121 C 
ATOM      3  N   UNL     1      -3.308  -3.506   1.738  0.00  0.00    -0.296 N 
ATOM      4  C   UNL     1      -4.109  -2.915   2.837  0.00  0.00    +0.115 C 
ATOM      5  C   UNL     1      -3.632  -1.451   2.921  0.00  0.00    -0.004 C 
ATOM      6  C   UNL     1      -2.552  -1.310   3.989  0.00  0.00    -0.010 C 
ATOM      7  C   UNL     1      -3.164  -1.577   5.367  0.00  0.00    -0.082 C 
ATOM      8  N   UNL     1      -4.252  -0.623   5.614  0.00  0.00    +0.379 N 
ATOM      9  C   UNL     1      -5.329  -0.828   4.638  0.00  0.00    -0.082 C 
ATOM     10  C   UNL     1      -4.808  -0.529   3.229  0.00  0.00    -0.010 C 
ATOM     11  C   UNL     1      -2.769  -4.739   1.680  0.00  0.00    +0.250 C 
ATOM     12  O   UNL     1      -2.997  -5.545   2.562  0.00  0.00    -0.270 OA
ATOM     13  H   UNL     1      -4.613  -0.761   6.545  0.00  0.00    -0.086 HD
ATOM     14  H   UNL     1      -3.898   0.318   5.529  0.00  0.00    -0.086 HD
ENDROOT
BRANCH  11  15
ATOM     15  C   UNL     1      -1.901  -5.112   0.546  0.00  0.00    +0.079 A 
ATOM     16  C   UNL     1      -2.164  -4.616  -0.732  0.00  0.00    +0.017 A 
ATOM     17  C   UNL     1      -1.350  -4.968  -1.787  0.00  0.00    +0.001 A 
ATOM     18  C   UNL     1      -0.271  -5.812  -1.585  0.00  0.00    +0.004 A 
ATOM     19  C   UNL     1       0.000  -6.310  -0.326  0.00  0.00    +0.047 A 
ATOM     20  C   UNL     1      -0.805  -5.962   0.748  0.00  0.00    +0.144 A 
BRANCH  20  21
ATOM     21  O   UNL     1      -0.537  -6.447   1.987  0.00  0.00    -0.425 OA
BRANCH  21  22
ATOM     22  C   UNL     1       0.220  -5.699   2.806  0.00  0.00    +0.309 C 
ATOM     23  O   UNL     1       0.564  -4.591   2.467  0.00  0.00    -0.251 OA
ATOM     24  C   UNL     1       0.639  -6.240   4.148  0.00  0.00    +0.136 C 
ENDBRANCH  21  22
ENDBRANCH  20  21
ENDBRANCH  11  15
BRANCH   1  26
ATOM     25  N   UNL     1      -1.217   0.510   1.747  0.00  0.00    -0.312 N 
ATOM     26  C   UNL     1      -1.593  -0.779   1.641  0.00  0.00    +0.218 C 
ATOM     27  O   UNL     1      -0.755  -1.657   1.632  0.00  0.00    -0.275 OA
ATOM     28  H   UNL     1      -1.887   1.212   1.754  0.00  0.00    +0.149 HD
BRANCH  25  30
ATOM     29  C   UNL     1       0.644   0.757   3.314  0.00  0.00    +0.028 C 
ATOM     30  C   UNL     1       0.203   0.853   1.852  0.00  0.00    +0.070 C 
BRANCH  30  31
ATOM     31  C   UNL     1       0.422   2.280   1.346  0.00  0.00    +0.026 C 
BRANCH  31  32
ATOM     32  C   UNL     1       0.100   2.347  -0.148  0.00  0.00    +0.037 C 
BRANCH  32  33
ATOM     33  C   UNL     1       0.316   3.753  -0.646  0.00  0.00    -0.047 A 
ATOM     34  C   UNL     1      -0.723   4.665  -0.611  0.00  0.00    +0.007 A 
ATOM     35  C   UNL     1      -0.528   5.954  -1.068  0.00  0.00    +0.046 A 
ATOM     36  C   UNL     1       0.712   6.333  -1.562  0.00  0.00    +0.120 A 
ATOM     37  C   UNL     1       1.753   5.416  -1.595  0.00  0.00    +0.046 A 
ATOM     38  C   UNL     1       1.554   4.130  -1.133  0.00  0.00    +0.007 A 
BRANCH  36  39
ATOM     39  O   UNL     1       0.906   7.601  -2.012  0.00  0.00    -0.495 OA
ATOM     40  C   UNL     1       2.208   7.921  -2.506  0.00  0.00    +0.277 C 
ENDBRANCH  36  39
ENDBRANCH  32  33
ENDBRANCH  31  32
ENDBRANCH  30  31
ENDBRANCH  25  30
ENDBRANCH   1  26
TORSDOF 9
