REMARK  Name = ZINC17242337
REMARK  7 active torsions:
REMARK  status: ('A' for Active; 'I' for Inactive)
REMARK    1  A    between atoms: C_1  and  C_2
REMARK    2  A    between atoms: C_2  and  C_36
REMARK    3  A    between atoms: C_6  and  C_27
REMARK    4  A    between atoms: C_12  and  S_16
REMARK    5  A    between atoms: S_16  and  C_17
REMARK    6  A    between atoms: C_17  and  C_18
REMARK    7  A    between atoms: C_21  and  N_24
REMARK                            x       y       z     vdW  Elec       q    Type
REMARK                         _______ _______ _______ _____ _____    ______ ____
ROOT
ATOM      1  C   UNL     1      -0.019   1.526   0.010  0.00  0.00    +0.011 C 
ATOM      2  C   UNL     1       0.002  -0.004   0.002  0.00  0.00    -0.023 C 
ATOM      3  C   UNL     1      -1.431  -0.539   0.039  0.00  0.00    +0.058 C 
ATOM      4  C   UNL     1      -1.407  -2.048   0.075  0.00  0.00    +0.017 C 
ATOM      5  C   UNL     1      -0.392  -2.713   0.668  0.00  0.00    +0.024 C 
ATOM      6  C   UNL     1      -0.359  -4.220   0.709  0.00  0.00    +0.092 C 
ATOM      7  C   UNL     1      -1.709  -4.805   0.424  0.00  0.00    +0.071 A 
ATOM      8  C   UNL     1      -1.994  -6.125   0.753  0.00  0.00    +0.280 A 
ATOM      9  O   UNL     1      -1.056  -6.906   1.342  0.00  0.00    -0.265 OA
ATOM     10  N   UNL     1      -3.202  -6.609   0.481  0.00  0.00    -0.183 NA
ATOM     11  C   UNL     1      -4.125  -5.852  -0.095  0.00  0.00    +0.194 A 
ATOM     12  N   UNL     1      -3.888  -4.590  -0.421  0.00  0.00    -0.206 NA
ATOM     13  C   UNL     1      -2.702  -4.041  -0.176  0.00  0.00    +0.135 A 
ATOM     14  N   UNL     1      -2.446  -2.721  -0.507  0.00  0.00    -0.302 N 
ATOM     15  C   UNL     1       0.675  -2.019   1.264  0.00  0.00    +0.162 C 
ATOM     16  O   UNL     1       1.562  -2.646   1.810  0.00  0.00    -0.292 OA
ATOM     17  C   UNL     1       0.742  -0.517   1.242  0.00  0.00    +0.086 C 
ATOM     18  C   UNL     1       0.706  -0.503  -1.262  0.00  0.00    +0.011 C 
ATOM     19  H   UNL     1      -3.009  -2.270  -1.156  0.00  0.00    +0.153 HD
ENDROOT
BRANCH   6  20
ATOM     20  C   UNL     1       0.621  -4.719  -0.322  0.00  0.00    -0.035 A 
ATOM     21  C   UNL     1       0.434  -4.415  -1.657  0.00  0.00    +0.004 A 
ATOM     22  C   UNL     1       1.333  -4.873  -2.602  0.00  0.00    +0.000 A 
ATOM     23  C   UNL     1       2.418  -5.635  -2.212  0.00  0.00    +0.000 A 
ATOM     24  C   UNL     1       2.605  -5.939  -0.876  0.00  0.00    +0.000 A 
ATOM     25  C   UNL     1       1.709  -5.477   0.069  0.00  0.00    +0.004 A 
ENDBRANCH   6  20
BRANCH  11  26
ATOM     26  S   UNL     1      -5.710  -6.543  -0.436  0.00  0.00    -0.081 S 
BRANCH  26  27
ATOM     27  C   UNL     1      -5.584  -8.250   0.164  0.00  0.00    +0.112 C 
BRANCH  27  28
ATOM     28  C   UNL     1      -6.890  -8.963  -0.071  0.00  0.00    -0.037 A 
ATOM     29  C   UNL     1      -7.877  -8.935   0.897  0.00  0.00    +0.007 A 
ATOM     30  C   UNL     1      -9.075  -9.589   0.682  0.00  0.00    +0.033 A 
ATOM     31  C   UNL     1      -9.288 -10.271  -0.502  0.00  0.00    +0.126 A 
ATOM     32  C   UNL     1      -8.302 -10.298  -1.470  0.00  0.00    +0.033 A 
ATOM     33  C   UNL     1      -7.105  -9.640  -1.257  0.00  0.00    +0.007 A 
BRANCH  31  34
ATOM     34  N   UNL     1     -10.571 -10.972  -0.732  0.00  0.00    +0.056 N 
ATOM     35  O   UNL     1     -11.433 -10.948   0.115  0.00  0.00    -0.126 OA
ATOM     36  O   UNL     1     -10.757 -11.568  -1.767  0.00  0.00    -0.126 OA
ENDBRANCH  31  34
ENDBRANCH  27  28
ENDBRANCH  26  27
ENDBRANCH  11  26
TORSDOF 5
