REMARK  Name = ZINC33960055
REMARK  10 active torsions:
REMARK  status: ('A' for Active; 'I' for Inactive)
REMARK    1  A    between atoms: C_1  and  C_2
REMARK    2  A    between atoms: N_5  and  S_11
REMARK    3  A    between atoms: C_7  and  C_10
REMARK    4  A    between atoms: S_11  and  C_14
REMARK    5  A    between atoms: C_18  and  C_20
REMARK    6  A    between atoms: N_25  and  N_26
REMARK    7  A    between atoms: C_27  and  C_28
REMARK    8  A    between atoms: C_31  and  C_34
REMARK    9  A    between atoms: C_34  and  C_35
REMARK   10  A    between atoms: C_34  and  C_36
REMARK                            x       y       z     vdW  Elec       q    Type
REMARK                         _______ _______ _______ _____ _____    ______ ____
ROOT
ATOM      1  C   UNL     1       4.533   5.169  -0.350  0.00  0.00    +0.080 A 
ATOM      2  C   UNL     1       4.337   6.486  -0.040  0.00  0.00    +0.077 A 
ATOM      3  S   UNL     1       5.823   6.831   0.893  0.00  0.00    -0.059 S 
ATOM      4  C   UNL     1       6.545   5.200   0.774  0.00  0.00    +0.178 A 
ATOM      5  N   UNL     1       5.630   4.558   0.070  0.00  0.00    -0.224 NA
ATOM      6  N   UNL     1       7.743   4.732   1.288  0.00  0.00    -0.215 N 
ATOM      7  H   UNL     1       8.007   3.810   1.141  0.00  0.00    +0.176 HD
ENDROOT
BRANCH   1  12
ATOM      8  C   UNL     1       2.728   2.379  -2.109  0.00  0.00    +0.106 A 
ATOM      9  C   UNL     1       1.636   3.050  -2.630  0.00  0.00    +0.028 A 
ATOM     10  C   UNL     1       1.483   4.407  -2.413  0.00  0.00    +0.003 A 
ATOM     11  C   UNL     1       2.420   5.100  -1.673  0.00  0.00    +0.010 A 
ATOM     12  C   UNL     1       3.522   4.430  -1.145  0.00  0.00    +0.003 A 
ATOM     13  C   UNL     1       3.668   3.060  -1.363  0.00  0.00    +0.038 A 
BRANCH   8  14
ATOM     14  S   UNL     1       2.915   0.650  -2.391  0.00  0.00    +0.061 S 
ATOM     15  O   UNL     1       4.300   0.363  -2.253  0.00  0.00    -0.153 OA
ATOM     16  O   UNL     1       2.189   0.351  -3.576  0.00  0.00    -0.153 OA
BRANCH  14  20
ATOM     17  C   UNL     1      -0.019   1.526   0.010  0.00  0.00    +0.039 C 
ATOM     18  C   UNL     1       0.002  -0.004   0.002  0.00  0.00    +0.131 C 
ATOM     19  C   UNL     1       0.722  -0.499  -1.258  0.00  0.00    +0.140 C 
ATOM     20  N   UNL     1       2.143  -0.135  -1.154  0.00  0.00    -0.172 NA
ATOM     21  C   UNL     1       2.860  -0.488   0.082  0.00  0.00    +0.140 C 
ATOM     22  C   UNL     1       2.036   0.007   1.277  0.00  0.00    +0.131 C 
ATOM     23  O   UNL     1       0.695  -0.479   1.159  0.00  0.00    -0.371 OA
ATOM     24  C   UNL     1       2.656  -0.513   2.575  0.00  0.00    +0.039 C 
ENDBRANCH  14  20
ENDBRANCH   8  14
ENDBRANCH   1  12
BRANCH   6  25
ATOM     25  N   UNL     1       8.573   5.590   2.021  0.00  0.00    -0.188 NA
ATOM     26  C   UNL     1       9.696   5.152   2.503  0.00  0.00    +0.138 C 
BRANCH  26  27
ATOM     27  C   UNL     1      10.570   6.055   3.274  0.00  0.00    -0.005 A 
ATOM     28  C   UNL     1      10.191   7.381   3.493  0.00  0.00    +0.010 A 
ATOM     29  C   UNL     1      11.013   8.221   4.215  0.00  0.00    +0.004 A 
ATOM     30  C   UNL     1      12.212   7.751   4.722  0.00  0.00    -0.045 A 
ATOM     31  C   UNL     1      12.595   6.439   4.509  0.00  0.00    +0.004 A 
ATOM     32  C   UNL     1      11.780   5.587   3.794  0.00  0.00    +0.010 A 
BRANCH  30  33
ATOM     33  C   UNL     1      13.106   8.674   5.510  0.00  0.00    +0.013 C 
ATOM     34  C   UNL     1      13.304   8.112   6.919  0.00  0.00    +0.012 C 
ATOM     35  C   UNL     1      14.462   8.791   4.811  0.00  0.00    +0.012 C 
ENDBRANCH  30  33
ENDBRANCH  26  27
ENDBRANCH   6  25
TORSDOF 6
