REMARK  Name = ZINC16746643
REMARK  9 active torsions:
REMARK  status: ('A' for Active; 'I' for Inactive)
REMARK    1  A    between atoms: C_1  and  C_2
REMARK    2  A    between atoms: C_6  and  N_8
REMARK    3  A    between atoms: C_9  and  C_28
REMARK    4  A    between atoms: C_12  and  S_13
REMARK    5  A    between atoms: S_13  and  C_14
REMARK    6  A    between atoms: C_14  and  C_16
REMARK    7  A    between atoms: C_14  and  C_17
REMARK    8  A    between atoms: N_19  and  C_20
REMARK    9  A    between atoms: C_21  and  C_25
REMARK                            x       y       z     vdW  Elec       q    Type
REMARK                         _______ _______ _______ _____ _____    ______ ____
ROOT
ATOM      1  N   UNL     1      -3.299   6.821   1.278  0.00  0.00    -0.270 N 
ATOM      2  C   UNL     1      -2.590   7.999   1.201  0.00  0.00    +0.169 A 
ATOM      3  N   UNL     1      -1.468   7.732   0.573  0.00  0.00    -0.128 NA
ATOM      4  N   UNL     1      -1.424   6.486   0.261  0.00  0.00    -0.122 NA
ATOM      5  C   UNL     1      -2.519   5.881   0.662  0.00  0.00    +0.197 A 
ENDROOT
BRANCH   1  11
ATOM      6  C   UNL     1      -6.044   4.850   4.852  0.00  0.00    +0.044 C 
ATOM      7  C   UNL     1      -5.915   5.676   3.598  0.00  0.00    -0.048 A 
ATOM      8  C   UNL     1      -7.039   6.243   3.026  0.00  0.00    +0.003 A 
ATOM      9  C   UNL     1      -6.925   7.001   1.876  0.00  0.00    +0.002 A 
ATOM     10  C   UNL     1      -5.686   7.198   1.297  0.00  0.00    +0.026 A 
ATOM     11  C   UNL     1      -4.557   6.626   1.866  0.00  0.00    +0.051 A 
ATOM     12  C   UNL     1      -4.675   5.865   3.021  0.00  0.00    +0.029 A 
ENDBRANCH   1  11
BRANCH   2  13
ATOM     13  C   UNL     1      -3.011   9.316   1.725  0.00  0.00    +0.020 A 
ATOM     14  C   UNL     1      -2.390  10.481   1.273  0.00  0.00    +0.013 A 
ATOM     15  C   UNL     1      -2.792  11.707   1.762  0.00  0.00    +0.021 A 
ATOM     16  C   UNL     1      -3.802  11.782   2.707  0.00  0.00    +0.041 A 
ATOM     17  C   UNL     1      -4.418  10.628   3.162  0.00  0.00    +0.021 A 
ATOM     18  C   UNL     1      -4.028   9.397   2.677  0.00  0.00    +0.013 A 
ATOM     19 CL   UNL     1      -4.297  13.328   3.322  0.00  0.00    -0.084 Cl
ENDBRANCH   2  13
BRANCH   5  20
ATOM     20  S   UNL     1      -2.907   4.175   0.453  0.00  0.00    -0.073 S 
BRANCH  20  21
ATOM     21  C   UNL     1      -1.425   3.621  -0.425  0.00  0.00    +0.137 C 
ATOM     22  C   UNL     1      -1.357   4.302  -1.793  0.00  0.00    +0.029 C 
BRANCH  21  23
ATOM     23  C   UNL     1      -1.479   2.126  -0.610  0.00  0.00    +0.231 C 
ATOM     24  O   UNL     1      -2.550   1.556  -0.624  0.00  0.00    -0.274 OA
ATOM     25  N   UNL     1      -0.339   1.423  -0.761  0.00  0.00    -0.278 N 
ATOM     26  H   UNL     1       0.516   1.880  -0.753  0.00  0.00    +0.155 HD
BRANCH  25  27
ATOM     27  C   UNL     1      -0.390   0.048  -0.931  0.00  0.00    +0.084 A 
ATOM     28  C   UNL     1       0.665  -0.839  -1.111  0.00  0.00    +0.065 A 
ATOM     29  C   UNL     1       0.322  -2.233  -1.260  0.00  0.00    +0.022 A 
ATOM     30  C   UNL     1      -0.984  -2.552  -1.224  0.00  0.00    +0.048 A 
ATOM     31  S   UNL     1      -1.783  -0.979  -0.979  0.00  0.00    -0.081 S 
BRANCH  28  32
ATOM     32  C   UNL     1       2.058  -0.381  -1.143  0.00  0.00    +0.244 C 
ATOM     33  O   UNL     1       2.313   0.801  -1.010  0.00  0.00    -0.270 OA
ATOM     34  N   UNL     1       3.055  -1.270  -1.319  0.00  0.00    -0.325 N 
ATOM     35  H   UNL     1       2.852  -2.213  -1.425  0.00  0.00    +0.145 HD
ATOM     36  H   UNL     1       3.977  -0.968  -1.341  0.00  0.00    +0.145 HD
ENDBRANCH  28  32
ENDBRANCH  25  27
ENDBRANCH  21  23
ENDBRANCH  20  21
ENDBRANCH   5  20
TORSDOF 7
