REMARK  Name = ZINC20598677
REMARK  8 active torsions:
REMARK  status: ('A' for Active; 'I' for Inactive)
REMARK    1  A    between atoms: C_7  and  C_10
REMARK    2  A    between atoms: C_13  and  C_31
REMARK    3  A    between atoms: C_14  and  N_16
REMARK    4  A    between atoms: C_19  and  N_22
REMARK    5  A    between atoms: C_26  and  C_29
REMARK    6  A    between atoms: C_29  and  O_30
REMARK    7  A    between atoms: N_33  and  C_34
REMARK    8  A    between atoms: C_34  and  C_35
REMARK                            x       y       z     vdW  Elec       q    Type
REMARK                         _______ _______ _______ _____ _____    ______ ____
ROOT
ATOM      1  C   UNL     1       2.364   0.064  -0.028  0.00  0.00    +0.074 A 
ATOM      2  C   UNL     1       1.158  -0.642  -0.007  0.00  0.00    +0.029 A 
ATOM      3  C   UNL     1      -0.025   0.045   0.016  0.00  0.00    +0.018 A 
ATOM      4  C   UNL     1       0.012   1.447   0.017  0.00  0.00    +0.077 A 
ATOM      5  C   UNL     1       1.260   2.097  -0.005  0.00  0.00    +0.134 A 
ATOM      6  N   UNL     1       2.379   1.393  -0.026  0.00  0.00    -0.231 NA
ENDROOT
BRANCH   1  13
ATOM      7  C   UNL     1       6.415   1.926  -0.098  0.00  0.00    +0.001 A 
ATOM      8  C   UNL     1       7.521   1.088  -0.119  0.00  0.00    +0.001 A 
ATOM      9  C   UNL     1       7.337  -0.280  -0.119  0.00  0.00    +0.015 A 
ATOM     10  C   UNL     1       6.057  -0.794  -0.097  0.00  0.00    +0.020 A 
ATOM     11  C   UNL     1       4.918   0.036  -0.075  0.00  0.00    -0.002 A 
ATOM     12  C   UNL     1       5.149   1.430  -0.077  0.00  0.00    +0.010 A 
ATOM     13  C   UNL     1       3.641  -0.678  -0.052  0.00  0.00    +0.015 A 
ATOM     14  C   UNL     1       3.652  -2.035  -0.049  0.00  0.00    +0.056 A 
ATOM     15  S   UNL     1       5.388  -2.437  -0.087  0.00  0.00    -0.096 S 
ENDBRANCH   1  13
BRANCH   5  16
ATOM     16  N   UNL     1       1.316   3.478  -0.005  0.00  0.00    -0.315 N 
ATOM     17  C   UNL     1       2.057   3.975   1.162  0.00  0.00    +0.105 C 
ATOM     18  C   UNL     1       1.974   5.502   1.208  0.00  0.00    +0.004 C 
ATOM     19  C   UNL     1       2.568   6.080  -0.080  0.00  0.00    -0.066 C 
ATOM     20  C   UNL     1       1.810   5.509  -1.282  0.00  0.00    +0.004 C 
ATOM     21  C   UNL     1       1.897   3.982  -1.256  0.00  0.00    +0.105 C 
BRANCH  19  22
ATOM     22  N   UNL     1       2.440   7.543  -0.068  0.00  0.00    +0.382 N 
ATOM     23  C   UNL     1       2.902   8.122  -1.336  0.00  0.00    -0.078 C 
ATOM     24  C   UNL     1       2.620   9.626  -1.344  0.00  0.00    -0.018 C 
ATOM     25  C   UNL     1       3.346  10.283  -0.166  0.00  0.00    +0.002 C 
ATOM     26  C   UNL     1       2.882   9.629   1.138  0.00  0.00    -0.002 C 
ATOM     27  C   UNL     1       3.156   8.124   1.074  0.00  0.00    -0.073 C 
ATOM     28  H   UNL     1       1.374   7.790   0.044  0.00  0.00    -0.081 HD
BRANCH  26  29
ATOM     29  C   UNL     1       3.645  10.238   2.316  0.00  0.00    +0.157 C 
BRANCH  29  30
ATOM     30  O   UNL     1       3.298  11.618   2.446  0.00  0.00    -0.395 OA
ATOM     31  H   UNL     1       3.751  12.226   3.243  0.00  0.00    +0.209 HD
ENDBRANCH  29  30
ENDBRANCH  26  29
ENDBRANCH  19  22
ENDBRANCH   5  16
BRANCH   4  32
ATOM     32  C   UNL     1      -1.235   2.227   0.035  0.00  0.00    +0.248 C 
ATOM     33  O   UNL     1      -1.194   3.439   0.135  0.00  0.00    -0.270 OA
ATOM     34  N   UNL     1      -2.424   1.600  -0.060  0.00  0.00    -0.306 N 
ATOM     35  H   UNL     1      -2.462   0.504  -0.150  0.00  0.00    +0.149 HD
BRANCH  34  36
ATOM     36  C   UNL     1      -3.666   2.376  -0.042  0.00  0.00    +0.163 C 
BRANCH  36  37
ATOM     37  C   UNL     1      -4.844   1.443  -0.161  0.00  0.00    +0.101 A 
ATOM     38  C   UNL     1      -5.608   0.905   0.899  0.00  0.00    +0.069 A 
ATOM     39  C   UNL     1      -6.536   0.139   0.277  0.00  0.00    +0.230 A 
ATOM     40  O   UNL     1      -6.299   0.247  -1.038  0.00  0.00    -0.363 OA
ATOM     41  N   UNL     1      -5.362   0.978  -1.261  0.00  0.00    -0.082 NA
ENDBRANCH  36  37
ENDBRANCH  34  36
ENDBRANCH   4  32
TORSDOF 8
