REMARK  Name = ZINC39467511
REMARK  5 active torsions:
REMARK  status: ('A' for Active; 'I' for Inactive)
REMARK    1  A    between atoms: C_1  and  C_2
REMARK    2  A    between atoms: C_2  and  O_3
REMARK    3  A    between atoms: O_3  and  C_4
REMARK    4  A    between atoms: P_13  and  C_23
REMARK    5  A    between atoms: C_28  and  O_29
REMARK                            x       y       z     vdW  Elec       q    Type
REMARK                         _______ _______ _______ _____ _____    ______ ____
ROOT
ATOM      1  C   UNL     1      -1.498  -1.848   0.006  0.00  0.00    +0.135 C 
ATOM      2  C   UNL     1      -0.432  -2.651  -0.003  0.00  0.00    +0.024 C 
ATOM      3  C   UNL     1      -0.620  -4.145   0.002  0.00  0.00    +0.019 C 
ATOM      4  C   UNL     1       0.603  -4.832   0.589  0.00  0.00    -0.002 C 
ATOM      5  C   UNL     1       0.237  -6.194   1.195  0.00  0.00    -0.020 C 
ATOM      6  C   UNL     1       1.501  -7.058   1.069  0.00  0.00    +0.157 C 
ATOM      7  O   UNL     1       1.279  -8.358   1.637  0.00  0.00    -0.316 OA
ATOM      8  P   UNL     1      -0.046  -9.168   1.149  0.00  0.00    +0.291 P 
ATOM      9  O   UNL     1      -0.413 -10.201   2.143  0.00  0.00    -0.269 OA
ATOM     10  N   UNL     1      -1.227  -8.023   1.049  0.00  0.00    -0.288 NA
ATOM     11  N   UNL     1      -0.900  -6.796   0.508  0.00  0.00    +0.398 N 
ATOM     12  C   UNL     1      -2.130  -6.005   0.666  0.00  0.00    -0.046 C 
ATOM     13  C   UNL     1      -1.837  -4.509   0.849  0.00  0.00    +0.006 C 
ATOM     14  C   UNL     1      -3.024  -3.692   0.413  0.00  0.00    -0.001 C 
ATOM     15  C   UNL     1      -2.852  -2.436   0.016  0.00  0.00    +0.079 C 
ATOM     16 CL   UNL     1      -4.217  -1.492  -0.495  0.00  0.00    -0.080 Cl
ATOM     17  H   UNL     1      -2.127  -8.212   1.357  0.00  0.00    +0.111 HD
ATOM     18  H   UNL     1      -0.686  -6.896  -0.473  0.00  0.00    -0.055 HD
ENDROOT
BRANCH   8  19
ATOM     19  C   UNL     1       0.241  -9.928  -0.473  0.00  0.00    +0.091 A 
ATOM     20  C   UNL     1      -0.052  -9.227  -1.627  0.00  0.00    +0.018 A 
ATOM     21  C   UNL     1       0.166  -9.805  -2.863  0.00  0.00    +0.001 A 
ATOM     22  C   UNL     1       0.678 -11.087  -2.948  0.00  0.00    +0.004 A 
ATOM     23  C   UNL     1       0.973 -11.792  -1.798  0.00  0.00    +0.046 A 
ATOM     24  C   UNL     1       0.760 -11.212  -0.556  0.00  0.00    +0.131 A 
BRANCH  24  25
ATOM     25  O   UNL     1       1.054 -11.901   0.577  0.00  0.00    -0.506 OA
ATOM     26  H   UNL     1       0.321 -12.433   0.916  0.00  0.00    +0.292 HD
ENDBRANCH  24  25
ENDBRANCH   8  19
BRANCH   1  27
ATOM     27  O   UNL     1      -1.339  -0.499   0.012  0.00  0.00    -0.491 OA
BRANCH  27  29
ATOM     28  C   UNL     1      -0.019   1.526   0.010  0.00  0.00    +0.048 C 
ATOM     29  C   UNL     1       0.002  -0.004   0.002  0.00  0.00    +0.226 C 
ENDBRANCH  27  29
ENDBRANCH   1  27
TORSDOF 4
