REMARK  Name = ZINC63513692
REMARK  5 active torsions:
REMARK  status: ('A' for Active; 'I' for Inactive)
REMARK    1  A    between atoms: C_1  and  C_2
REMARK    2  A    between atoms: C_3  and  C_15
REMARK    3  A    between atoms: C_5  and  C_8
REMARK    4  A    between atoms: C_15  and  S_16
REMARK    5  A    between atoms: S_16  and  C_17
REMARK                            x       y       z     vdW  Elec       q    Type
REMARK                         _______ _______ _______ _____ _____    ______ ____
ROOT
ATOM      1  C   UNL     1       1.161   1.568  -3.118  0.00  0.00    +0.126 C 
ENDROOT
BRANCH   1   4
ATOM      2  C   UNL     1      -0.013   1.086   0.008  0.00  0.00    +0.044 C 
ATOM      3  C   UNL     1      -0.753   1.593  -1.232  0.00  0.00    +0.163 C 
ATOM      4  C   UNL     1      -0.107   1.052  -2.488  0.00  0.00    +0.055 C 
ATOM      5  N   UNL     1      -0.819   0.083  -2.927  0.00  0.00    -0.254 NA
ATOM      6  C   UNL     1      -1.972  -0.124  -2.044  0.00  0.00    +0.267 C 
ATOM      7  O   UNL     1      -2.099   1.077  -1.258  0.00  0.00    -0.342 OA
BRANCH   6   8
ATOM      8  C   UNL     1      -3.218  -0.344  -2.862  0.00  0.00    +0.004 A 
ATOM      9  C   UNL     1      -4.407   0.253  -2.485  0.00  0.00    +0.008 A 
ATOM     10  C   UNL     1      -5.550   0.052  -3.235  0.00  0.00    +0.001 A 
ATOM     11  C   UNL     1      -5.506  -0.746  -4.363  0.00  0.00    +0.015 A 
ATOM     12  C   UNL     1      -4.317  -1.344  -4.741  0.00  0.00    +0.018 A 
ATOM     13  C   UNL     1      -3.172  -1.138  -3.992  0.00  0.00    +0.023 A 
ATOM     14 BR   UNL     1      -4.255  -2.437  -6.282  0.00  0.00    -0.050 Br
ENDBRANCH   6   8
ENDBRANCH   1   4
BRANCH   1  15
ATOM     15  S   UNL     1       1.534   0.601  -4.607  0.00  0.00    -0.109 S 
BRANCH  15  16
ATOM     16  C   UNL     1       3.067   1.339  -5.236  0.00  0.00    +0.236 C 
ATOM     17  N   UNL     1       4.116   1.274  -4.210  0.00  0.00    -0.355 N 
ATOM     18  C   UNL     1       4.471   2.494  -3.940  0.00  0.00    +0.064 A 
ATOM     19  C   UNL     1       5.450   3.092  -3.022  0.00  0.00    +0.045 A 
ATOM     20  C   UNL     1       5.570   4.436  -2.988  0.00  0.00    +0.084 A 
ATOM     21  N   UNL     1       4.846   5.261  -3.743  0.00  0.00    -0.365 N 
ATOM     22  C   UNL     1       3.944   4.875  -4.599  0.00  0.00    +0.110 A 
ATOM     23  C   UNL     1       3.674   3.438  -4.774  0.00  0.00    +0.077 A 
ATOM     24  N   UNL     1       2.859   2.763  -5.527  0.00  0.00    -0.354 N 
ATOM     25  H   UNL     1       2.228   3.132  -6.165  0.00  0.00    +0.163 HD
ATOM     26  H   UNL     1       4.478   0.468  -3.809  0.00  0.00    +0.162 HD
ATOM     27  H   UNL     1       5.002   6.213  -3.649  0.00  0.00    +0.165 HD
ENDBRANCH  15  16
ENDBRANCH   1  15
TORSDOF 4
