REMARK  Name = ZINC06656765
REMARK  9 active torsions:
REMARK  status: ('A' for Active; 'I' for Inactive)
REMARK    1  A    between atoms: C_1  and  C_2
REMARK    2  A    between atoms: C_2  and  O_3
REMARK    3  A    between atoms: O_3  and  C_4
REMARK    4  A    between atoms: C_7  and  C_10
REMARK    5  A    between atoms: N_12  and  C_13
REMARK    6  A    between atoms: C_13  and  N_15
REMARK    7  A    between atoms: N_15  and  C_16
REMARK    8  A    between atoms: C_17  and  C_27
REMARK    9  A    between atoms: C_22  and  C_26
REMARK                            x       y       z     vdW  Elec       q    Type
REMARK                         _______ _______ _______ _____ _____    ______ ____
ROOT
ATOM      1  N   UNL     1      -2.305  -5.916   0.763  0.00  0.00    -0.291 N 
ATOM      2  H   UNL     1      -1.723  -6.620   1.090  0.00  0.00    +0.154 HD
ENDROOT
BRANCH   1   3
ATOM      3  C   UNL     1      -1.837  -4.615   0.673  0.00  0.00    +0.084 A 
ATOM      4  C   UNL     1      -0.579  -4.127   0.999  0.00  0.00    +0.068 A 
ATOM      5  C   UNL     1      -0.340  -2.706   0.809  0.00  0.00    -0.023 A 
ATOM      6  C   UNL     1      -1.390  -2.006   0.327  0.00  0.00    -0.004 A 
ATOM      7  S   UNL     1      -2.678  -3.203   0.125  0.00  0.00    -0.077 S 
ATOM      8  C   UNL     1      -1.437  -0.538   0.030  0.00  0.00    +0.046 C 
ATOM      9  C   UNL     1       0.002  -0.004   0.002  0.00  0.00    -0.009 C 
ATOM     10  C   UNL     1       0.742  -0.514   1.242  0.00  0.00    +0.008 C 
ATOM     11  C   UNL     1       0.984  -2.020   1.121  0.00  0.00    +0.037 C 
ATOM     12  C   UNL     1      -0.019   1.526   0.010  0.00  0.00    +0.008 C 
BRANCH   4  13
ATOM     13  C   UNL     1       0.469  -5.011   1.516  0.00  0.00    +0.244 C 
ATOM     14  O   UNL     1       0.577  -5.192   2.715  0.00  0.00    -0.270 OA
ATOM     15  N   UNL     1       1.314  -5.625   0.663  0.00  0.00    -0.325 N 
ATOM     16  H   UNL     1       1.228  -5.480  -0.292  0.00  0.00    +0.145 HD
ATOM     17  H   UNL     1       2.008  -6.210   1.005  0.00  0.00    +0.145 HD
ENDBRANCH   4  13
ENDBRANCH   1   3
BRANCH   1  18
ATOM     18  C   UNL     1      -3.570  -6.204   0.396  0.00  0.00    +0.141 C 
ATOM     19  S   UNL     1      -4.597  -4.962  -0.182  0.00  0.00    -0.018 S 
BRANCH  18  22
ATOM     20  C   UNL     1      -5.290  -7.757   0.116  0.00  0.00    +0.250 C 
ATOM     21  O   UNL     1      -6.019  -6.875  -0.294  0.00  0.00    -0.270 OA
ATOM     22  N   UNL     1      -4.025  -7.469   0.483  0.00  0.00    -0.264 N 
ATOM     23  H   UNL     1      -3.443  -8.173   0.810  0.00  0.00    +0.157 HD
BRANCH  20  27
ATOM     24  C   UNL     1      -6.726 -11.743   0.392  0.00  0.00    +0.121 A 
ATOM     25  C   UNL     1      -7.561 -10.736  -0.078  0.00  0.00    +0.046 A 
ATOM     26  C   UNL     1      -7.100  -9.442  -0.169  0.00  0.00    +0.016 A 
ATOM     27  C   UNL     1      -5.788  -9.142   0.211  0.00  0.00    +0.037 A 
ATOM     28  C   UNL     1      -4.950 -10.158   0.677  0.00  0.00    +0.016 A 
ATOM     29  C   UNL     1      -5.421 -11.449   0.770  0.00  0.00    +0.046 A 
BRANCH  24  30
ATOM     30  O   UNL     1      -7.184 -13.017   0.480  0.00  0.00    -0.492 OA
BRANCH  30  32
ATOM     31  C   UNL     1      -6.964 -15.367   0.999  0.00  0.00    +0.048 C 
ATOM     32  C   UNL     1      -6.273 -14.002   0.971  0.00  0.00    +0.225 C 
ENDBRANCH  30  32
ENDBRANCH  24  30
ENDBRANCH  20  27
ENDBRANCH  18  22
ENDBRANCH   1  18
TORSDOF 7
