REMARK  Name = ZINC15643091
REMARK  9 active torsions:
REMARK  status: ('A' for Active; 'I' for Inactive)
REMARK    1  A    between atoms: C_1  and  C_2
REMARK    2  A    between atoms: C_5  and  N_9
REMARK    3  A    between atoms: C_6  and  C_8
REMARK    4  A    between atoms: C_10  and  C_12
REMARK    5  A    between atoms: C_12  and  C_14
REMARK    6  A    between atoms: C_12  and  O_15
REMARK    7  A    between atoms: O_15  and  C_16
REMARK    8  A    between atoms: C_16  and  C_18
REMARK    9  A    between atoms: C_23  and  N_24
REMARK                            x       y       z     vdW  Elec       q    Type
REMARK                         _______ _______ _______ _____ _____    ______ ____
ROOT
ATOM      1  C   UNL     1      -1.278  -8.507  -4.015  0.00  0.00    +0.080 A 
ATOM      2  C   UNL     1      -0.707  -7.896  -5.131  0.00  0.00    +0.017 A 
ATOM      3  C   UNL     1      -0.968  -8.376  -6.401  0.00  0.00    +0.013 A 
ATOM      4  C   UNL     1      -1.803  -9.475  -6.581  0.00  0.00    +0.035 A 
ATOM      5  C   UNL     1      -2.387 -10.104  -5.467  0.00  0.00    +0.054 A 
ATOM      6  C   UNL     1      -2.120  -9.623  -4.178  0.00  0.00    +0.050 A 
ATOM      7  C   UNL     1      -3.272 -11.266  -5.653  0.00  0.00    +0.196 C 
ATOM      8  O   UNL     1      -3.776 -11.808  -4.688  0.00  0.00    -0.287 OA
ATOM      9  C   UNL     1      -3.548 -11.774  -7.014  0.00  0.00    +0.033 A 
ATOM     10  C   UNL     1      -4.385 -12.871  -7.197  0.00  0.00    +0.012 A 
ATOM     11  C   UNL     1      -4.638 -13.340  -8.474  0.00  0.00    +0.001 A 
ATOM     12  C   UNL     1      -4.065 -12.725  -9.572  0.00  0.00    +0.001 A 
ATOM     13  C   UNL     1      -3.231 -11.633  -9.409  0.00  0.00    +0.012 A 
ATOM     14  C   UNL     1      -2.966 -11.149  -8.130  0.00  0.00    +0.033 A 
ATOM     15  C   UNL     1      -2.078  -9.983  -7.944  0.00  0.00    +0.195 C 
ATOM     16  O   UNL     1      -1.575  -9.441  -8.909  0.00  0.00    -0.287 OA
ENDROOT
BRANCH   6  17
ATOM     17  N   UNL     1      -2.683 -10.235  -3.077  0.00  0.00    -0.357 N 
ATOM     18  H   UNL     1      -2.835  -9.727  -2.265  0.00  0.00    +0.142 HD
ATOM     19  H   UNL     1      -2.926 -11.173  -3.115  0.00  0.00    +0.142 HD
ENDBRANCH   6  17
BRANCH   1  20
ATOM     20  C   UNL     1      -0.993  -7.988  -2.664  0.00  0.00    +0.342 C 
ATOM     21  O   UNL     1      -1.397  -8.586  -1.686  0.00  0.00    -0.245 OA
BRANCH  20  22
ATOM     22  O   UNL     1      -0.286  -6.851  -2.514  0.00  0.00    -0.449 OA
BRANCH  22  23
ATOM     23  C   UNL     1      -0.048  -6.407  -1.177  0.00  0.00    +0.259 C 
ATOM     24  C   UNL     1       1.259  -7.014  -0.663  0.00  0.00    +0.062 C 
BRANCH  23  26
ATOM     25  N   UNL     1       0.178  -4.251   0.015  0.00  0.00    -0.282 N 
ATOM     26  C   UNL     1       0.055  -4.904  -1.158  0.00  0.00    +0.258 C 
ATOM     27  O   UNL     1       0.027  -4.281  -2.198  0.00  0.00    -0.271 OA
ATOM     28  H   UNL     1       0.260  -4.751   0.842  0.00  0.00    +0.155 HD
BRANCH  25  33
ATOM     29  C   UNL     1       0.216   1.421   0.115  0.00  0.00    +0.044 C 
ATOM     30  C   UNL     1       0.206  -0.086   0.088  0.00  0.00    -0.050 A 
ATOM     31  C   UNL     1       0.776  -0.761  -0.975  0.00  0.00    +0.005 A 
ATOM     32  C   UNL     1       0.769  -2.142  -1.003  0.00  0.00    +0.024 A 
ATOM     33  C   UNL     1       0.188  -2.852   0.040  0.00  0.00    +0.036 A 
ATOM     34  C   UNL     1      -0.384  -2.171   1.106  0.00  0.00    -0.029 A 
ATOM     35  C   UNL     1      -0.369  -0.790   1.130  0.00  0.00    +0.008 A 
ATOM     36  C   UNL     1      -1.016  -2.938   2.240  0.00  0.00    +0.045 C 
ENDBRANCH  25  33
ENDBRANCH  23  26
ENDBRANCH  22  23
ENDBRANCH  20  22
ENDBRANCH   1  20
TORSDOF 6
