REMARK  Name = ZINC00823051
REMARK  12 active torsions:
REMARK  status: ('A' for Active; 'I' for Inactive)
REMARK    1  A    between atoms: C_1  and  C_2
REMARK    2  A    between atoms: C_4  and  C_27
REMARK    3  A    between atoms: C_5  and  C_25
REMARK    4  A    between atoms: C_6  and  O_8
REMARK    5  A    between atoms: O_8  and  C_9
REMARK    6  A    between atoms: C_9  and  C_10
REMARK    7  A    between atoms: N_12  and  N_13
REMARK    8  A    between atoms: C_14  and  C_15
REMARK    9  A    between atoms: C_18  and  O_22
REMARK   10  A    between atoms: O_22  and  C_23
REMARK   11  A    between atoms: C_27  and  O_28
REMARK   12  A    between atoms: O_28  and  C_29
REMARK                            x       y       z     vdW  Elec       q    Type
REMARK                         _______ _______ _______ _____ _____    ______ ____
ROOT
ATOM      1  C   UNL     1      -0.016   1.344   0.009  0.00  0.00    +0.270 C 
ATOM      2  O   UNL     1      -1.075   1.936   0.018  0.00  0.00    -0.270 OA
ATOM      3  N   UNL     1       0.002  -0.004   0.002  0.00  0.00    -0.204 N 
ATOM      4  H   UNL     1       0.962  -0.541  -0.010  0.00  0.00    +0.177 HD
ENDROOT
BRANCH   3   5
ATOM      5  N   UNL     1      -1.202  -0.721   0.010  0.00  0.00    -0.188 NA
ATOM      6  C   UNL     1      -1.184  -2.019   0.003  0.00  0.00    +0.138 C 
BRANCH   6   7
ATOM      7  C   UNL     1      -2.450  -2.773   0.011  0.00  0.00    -0.003 A 
ATOM      8  C   UNL     1      -3.671  -2.093   0.032  0.00  0.00    +0.028 A 
ATOM      9  C   UNL     1      -4.853  -2.803   0.034  0.00  0.00    +0.061 A 
ATOM     10  C   UNL     1      -4.832  -4.192   0.026  0.00  0.00    +0.148 A 
ATOM     11  C   UNL     1      -3.621  -4.872   0.010  0.00  0.00    +0.061 A 
ATOM     12  C   UNL     1      -2.434  -4.170   0.003  0.00  0.00    +0.028 A 
ATOM     13 BR   UNL     1      -3.600  -6.763   0.000  0.00  0.00    -0.046 Br
ATOM     14 BR   UNL     1      -6.506  -1.884   0.054  0.00  0.00    -0.046 Br
BRANCH  10  15
ATOM     15  O   UNL     1      -6.000  -4.887   0.034  0.00  0.00    -0.493 OA
ATOM     16  C   UNL     1      -6.544  -5.226   1.311  0.00  0.00    +0.277 C 
ENDBRANCH  10  15
ENDBRANCH   6   7
ENDBRANCH   3   5
BRANCH   1  17
ATOM     17  C   UNL     1       1.278   2.115   0.001  0.00  0.00    +0.328 C 
BRANCH  17  18
ATOM     18  O   UNL     1       0.998   3.516   0.011  0.00  0.00    -0.466 OA
BRANCH  18  24
ATOM     19  C   UNL     1       5.724   4.024  -0.030  0.00  0.00    +0.066 C 
ATOM     20  C   UNL     1       4.351   4.644  -0.014  0.00  0.00    +0.042 A 
ATOM     21  C   UNL     1       4.228   6.022  -0.005  0.00  0.00    +0.030 A 
ATOM     22  C   UNL     1       2.967   6.592   0.010  0.00  0.00    +0.002 A 
ATOM     23  C   UNL     1       1.854   5.744   0.015  0.00  0.00    +0.118 A 
ATOM     24  C   UNL     1       2.061   4.356   0.006  0.00  0.00    +0.234 A 
ATOM     25  N   UNL     1       3.288   3.863  -0.003  0.00  0.00    -0.217 NA
BRANCH  23  26
ATOM     26  C   UNL     1       0.527   6.282   0.031  0.00  0.00    +0.105 C 
ATOM     27  N   UNL     1      -0.525   6.709   0.043  0.00  0.00    -0.191 NA
ENDBRANCH  23  26
BRANCH  22  28
ATOM     28  C   UNL     1       2.797   8.089   0.019  0.00  0.00    +0.196 C 
BRANCH  28  29
ATOM     29  O   UNL     1       4.082   8.715   0.011  0.00  0.00    -0.378 OA
ATOM     30  C   UNL     1       4.034  10.143   0.018  0.00  0.00    +0.194 C 
ENDBRANCH  28  29
ENDBRANCH  22  28
ENDBRANCH  18  24
ENDBRANCH  17  18
ENDBRANCH   1  17
TORSDOF 9
