REMARK  Name = ZINC09458388
REMARK  6 active torsions:
REMARK  status: ('A' for Active; 'I' for Inactive)
REMARK    1  A    between atoms: C_1  and  C_2
REMARK    2  A    between atoms: C_5  and  O_27
REMARK    3  A    between atoms: C_6  and  C_8
REMARK    4  A    between atoms: C_8  and  C_10
REMARK    5  A    between atoms: C_12  and  C_16
REMARK    6  A    between atoms: N_13  and  C_15
REMARK                            x       y       z     vdW  Elec       q    Type
REMARK                         _______ _______ _______ _____ _____    ______ ____
ROOT
ATOM      1  C   UNL     1      -4.934   2.552   1.035  0.00  0.00    +0.041 A 
ATOM      2  C   UNL     1      -6.286   2.856   0.748  0.00  0.00    +0.042 A 
ATOM      3  C   UNL     1      -6.587   2.254  -0.436  0.00  0.00    +0.085 A 
ATOM      4  N   UNL     1      -5.469   1.584  -0.879  0.00  0.00    -0.347 N 
ATOM      5  C   UNL     1      -4.469   1.760   0.003  0.00  0.00    +0.097 A 
ATOM      6  C   UNL     1      -5.382   0.804  -2.116  0.00  0.00    +0.149 C 
ENDROOT
BRANCH   3   7
ATOM      7  C   UNL     1      -7.887   2.304  -1.121  0.00  0.00    +0.158 A 
ATOM      8  N   UNL     1      -8.085   1.500  -2.213  0.00  0.00    -0.305 N 
ATOM      9  H   UNL     1      -7.379   0.911  -2.524  0.00  0.00    +0.170 HD
ATOM     10  C   UNL     1      -9.278   1.538  -2.853  0.00  0.00    +0.266 A 
ATOM     11  O   UNL     1      -9.489   0.835  -3.827  0.00  0.00    -0.267 OA
ATOM     12  C   UNL     1     -10.261   2.400  -2.367  0.00  0.00    +0.102 A 
ATOM     13  C   UNL     1     -10.035   3.217  -1.243  0.00  0.00    +0.086 A 
ATOM     14  N   UNL     1      -8.807   3.111  -0.658  0.00  0.00    -0.227 NA
ATOM     15  C   UNL     1     -11.111   4.034  -0.866  0.00  0.00    +0.036 A 
ATOM     16  C   UNL     1     -12.265   4.003  -1.566  0.00  0.00    +0.048 A 
ATOM     17  S   UNL     1     -11.924   2.797  -2.838  0.00  0.00    -0.090 S 
ENDBRANCH   3   7
BRANCH   1  18
ATOM     18  C   UNL     1      -4.169   2.992   2.215  0.00  0.00    +0.198 C 
ATOM     19  O   UNL     1      -4.721   3.619   3.099  0.00  0.00    -0.286 OA
BRANCH  18  25
ATOM     20  C   UNL     1       0.586   4.492   2.310  0.00  0.00    +0.044 C 
ATOM     21  C   UNL     1      -0.440   3.390   2.370  0.00  0.00    -0.050 A 
ATOM     22  C   UNL     1      -0.032   2.075   2.528  0.00  0.00    +0.007 A 
ATOM     23  C   UNL     1      -0.962   1.057   2.585  0.00  0.00    +0.046 A 
ATOM     24  C   UNL     1      -2.315   1.345   2.483  0.00  0.00    +0.128 A 
ATOM     25  C   UNL     1      -2.733   2.673   2.323  0.00  0.00    +0.064 A 
ATOM     26  C   UNL     1      -1.780   3.695   2.273  0.00  0.00    +0.018 A 
BRANCH  24  27
ATOM     27  O   UNL     1      -3.231   0.345   2.539  0.00  0.00    -0.506 OA
ATOM     28  H   UNL     1      -3.542   0.146   3.432  0.00  0.00    +0.292 HD
ENDBRANCH  24  27
ENDBRANCH  18  25
ENDBRANCH   1  18
TORSDOF 4
