REMARK  Name = ZINC66402052
REMARK  8 active torsions:
REMARK  status: ('A' for Active; 'I' for Inactive)
REMARK    1  A    between atoms: C_1  and  C_2
REMARK    2  A    between atoms: C_5  and  C_30
REMARK    3  A    between atoms: N_8  and  C_10
REMARK    4  A    between atoms: C_10  and  C_11
REMARK    5  A    between atoms: C_11  and  C_13
REMARK    6  A    between atoms: C_11  and  N_14
REMARK    7  A    between atoms: N_17  and  C_18
REMARK    8  A    between atoms: C_20  and  C_26
REMARK                            x       y       z     vdW  Elec       q    Type
REMARK                         _______ _______ _______ _____ _____    ______ ____
ROOT
ATOM      1  N   UNL     1       2.935  -0.259   2.351  0.00  0.00    -0.298 N 
ATOM      2  C   UNL     1       3.976   0.467   1.899  0.00  0.00    +0.304 C 
ATOM      3  O   UNL     1       4.536   1.254   2.639  0.00  0.00    -0.253 OA
ATOM      4  N   UNL     1       4.398   0.322   0.627  0.00  0.00    -0.265 N 
ATOM      5  H   UNL     1       2.488  -0.886   1.761  0.00  0.00    +0.150 HD
ATOM      6  H   UNL     1       4.000  -0.356   0.059  0.00  0.00    +0.157 HD
ENDROOT
BRANCH   4   7
ATOM      7  C   UNL     1       5.410   1.151   0.125  0.00  0.00    +0.100 A 
ATOM      8  C   UNL     1       6.572   0.612  -0.356  0.00  0.00    +0.042 A 
ATOM      9  C   UNL     1       7.568   1.464  -0.853  0.00  0.00    +0.073 A 
ATOM     10  C   UNL     1       7.376   2.803  -0.853  0.00  0.00    +0.098 A 
ATOM     11  N   UNL     1       6.223   3.341  -0.374  0.00  0.00    -0.327 N 
ATOM     12  H   UNL     1       6.104   4.304  -0.383  0.00  0.00    +0.168 HD
ATOM     13  C   UNL     1       5.242   2.553   0.105  0.00  0.00    +0.270 A 
ATOM     14  O   UNL     1       4.210   3.050   0.526  0.00  0.00    -0.266 OA
BRANCH   9  15
ATOM     15  C   UNL     1       8.854   0.888  -1.387  0.00  0.00    +0.419 C 
ATOM     16  F   UNL     1       9.685   1.926  -1.822  0.00  0.00    -0.166 F 
ATOM     17  F   UNL     1       9.498   0.168  -0.375  0.00  0.00    -0.166 F 
ATOM     18  F   UNL     1       8.573   0.035  -2.459  0.00  0.00    -0.166 F 
ENDBRANCH   9  15
ENDBRANCH   4   7
BRANCH   1  19
ATOM     19  C   UNL     1       2.477  -0.101   3.734  0.00  0.00    +0.055 C 
ATOM     20  C   UNL     1       3.353  -0.945   4.661  0.00  0.00    +0.026 C 
BRANCH  19  21
ATOM     21  C   UNL     1       1.023  -0.564   3.845  0.00  0.00    -0.057 C 
BRANCH  21  27
ATOM     22  C   UNL     1      -1.387   0.158   0.458  0.00  0.00    +0.005 C 
ATOM     23  C   UNL     1      -2.011   0.361   1.840  0.00  0.00    -0.031 C 
ATOM     24  C   UNL     1      -2.056   1.856   2.166  0.00  0.00    +0.003 C 
ATOM     25  C   UNL     1      -0.625   2.397   2.233  0.00  0.00    -0.031 C 
ATOM     26  C   UNL     1       0.168   1.600   3.271  0.00  0.00    -0.076 C 
ATOM     27  N   UNL     1       0.196   0.184   2.889  0.00  0.00    +0.381 N 
ATOM     28  C   UNL     1      -1.168  -0.361   2.892  0.00  0.00    -0.076 C 
ATOM     29  C   UNL     1      -0.655   3.873   2.634  0.00  0.00    +0.005 C 
ATOM     30  H   UNL     1       0.590   0.094   1.964  0.00  0.00    -0.082 HD
ENDBRANCH  21  27
ENDBRANCH  19  21
ENDBRANCH   1  19
TORSDOF 5
