REMARK  Name = ZINC40149314
REMARK  11 active torsions:
REMARK  status: ('A' for Active; 'I' for Inactive)
REMARK    1  A    between atoms: C_1  and  C_2
REMARK    2  A    between atoms: C_3  and  C_33
REMARK    3  A    between atoms: C_7  and  N_18
REMARK    4  A    between atoms: C_9  and  C_11
REMARK    5  A    between atoms: C_11  and  N_12
REMARK    6  A    between atoms: N_18  and  C_19
REMARK    7  A    between atoms: C_19  and  C_21
REMARK    8  A    between atoms: C_19  and  C_22
REMARK    9  A    between atoms: C_25  and  N_28
REMARK   10  A    between atoms: N_28  and  S_29
REMARK   11  A    between atoms: S_29  and  C_32
REMARK                            x       y       z     vdW  Elec       q    Type
REMARK                         _______ _______ _______ _____ _____    ______ ____
ROOT
ATOM      1  C   UNL     1       0.191   1.664   0.067  0.00  0.00    +0.045 C 
ATOM      2  C   UNL     1       0.316   0.162   0.068  0.00  0.00    -0.028 A 
ATOM      3  C   UNL     1       0.236  -0.526  -1.080  0.00  0.00    -0.008 A 
ATOM      4  S   UNL     1       0.437  -2.221  -0.564  0.00  0.00    -0.074 S 
ATOM      5  C   UNL     1       0.623  -1.959   1.180  0.00  0.00    +0.114 A 
ATOM      6  C   UNL     1       0.529  -0.556   1.313  0.00  0.00    +0.051 A 
ATOM      7  C   UNL     1       0.652  -0.060   2.639  0.00  0.00    +0.131 A 
ATOM      8  N   UNL     1       0.846  -0.913   3.632  0.00  0.00    -0.219 NA
ATOM      9  C   UNL     1       0.929  -2.217   3.433  0.00  0.00    +0.116 A 
ATOM     10  N   UNL     1       0.812  -2.737   2.227  0.00  0.00    -0.227 NA
ATOM     11  C   UNL     1       0.025   0.005  -2.474  0.00  0.00    +0.052 C 
ENDROOT
BRANCH   7  12
ATOM     12  N   UNL     1       0.572   1.298   2.890  0.00  0.00    -0.322 N 
ATOM     13  H   UNL     1       0.357   1.912   2.170  0.00  0.00    +0.148 HD
BRANCH  12  14
ATOM     14  C   UNL     1       0.810   1.809   4.242  0.00  0.00    +0.099 C 
ATOM     15  C   UNL     1       2.312   2.009   4.454  0.00  0.00    +0.033 C 
BRANCH  14  16
ATOM     16  C   UNL     1       0.100   3.127   4.413  0.00  0.00    -0.027 A 
ATOM     17  C   UNL     1       0.085   4.043   3.377  0.00  0.00    +0.007 A 
ATOM     18  C   UNL     1      -0.565   5.252   3.530  0.00  0.00    +0.025 A 
ATOM     19  C   UNL     1      -1.205   5.547   4.728  0.00  0.00    +0.048 A 
ATOM     20  C   UNL     1      -1.188   4.625   5.766  0.00  0.00    +0.025 A 
ATOM     21  C   UNL     1      -0.541   3.416   5.604  0.00  0.00    +0.007 A 
BRANCH  19  22
ATOM     22  N   UNL     1      -1.863   6.769   4.887  0.00  0.00    -0.221 N 
ATOM     23  H   UNL     1      -1.465   7.467   5.430  0.00  0.00    +0.173 HD
BRANCH  22  24
ATOM     24  S   UNL     1      -3.322   7.025   4.147  0.00  0.00    +0.040 S 
ATOM     25  O   UNL     1      -3.684   8.351   4.510  0.00  0.00    -0.155 OA
ATOM     26  O   UNL     1      -3.105   6.680   2.786  0.00  0.00    -0.155 OA
ATOM     27  C   UNL     1      -4.452   5.835   4.921  0.00  0.00    +0.218 C 
ENDBRANCH  22  24
ENDBRANCH  19  22
ENDBRANCH  14  16
ENDBRANCH  12  14
ENDBRANCH   7  12
BRANCH   9  28
ATOM     28  C   UNL     1       1.150  -3.130   4.612  0.00  0.00    -0.001 C 
BRANCH  28  29
ATOM     29  N   UNL     1      -0.148  -3.539   5.164  0.00  0.00    +0.384 N 
ATOM     30  C   UNL     1      -0.844  -2.363   5.699  0.00  0.00    -0.078 C 
ATOM     31  C   UNL     1      -2.231  -2.770   6.202  0.00  0.00    -0.019 C 
ATOM     32  C   UNL     1      -2.079  -3.821   7.306  0.00  0.00    -0.004 C 
ATOM     33  C   UNL     1      -1.287  -5.012   6.758  0.00  0.00    -0.019 C 
ATOM     34  C   UNL     1       0.065  -4.521   6.234  0.00  0.00    -0.078 C 
ATOM     35  H   UNL     1      -0.707  -3.955   4.434  0.00  0.00    -0.081 HD
ENDBRANCH  28  29
ENDBRANCH   9  28
TORSDOF 7
