REMARK  Name = ZINC08740117
REMARK  12 active torsions:
REMARK  status: ('A' for Active; 'I' for Inactive)
REMARK    1  A    between atoms: C_1  and  C_2
REMARK    2  A    between atoms: C_5  and  C_8
REMARK    3  A    between atoms: C_8  and  C_9
REMARK    4  A    between atoms: C_8  and  C_16
REMARK    5  A    between atoms: C_8  and  O_23
REMARK    6  A    between atoms: C_12  and  C_15
REMARK    7  A    between atoms: C_19  and  C_22
REMARK    8  A    between atoms: O_23  and  C_24
REMARK    9  A    between atoms: C_24  and  C_25
REMARK   10  A    between atoms: C_27  and  O_43
REMARK   11  A    between atoms: C_29  and  O_42
REMARK   12  A    between atoms: C_31  and  N_34
REMARK                            x       y       z     vdW  Elec       q    Type
REMARK                         _______ _______ _______ _____ _____    ______ ____
ROOT
ATOM      1  C   UNL     1      -4.743   0.714   1.059  0.00  0.00    +0.144 C 
ENDROOT
BRANCH   1   6
ATOM      2  C   UNL     1      -3.904   4.040  -3.591  0.00  0.00    +0.044 C 
ATOM      3  C   UNL     1      -4.122   3.172  -2.379  0.00  0.00    -0.050 A 
ATOM      4  C   UNL     1      -3.494   3.480  -1.186  0.00  0.00    +0.004 A 
ATOM      5  C   UNL     1      -3.695   2.684  -0.074  0.00  0.00    +0.007 A 
ATOM      6  C   UNL     1      -4.524   1.581  -0.154  0.00  0.00    -0.007 A 
ATOM      7  C   UNL     1      -5.148   1.270  -1.348  0.00  0.00    +0.007 A 
ATOM      8  C   UNL     1      -4.950   2.068  -2.459  0.00  0.00    +0.004 A 
ENDBRANCH   1   6
BRANCH   1   9
ATOM      9  C   UNL     1      -6.024  -0.064   0.896  0.00  0.00    -0.007 A 
ATOM     10  C   UNL     1      -7.232   0.602   0.823  0.00  0.00    +0.007 A 
ATOM     11  C   UNL     1      -8.407  -0.111   0.669  0.00  0.00    +0.004 A 
ATOM     12  C   UNL     1      -8.373  -1.491   0.596  0.00  0.00    -0.050 A 
ATOM     13  C   UNL     1      -7.164  -2.158   0.674  0.00  0.00    +0.004 A 
ATOM     14  C   UNL     1      -5.990  -1.444   0.824  0.00  0.00    +0.007 A 
ATOM     15  C   UNL     1      -9.653  -2.268   0.432  0.00  0.00    +0.044 C 
ENDBRANCH   1   9
BRANCH   1  16
ATOM     16  C   UNL     1      -4.836   1.582   2.287  0.00  0.00    -0.007 A 
ATOM     17  C   UNL     1      -5.328   2.870   2.188  0.00  0.00    +0.007 A 
ATOM     18  C   UNL     1      -5.417   3.664   3.315  0.00  0.00    +0.004 A 
ATOM     19  C   UNL     1      -5.005   3.174   4.541  0.00  0.00    -0.050 A 
ATOM     20  C   UNL     1      -4.508   1.888   4.639  0.00  0.00    +0.004 A 
ATOM     21  C   UNL     1      -4.423   1.092   3.512  0.00  0.00    +0.007 A 
ATOM     22  C   UNL     1      -5.099   4.042   5.769  0.00  0.00    +0.044 C 
ENDBRANCH   1  16
BRANCH   1  23
ATOM     23  O   UNL     1      -3.649  -0.195   1.199  0.00  0.00    -0.357 OA
BRANCH  23  24
ATOM     24  C   UNL     1      -2.377   0.444   1.333  0.00  0.00    +0.196 C 
BRANCH  24  25
ATOM     25  C   UNL     1      -1.304  -0.611   1.612  0.00  0.00    +0.178 C 
ATOM     26  C   UNL     1       0.057   0.067   1.885  0.00  0.00    +0.178 C 
ATOM     27  C   UNL     1       1.085  -0.876   1.221  0.00  0.00    +0.197 C 
ATOM     28  C   UNL     1       0.224  -2.012   0.626  0.00  0.00    +0.273 C 
ATOM     29  O   UNL     1      -1.083  -1.425   0.441  0.00  0.00    -0.344 OA
BRANCH  28  30
ATOM     30  N   UNL     1       0.774  -2.450  -0.659  0.00  0.00    -0.181 N 
ATOM     31  C   UNL     1       0.885  -3.766  -0.913  0.00  0.00    +0.369 A 
ATOM     32  O   UNL     1       0.529  -4.577  -0.074  0.00  0.00    -0.243 OA
ATOM     33  N   UNL     1       1.378  -4.192  -2.079  0.00  0.00    -0.176 NA
ATOM     34  C   UNL     1       1.767  -3.298  -2.981  0.00  0.00    +0.142 A 
ATOM     35  C   UNL     1       1.638  -1.922  -2.672  0.00  0.00    +0.176 A 
ATOM     36  N   UNL     1       1.144  -1.567  -1.518  0.00  0.00    -0.170 NA
ATOM     37  N   UNL     1       2.285  -3.700  -4.190  0.00  0.00    -0.342 N 
ATOM     38  H   UNL     1       2.566  -3.039  -4.841  0.00  0.00    +0.144 HD
ATOM     39  H   UNL     1       2.369  -4.645  -4.391  0.00  0.00    +0.144 HD
ENDBRANCH  28  30
BRANCH  27  40
ATOM     40  O   UNL     1       1.799  -0.193   0.190  0.00  0.00    -0.385 OA
ATOM     41  H   UNL     1       2.458  -0.739  -0.261  0.00  0.00    +0.210 HD
ENDBRANCH  27  40
BRANCH  26  42
ATOM     42  O   UNL     1       0.102   1.361   1.281  0.00  0.00    -0.386 OA
ATOM     43  H   UNL     1       0.956   1.807   1.370  0.00  0.00    +0.210 HD
ENDBRANCH  26  42
ENDBRANCH  24  25
ENDBRANCH  23  24
ENDBRANCH   1  23
TORSDOF 9
