REMARK  Name = ZINC46033200
REMARK  8 active torsions:
REMARK  status: ('A' for Active; 'I' for Inactive)
REMARK    1  A    between atoms: C_1  and  O_2
REMARK    2  A    between atoms: O_2  and  C_3
REMARK    3  A    between atoms: C_3  and  C_4
REMARK    4  A    between atoms: C_9  and  N_10
REMARK    5  A    between atoms: N_13  and  C_14
REMARK    6  A    between atoms: C_14  and  C_15
REMARK    7  A    between atoms: C_15  and  C_17
REMARK    8  A    between atoms: C_15  and  C_23
REMARK                            x       y       z     vdW  Elec       q    Type
REMARK                         _______ _______ _______ _____ _____    ______ ____
ROOT
ATOM      1  C   UNL     1      -8.317  -2.494  -0.347  0.00  0.00    +0.068 C 
ENDROOT
BRANCH   1   2
ATOM      2  C   UNL     1      -9.550  -3.359  -0.330  0.00  0.00    -0.013 A 
ATOM      3  C   UNL     1      -9.867  -4.316  -1.216  0.00  0.00    +0.088 A 
ATOM      4  N   UNL     1     -11.062  -4.889  -0.878  0.00  0.00    -0.360 N 
ATOM      5  H   UNL     1     -11.497  -5.604  -1.369  0.00  0.00    +0.165 HD
ATOM      6  C   UNL     1     -11.557  -4.300   0.264  0.00  0.00    +0.047 A 
ATOM      7  C   UNL     1     -10.629  -3.320   0.661  0.00  0.00    +0.003 A 
ATOM      8  C   UNL     1     -10.868  -2.557   1.805  0.00  0.00    +0.010 A 
ATOM      9  C   UNL     1     -12.002  -2.768   2.537  0.00  0.00    +0.001 A 
ATOM     10  C   UNL     1     -12.919  -3.736   2.152  0.00  0.00    +0.002 A 
ATOM     11  C   UNL     1     -12.708  -4.495   1.021  0.00  0.00    +0.026 A 
ENDBRANCH   1   2
BRANCH   1  12
ATOM     12  C   UNL     1      -8.280  -1.696  -1.625  0.00  0.00    -0.038 A 
ATOM     13  C   UNL     1      -8.255  -2.346  -2.845  0.00  0.00    +0.004 A 
ATOM     14  C   UNL     1      -8.222  -1.615  -4.017  0.00  0.00    +0.000 A 
ATOM     15  C   UNL     1      -8.214  -0.233  -3.970  0.00  0.00    +0.000 A 
ATOM     16  C   UNL     1      -8.240   0.417  -2.750  0.00  0.00    +0.000 A 
ATOM     17  C   UNL     1      -8.278  -0.315  -1.578  0.00  0.00    +0.004 A 
ENDBRANCH   1  12
BRANCH   1  18
ATOM     18  C   UNL     1      -7.072  -3.379  -0.262  0.00  0.00    +0.118 C 
BRANCH  18  22
ATOM     19  N   UNL     1      -3.561  -2.324   0.024  0.00  0.00    -0.269 N 
ATOM     20  C   UNL     1      -4.659  -3.101  -0.072  0.00  0.00    +0.304 C 
ATOM     21  O   UNL     1      -4.548  -4.312  -0.080  0.00  0.00    -0.253 OA
ATOM     22  N   UNL     1      -5.879  -2.535  -0.159  0.00  0.00    -0.298 N 
ATOM     23  H   UNL     1      -3.653  -1.361   0.095  0.00  0.00    +0.156 HD
ATOM     24  H   UNL     1      -5.967  -1.569  -0.152  0.00  0.00    +0.150 HD
BRANCH  19  30
ATOM     25  C   UNL     1      -1.225  -2.253  -0.588  0.00  0.00    -0.001 A 
ATOM     26  C   UNL     1       0.030  -2.828  -0.585  0.00  0.00    +0.008 A 
ATOM     27  C   UNL     1       0.228  -4.058   0.015  0.00  0.00    +0.000 A 
ATOM     28  C   UNL     1      -0.831  -4.716   0.615  0.00  0.00    +0.002 A 
ATOM     29  C   UNL     1      -2.089  -4.146   0.616  0.00  0.00    +0.024 A 
ATOM     30  C   UNL     1      -2.289  -2.908   0.019  0.00  0.00    +0.040 A 
BRANCH  25  31
ATOM     31  C   UNL     1      -1.440  -0.912  -1.242  0.00  0.00    +0.196 C 
BRANCH  31  33
ATOM     32  C   UNL     1      -0.298   0.823  -2.438  0.00  0.00    +0.194 C 
ATOM     33  O   UNL     1      -0.205  -0.447  -1.791  0.00  0.00    -0.378 OA
ENDBRANCH  31  33
ENDBRANCH  25  31
ENDBRANCH  19  30
ENDBRANCH  18  22
ENDBRANCH   1  18
TORSDOF 7
