REMARK  Name = ZINC67264028
REMARK  7 active torsions:
REMARK  status: ('A' for Active; 'I' for Inactive)
REMARK    1  A    between atoms: C_1  and  C_2
REMARK    2  A    between atoms: C_2  and  C_4
REMARK    3  A    between atoms: C_2  and  O_18
REMARK    4  A    between atoms: N_6  and  C_7
REMARK    5  A    between atoms: C_10  and  C_13
REMARK    6  A    between atoms: C_13  and  N_14
REMARK    7  A    between atoms: O_18  and  C_19
REMARK                            x       y       z     vdW  Elec       q    Type
REMARK                         _______ _______ _______ _____ _____    ______ ____
ROOT
ATOM      1  C   UNL     1      -1.513  -0.514   0.074  0.00  0.00    +0.258 C 
ATOM      2  O   UNL     1      -1.850  -1.144  -0.905  0.00  0.00    -0.271 OA
ATOM      3  N   UNL     1      -2.385  -0.317   1.083  0.00  0.00    -0.282 N 
ATOM      4  H   UNL     1      -2.142   0.252   1.830  0.00  0.00    +0.155 HD
ENDROOT
BRANCH   3   5
ATOM      5  C   UNL     1      -3.641  -0.934   1.052  0.00  0.00    +0.034 A 
ATOM      6  C   UNL     1      -4.751  -0.278   1.568  0.00  0.00    +0.023 A 
ATOM      7  C   UNL     1      -5.989  -0.890   1.536  0.00  0.00    +0.007 A 
ATOM      8  C   UNL     1      -6.123  -2.154   0.990  0.00  0.00    -0.030 A 
ATOM      9  C   UNL     1      -5.020  -2.809   0.476  0.00  0.00    +0.007 A 
ATOM     10  C   UNL     1      -3.780  -2.200   0.499  0.00  0.00    +0.023 A 
BRANCH   8  11
ATOM     11  C   UNL     1      -7.476  -2.818   0.957  0.00  0.00    +0.141 C 
BRANCH  11  12
ATOM     12  N   UNL     1      -8.159  -2.472  -0.292  0.00  0.00    -0.295 N 
ATOM     13  C   UNL     1      -9.392  -2.956  -0.542  0.00  0.00    +0.297 C 
ATOM     14  O   UNL     1      -9.937  -3.680   0.269  0.00  0.00    -0.253 OA
ATOM     15  N   UNL     1     -10.020  -2.639  -1.692  0.00  0.00    -0.313 N 
ATOM     16  H   UNL     1      -7.724  -1.895  -0.939  0.00  0.00    +0.151 HD
ATOM     17  H   UNL     1      -9.585  -2.062  -2.339  0.00  0.00    +0.146 HD
ATOM     18  H   UNL     1     -10.907  -2.987  -1.872  0.00  0.00    +0.146 HD
ENDBRANCH  11  12
ENDBRANCH   8  11
ENDBRANCH   3   5
BRANCH   1  20
ATOM     19  C   UNL     1      -0.186   1.579   0.172  0.00  0.00    +0.062 C 
ATOM     20  C   UNL     1      -0.118   0.051   0.164  0.00  0.00    +0.256 C 
BRANCH  20  21
ATOM     21  O   UNL     1       0.645  -0.386  -0.963  0.00  0.00    -0.478 OA
BRANCH  21  22
ATOM     22  C   UNL     1       1.996  -0.433  -0.812  0.00  0.00    +0.140 A 
ATOM     23  C   UNL     1       2.581   0.034   0.355  0.00  0.00    +0.048 A 
ATOM     24  C   UNL     1       3.953  -0.014   0.507  0.00  0.00    +0.023 A 
ATOM     25  C   UNL     1       4.745  -0.528  -0.505  0.00  0.00    +0.043 A 
ATOM     26  C   UNL     1       4.164  -0.995  -1.671  0.00  0.00    +0.043 A 
ATOM     27  C   UNL     1       2.790  -0.954  -1.824  0.00  0.00    +0.084 A 
ATOM     28 CL   UNL     1       2.061  -1.547  -3.283  0.00  0.00    -0.080 Cl
ATOM     29 CL   UNL     1       6.469  -0.587  -0.312  0.00  0.00    -0.083 Cl
ENDBRANCH  21  22
ENDBRANCH  20  21
ENDBRANCH   1  20
TORSDOF 6
