REMARK  Name = ZINC11154475
REMARK  9 active torsions:
REMARK  status: ('A' for Active; 'I' for Inactive)
REMARK    1  A    between atoms: C_1  and  C_2
REMARK    2  A    between atoms: C_2  and  C_4
REMARK    3  A    between atoms: C_2  and  N_14
REMARK    4  A    between atoms: N_9  and  C_10
REMARK    5  A    between atoms: C_10  and  C_11
REMARK    6  A    between atoms: C_11  and  C_12
REMARK    7  A    between atoms: C_11  and  C_13
REMARK    8  A    between atoms: N_14  and  C_15
REMARK    9  A    between atoms: C_18  and  N_21
REMARK                            x       y       z     vdW  Elec       q    Type
REMARK                         _______ _______ _______ _____ _____    ______ ____
ROOT
ATOM      1  N   UNL     1      -1.372  -0.511   0.012  0.00  0.00    -0.333 N 
ATOM      2  H   UNL     1      -1.810  -0.743  -0.822  0.00  0.00    +0.147 HD
ENDROOT
BRANCH   1   3
ATOM      3  C   UNL     1      -2.053  -0.660   1.223  0.00  0.00    +0.028 A 
ATOM      4  C   UNL     1      -1.429  -0.323   2.418  0.00  0.00    +0.025 A 
ATOM      5  C   UNL     1      -2.105  -0.471   3.613  0.00  0.00    +0.023 A 
ATOM      6  C   UNL     1      -3.400  -0.956   3.622  0.00  0.00    +0.014 A 
ATOM      7  C   UNL     1      -4.024  -1.292   2.434  0.00  0.00    +0.023 A 
ATOM      8  C   UNL     1      -3.356  -1.141   1.235  0.00  0.00    +0.025 A 
BRANCH   6   9
ATOM      9  N   UNL     1      -4.081  -1.106   4.834  0.00  0.00    -0.393 NA
ATOM     10  C   UNL     1      -4.446  -2.515   5.017  0.00  0.00    +0.085 C 
ATOM     11  C   UNL     1      -5.119  -2.699   6.379  0.00  0.00    +0.017 C 
ATOM     12  C   UNL     1      -6.380  -1.832   6.440  0.00  0.00    +0.003 C 
ATOM     13  C   UNL     1      -5.997  -0.373   6.173  0.00  0.00    +0.017 C 
ATOM     14  C   UNL     1      -5.291  -0.276   4.819  0.00  0.00    +0.085 C 
ATOM     15  H   UNL     1      -3.483  -0.813   5.592  0.00  0.00    +0.126 HD
ENDBRANCH   6   9
ENDBRANCH   1   3
BRANCH   1  17
ATOM     16  C   UNL     1      -0.019   1.526   0.010  0.00  0.00    +0.038 C 
ATOM     17  C   UNL     1       0.002  -0.004   0.002  0.00  0.00    +0.154 C 
BRANCH  17  18
ATOM     18  C   UNL     1       0.707  -0.490  -1.238  0.00  0.00    +0.240 C 
ATOM     19  O   UNL     1       0.120  -1.191  -2.034  0.00  0.00    -0.273 OA
ATOM     20  N   UNL     1       1.991  -0.146  -1.462  0.00  0.00    -0.239 N 
ATOM     21  C   UNL     1       2.622  -0.580  -2.570  0.00  0.00    +0.306 C 
ATOM     22  O   UNL     1       2.033  -1.283  -3.369  0.00  0.00    -0.252 OA
ATOM     23  N   UNL     1       3.906  -0.236  -2.794  0.00  0.00    -0.299 N 
ATOM     24  H   UNL     1       2.461   0.415  -0.825  0.00  0.00    +0.159 HD
ATOM     25  H   UNL     1       4.376   0.324  -2.157  0.00  0.00    +0.150 HD
BRANCH  23  26
ATOM     26  C   UNL     1       4.591  -0.709  -3.999  0.00  0.00    +0.108 C 
BRANCH  26  27
ATOM     27  C   UNL     1       6.027  -0.179  -4.010  0.00  0.00    -0.000 C 
ATOM     28  C   UNL     1       6.803  -0.785  -2.839  0.00  0.00    +0.009 C 
ATOM     29  C   UNL     1       6.704  -0.567  -5.326  0.00  0.00    +0.009 C 
ENDBRANCH  26  27
ENDBRANCH  23  26
ENDBRANCH  17  18
ENDBRANCH   1  17
TORSDOF 6
