REMARK  Name = ZINC06574131
REMARK  7 active torsions:
REMARK  status: ('A' for Active; 'I' for Inactive)
REMARK    1  A    between atoms: C_1  and  C_2
REMARK    2  A    between atoms: C_2  and  C_3
REMARK    3  A    between atoms: C_6  and  N_9
REMARK    4  A    between atoms: C_13  and  C_14
REMARK    5  A    between atoms: C_17  and  C_19
REMARK    6  A    between atoms: C_22  and  S_25
REMARK    7  A    between atoms: S_25  and  N_28
REMARK                            x       y       z     vdW  Elec       q    Type
REMARK                         _______ _______ _______ _____ _____    ______ ____
ROOT
ATOM      1  N   UNL     1       1.056   2.029   0.003  0.00  0.00    -0.184 N 
ATOM      2  C   UNL     1      -0.014   1.213   0.009  0.00  0.00    +0.272 C 
ATOM      3  O   UNL     1       0.002  -0.004   0.002  0.00  0.00    -0.268 OA
ATOM      4  C   UNL     1      -1.209   2.073   0.018  0.00  0.00    +0.105 C 
ATOM      5  C   UNL     1      -2.539   1.671   0.022  0.00  0.00    +0.064 C 
ATOM      6  C   UNL     1      -0.691   3.451   0.026  0.00  0.00    +0.266 C 
ATOM      7  O   UNL     1      -1.351   4.474   0.037  0.00  0.00    -0.268 OA
ATOM      8  N   UNL     1       0.653   3.365   0.013  0.00  0.00    -0.223 N 
ATOM      9  H   UNL     1       1.256   4.124   0.011  0.00  0.00    +0.174 HD
ENDROOT
BRANCH   1  13
ATOM     10  C   UNL     1       5.019   0.747  -0.039  0.00  0.00    -0.047 A 
ATOM     11  C   UNL     1       4.732   2.099  -0.030  0.00  0.00    +0.005 A 
ATOM     12  C   UNL     1       3.419   2.528  -0.016  0.00  0.00    +0.025 A 
ATOM     13  C   UNL     1       2.387   1.599  -0.011  0.00  0.00    +0.056 A 
ATOM     14  C   UNL     1       2.679   0.241  -0.015  0.00  0.00    +0.025 A 
ATOM     15  C   UNL     1       3.994  -0.181  -0.033  0.00  0.00    +0.005 A 
BRANCH  10  17
ATOM     16  C   UNL     1       6.951   0.119   1.384  0.00  0.00    +0.009 C 
ATOM     17  C   UNL     1       6.453   0.283  -0.054  0.00  0.00    +0.032 C 
ENDBRANCH  10  17
ENDBRANCH   1  13
BRANCH   5  18
ATOM     18  C   UNL     1      -2.859   0.305   0.016  0.00  0.00    +0.129 A 
ATOM     19  C   UNL     1      -4.139  -0.232   0.019  0.00  0.00    +0.050 A 
ATOM     20  C   UNL     1      -3.995  -1.617   0.010  0.00  0.00    +0.050 A 
ATOM     21  C   UNL     1      -2.641  -1.883   0.003  0.00  0.00    +0.136 A 
ATOM     22  O   UNL     1      -1.975  -0.716   0.001  0.00  0.00    -0.455 OA
BRANCH  21  23
ATOM     23  C   UNL     1      -2.027  -3.224  -0.007  0.00  0.00    +0.017 A 
ATOM     24  C   UNL     1      -2.833  -4.366  -0.003  0.00  0.00    +0.013 A 
ATOM     25  C   UNL     1      -2.252  -5.616  -0.018  0.00  0.00    +0.029 A 
ATOM     26  C   UNL     1      -0.874  -5.743  -0.025  0.00  0.00    +0.105 A 
ATOM     27  C   UNL     1      -0.069  -4.617  -0.022  0.00  0.00    +0.029 A 
ATOM     28  C   UNL     1      -0.636  -3.360  -0.013  0.00  0.00    +0.013 A 
BRANCH  26  29
ATOM     29  S   UNL     1      -0.141  -7.345  -0.036  0.00  0.00    +0.056 S 
ATOM     30  O   UNL     1      -1.106  -8.230  -0.588  0.00  0.00    -0.153 OA
ATOM     31  O   UNL     1       1.159  -7.193  -0.592  0.00  0.00    -0.153 OA
BRANCH  29  32
ATOM     32  N   UNL     1       0.070  -7.798   1.543  0.00  0.00    -0.204 NA
ATOM     33  H   UNL     1      -0.202  -7.203   2.259  0.00  0.00    +0.144 HD
ATOM     34  H   UNL     1       0.464  -8.659   1.752  0.00  0.00    +0.144 HD
ENDBRANCH  29  32
ENDBRANCH  26  29
ENDBRANCH  21  23
ENDBRANCH   5  18
TORSDOF 6
