REMARK  Name = ZINC63375911
REMARK  8 active torsions:
REMARK  status: ('A' for Active; 'I' for Inactive)
REMARK    1  A    between atoms: C_1  and  O_2
REMARK    2  A    between atoms: O_2  and  C_3
REMARK    3  A    between atoms: C_3  and  C_4
REMARK    4  A    between atoms: C_4  and  C_5
REMARK    5  A    between atoms: C_5  and  N_6
REMARK    6  A    between atoms: C_7  and  C_9
REMARK    7  A    between atoms: C_14  and  N_15
REMARK    8  A    between atoms: C_31  and  C_36
REMARK                            x       y       z     vdW  Elec       q    Type
REMARK                         _______ _______ _______ _____ _____    ______ ____
ROOT
ATOM      1  N   UNL     1       3.243  -6.980   5.156  0.00  0.00    -0.192 N 
ATOM      2  C   UNL     1       2.599  -6.655   6.296  0.00  0.00    +0.248 C 
ATOM      3  O   UNL     1       1.446  -6.899   6.581  0.00  0.00    -0.273 OA
ATOM      4  C   UNL     1       3.615  -5.923   7.145  0.00  0.00    +0.169 C 
ATOM      5  C   UNL     1       3.103  -4.509   7.474  0.00  0.00    +0.065 C 
ATOM      6  C   UNL     1       4.325  -3.672   7.770  0.00  0.00    -0.034 C 
ATOM      7  C   UNL     1       4.629  -2.926   8.827  0.00  0.00    -0.001 A 
ATOM      8  C   UNL     1       3.856  -2.573  10.029  0.00  0.00    +0.010 A 
ATOM      9  C   UNL     1       4.492  -1.790  10.941  0.00  0.00    +0.001 A 
ATOM     10  C   UNL     1       5.801  -1.327  10.778  0.00  0.00    +0.002 A 
ATOM     11  C   UNL     1       6.582  -1.597   9.701  0.00  0.00    +0.026 A 
ATOM     12  C   UNL     1       6.021  -2.407   8.671  0.00  0.00    +0.043 A 
ATOM     13  N   UNL     1       6.527  -2.799   7.540  0.00  0.00    -0.375 N 
ATOM     14  C   UNL     1       5.509  -3.564   6.818  0.00  0.00    +0.131 C 
ATOM     15  C   UNL     1       5.980  -4.996   6.526  0.00  0.00    +0.135 C 
ATOM     16  N   UNL     1       4.785  -5.811   6.251  0.00  0.00    -0.264 N 
ATOM     17  C   UNL     1       4.504  -6.525   5.153  0.00  0.00    +0.317 C 
ATOM     18  O   UNL     1       5.298  -6.734   4.258  0.00  0.00    -0.252 OA
ATOM     19  H   UNL     1       7.427  -2.615   7.227  0.00  0.00    +0.160 HD
ENDROOT
BRANCH   1  25
ATOM     20  C   UNL     1       2.005  -7.040   3.071  0.00  0.00    +0.059 A 
ATOM     21  C   UNL     1       1.440  -7.777   2.029  0.00  0.00    +0.015 A 
ATOM     22  C   UNL     1       1.533  -9.152   2.030  0.00  0.00    +0.001 A 
ATOM     23  C   UNL     1       2.185  -9.808   3.061  0.00  0.00    +0.002 A 
ATOM     24  C   UNL     1       2.749  -9.092   4.098  0.00  0.00    +0.025 A 
ATOM     25  C   UNL     1       2.669  -7.707   4.111  0.00  0.00    +0.058 A 
BRANCH  20  27
ATOM     26  N   UNL     1       1.270  -4.930   2.075  0.00  0.00    -0.311 N 
ATOM     27  C   UNL     1       1.909  -5.567   3.076  0.00  0.00    +0.246 C 
ATOM     28  O   UNL     1       2.407  -4.929   3.983  0.00  0.00    -0.270 OA
ATOM     29  H   UNL     1       0.873  -5.440   1.351  0.00  0.00    +0.149 HD
BRANCH  26  30
ATOM     30  C   UNL     1       1.175  -3.468   2.080  0.00  0.00    +0.107 C 
BRANCH  30  31
ATOM     31  C   UNL     1       0.406  -3.003   0.842  0.00  0.00    +0.047 C 
BRANCH  31  32
ATOM     32  C   UNL     1       0.306  -1.477   0.847  0.00  0.00    +0.161 C 
BRANCH  32  34
ATOM     33  C   UNL     1      -0.562   0.376  -0.402  0.00  0.00    +0.193 C 
ATOM     34  O   UNL     1      -0.412  -1.042  -0.310  0.00  0.00    -0.383 OA
ENDBRANCH  32  34
ENDBRANCH  31  32
ENDBRANCH  30  31
ENDBRANCH  26  30
ENDBRANCH  20  27
ENDBRANCH   1  25
BRANCH  15  35
ATOM     35  C   UNL     1       6.898  -5.003   5.330  0.00  0.00    -0.025 A 
ATOM     36  C   UNL     1       6.452  -4.518   4.115  0.00  0.00    +0.005 A 
ATOM     37  C   UNL     1       7.294  -4.524   3.018  0.00  0.00    +0.000 A 
ATOM     38  C   UNL     1       8.581  -5.015   3.137  0.00  0.00    +0.000 A 
ATOM     39  C   UNL     1       9.026  -5.499   4.353  0.00  0.00    +0.000 A 
ATOM     40  C   UNL     1       8.186  -5.489   5.451  0.00  0.00    +0.005 A 
ENDBRANCH  15  35
TORSDOF 7
