REMARK  Name = ZINC00436189
REMARK  4 active torsions:
REMARK  status: ('A' for Active; 'I' for Inactive)
REMARK    1  A    between atoms: C_4  and  O_24
REMARK    2  A    between atoms: C_5  and  C_7
REMARK    3  A    between atoms: C_10  and  C_19
REMARK    4  A    between atoms: C_10  and  O_23
REMARK                            x       y       z     vdW  Elec       q    Type
REMARK                         _______ _______ _______ _____ _____    ______ ____
ROOT
ATOM      1  C   UNL     1       1.216   1.518   2.492  0.00  0.00    +0.272 C 
ATOM      2  O   UNL     1       0.072   1.105   2.510  0.00  0.00    -0.268 OA
ATOM      3  N   UNL     1       1.882   1.708   3.649  0.00  0.00    -0.148 N 
ATOM      4  C   UNL     1       1.393   1.347   4.992  0.00  0.00    +0.259 C 
ATOM      5  C   UNL     1       2.594   1.658   5.896  0.00  0.00    +0.096 C 
ATOM      6  C   UNL     1       2.231   2.674   6.982  0.00  0.00    +0.014 C 
ATOM      7  C   UNL     1       3.526   3.176   7.630  0.00  0.00    +0.001 C 
ATOM      8  C   UNL     1       4.378   3.950   6.626  0.00  0.00    +0.006 C 
ATOM      9  C   UNL     1       4.827   3.022   5.486  0.00  0.00    +0.053 C 
ATOM     10  C   UNL     1       3.587   2.325   4.956  0.00  0.00    +0.045 C 
ATOM     11  N   UNL     1       3.152   2.274   3.773  0.00  0.00    -0.183 NA
ENDROOT
BRANCH   1  16
ATOM     12  C   UNL     1       3.752   2.667  -0.024  0.00  0.00    +0.001 A 
ATOM     13  C   UNL     1       3.111   2.365  -1.214  0.00  0.00    +0.004 A 
ATOM     14  C   UNL     1       1.858   1.786  -1.206  0.00  0.00    +0.046 A 
ATOM     15  C   UNL     1       1.232   1.502  -0.001  0.00  0.00    +0.129 A 
ATOM     16  C   UNL     1       1.875   1.810   1.205  0.00  0.00    +0.080 A 
ATOM     17  C   UNL     1       3.145   2.391   1.182  0.00  0.00    +0.017 A 
BRANCH  15  18
ATOM     18  O   UNL     1       0.000   0.933   0.009  0.00  0.00    -0.506 OA
ATOM     19  H   UNL     1       0.013  -0.034   0.015  0.00  0.00    +0.292 HD
ENDBRANCH  15  18
ENDBRANCH   1  16
BRANCH   4  20
ATOM     20  C   UNL     1       1.039  -0.140   5.056  0.00  0.00    +0.438 C 
ATOM     21  F   UNL     1       2.167  -0.903   4.736  0.00  0.00    -0.166 F 
ATOM     22  F   UNL     1       0.610  -0.462   6.349  0.00  0.00    -0.166 F 
ATOM     23  F   UNL     1       0.015  -0.416   4.143  0.00  0.00    -0.166 F 
ENDBRANCH   4  20
BRANCH   4  24
ATOM     24  O   UNL     1       0.266   2.148   5.351  0.00  0.00    -0.363 OA
ATOM     25  H   UNL     1      -0.495   2.042   4.764  0.00  0.00    +0.212 HD
ENDBRANCH   4  24
TORSDOF 4
