REMARK  Name = ZINC13063674
REMARK  13 active torsions:
REMARK  status: ('A' for Active; 'I' for Inactive)
REMARK    1  A    between atoms: C_1  and  C_2
REMARK    2  A    between atoms: C_2  and  C_3
REMARK    3  A    between atoms: C_10  and  C_15
REMARK    4  A    between atoms: C_15  and  N_73
REMARK    5  A    between atoms: C_16  and  C_17
REMARK    6  A    between atoms: C_16  and  N_73
REMARK    7  A    between atoms: C_17  and  C_18
REMARK    8  A    between atoms: C_24  and  C_26
REMARK    9  A    between atoms: C_24  and  C_28
REMARK   10  A    between atoms: C_24  and  N_73
REMARK   11  A    between atoms: C_26  and  C_27
REMARK   12  A    between atoms: N_32  and  C_33
REMARK   13  A    between atoms: C_33  and  C_34
REMARK                            x       y       z     vdW  Elec       q    Type
REMARK                         _______ _______ _______ _____ _____    ______ ____
ROOT
ATOM      1  N   UNL     1       1.122  -2.358   1.166  0.00  0.00    +0.389 N 
ATOM      2  H   UNL     1       1.773  -1.908   1.821  0.00  0.00    -0.080 HD
ENDROOT
BRANCH   1   3
ATOM      3  C   UNL     1       1.389  -1.856  -0.198  0.00  0.00    -0.037 C 
BRANCH   3  11
ATOM      4  C   UNL     1       4.594   3.422   0.201  0.00  0.00    -0.047 A 
ATOM      5  C   UNL     1       3.497   4.273   0.169  0.00  0.00    +0.005 A 
ATOM      6  C   UNL     1       2.219   3.769   0.073  0.00  0.00    +0.026 A 
ATOM      7  C   UNL     1       2.022   2.393   0.007  0.00  0.00    +0.049 A 
ATOM      8  C   UNL     1       3.136   1.534   0.041  0.00  0.00    -0.001 A 
ATOM      9  C   UNL     1       4.425   2.068   0.139  0.00  0.00    +0.013 A 
ATOM     10  C   UNL     1       2.919   0.087  -0.029  0.00  0.00    +0.017 A 
ATOM     11  C   UNL     1       1.647  -0.373  -0.124  0.00  0.00    +0.001 A 
ATOM     12  C   UNL     1       0.564   0.532  -0.153  0.00  0.00    +0.251 A 
ATOM     13  O   UNL     1      -0.571   0.097  -0.238  0.00  0.00    -0.268 OA
ATOM     14  N   UNL     1       0.754   1.861  -0.089  0.00  0.00    -0.322 N 
ATOM     15  H   UNL     1      -0.013   2.455  -0.116  0.00  0.00    +0.169 HD
BRANCH   4  17
ATOM     16  C   UNL     1       6.367   4.136   1.780  0.00  0.00    +0.009 C 
ATOM     17  C   UNL     1       5.983   3.998   0.306  0.00  0.00    +0.032 C 
ENDBRANCH   4  17
ENDBRANCH   3  11
ENDBRANCH   1   3
BRANCH   1  18
ATOM     18  C   UNL     1      -0.263  -2.030   1.563  0.00  0.00    -0.073 C 
BRANCH  18  19
ATOM     19  C   UNL     1      -0.427  -2.312   3.058  0.00  0.00    +0.016 C 
BRANCH  19  20
ATOM     20  C   UNL     1      -1.774  -1.818   3.518  0.00  0.00    -0.049 A 
ATOM     21  C   UNL     1      -1.945  -0.490   3.859  0.00  0.00    +0.003 A 
ATOM     22  C   UNL     1      -3.182  -0.036   4.276  0.00  0.00    +0.000 A 
ATOM     23  C   UNL     1      -4.247  -0.913   4.361  0.00  0.00    +0.000 A 
ATOM     24  C   UNL     1      -4.075  -2.243   4.025  0.00  0.00    +0.000 A 
ATOM     25  C   UNL     1      -2.839  -2.696   3.604  0.00  0.00    +0.003 A 
ENDBRANCH  19  20
ENDBRANCH  18  19
ENDBRANCH   1  18
BRANCH   1  26
ATOM     26  C   UNL     1       1.329  -3.821   1.215  0.00  0.00    +0.003 C 
BRANCH  26  27
ATOM     27  C   UNL     1       0.562  -4.500   0.109  0.00  0.00    +0.138 A 
ATOM     28  N   UNL     1       0.545  -4.158  -1.156  0.00  0.00    -0.115 NA
ATOM     29  N   UNL     1      -0.224  -4.981  -1.781  0.00  0.00    -0.023 NA
ATOM     30  N   UNL     1      -0.705  -5.835  -0.945  0.00  0.00    -0.044 NA
ATOM     31  N   UNL     1      -0.244  -5.571   0.231  0.00  0.00    -0.228 N 
BRANCH  31  32
ATOM     32  C   UNL     1      -0.542  -6.301   1.466  0.00  0.00    +0.178 C 
BRANCH  32  33
ATOM     33  C   UNL     1      -1.864  -5.798   2.049  0.00  0.00    +0.140 C 
ATOM     34  C   UNL     1      -2.136  -6.489   3.402  0.00  0.00    +0.035 C 
ATOM     35  C   UNL     1      -3.667  -6.739   3.344  0.00  0.00    +0.031 C 
ATOM     36  C   UNL     1      -3.862  -7.015   1.831  0.00  0.00    +0.160 C 
ATOM     37  O   UNL     1      -2.942  -6.134   1.168  0.00  0.00    -0.375 OA
ENDBRANCH  32  33
ENDBRANCH  31  32
ENDBRANCH  26  27
BRANCH  26  38
ATOM     38  C   UNL     1       2.822  -4.114   1.054  0.00  0.00    -0.011 C 
ATOM     39  C   UNL     1       3.590  -3.511   2.232  0.00  0.00    +0.002 C 
ENDBRANCH  26  38
ENDBRANCH   1  26
TORSDOF 11
