REMARK  Name = ZINC16699904
REMARK  14 active torsions:
REMARK  status: ('A' for Active; 'I' for Inactive)
REMARK    1  A    between atoms: C_1  and  C_2
REMARK    2  A    between atoms: C_2  and  C_3
REMARK    3  A    between atoms: C_3  and  O_4
REMARK    4  A    between atoms: O_4  and  C_5
REMARK    5  A    between atoms: C_8  and  C_11
REMARK    6  A    between atoms: C_18  and  C_36
REMARK    7  A    between atoms: C_19  and  C_30
REMARK    8  A    between atoms: C_20  and  C_22
REMARK    9  A    between atoms: C_25  and  O_28
REMARK   10  A    between atoms: O_28  and  C_29
REMARK   11  A    between atoms: C_30  and  O_32
REMARK   12  A    between atoms: O_32  and  C_33
REMARK   13  A    between atoms: C_33  and  C_34
REMARK   14  A    between atoms: C_33  and  C_35
REMARK                            x       y       z     vdW  Elec       q    Type
REMARK                         _______ _______ _______ _____ _____    ______ ____
ROOT
ATOM      1  C   UNL     1       3.150  -4.099  -0.088  0.00  0.00    +0.028 C 
ATOM      2  C   UNL     1       2.834  -2.805  -0.354  0.00  0.00    +0.081 A 
ATOM      3  C   UNL     1       1.625  -2.247  -0.974  0.00  0.00    +0.268 A 
ATOM      4  O   UNL     1       0.716  -2.971  -1.337  0.00  0.00    -0.266 OA
ATOM      5  N   UNL     1       1.552  -0.919  -1.127  0.00  0.00    -0.275 N 
ATOM      6  C   UNL     1       2.607  -0.146  -0.699  0.00  0.00    +0.178 A 
ATOM      7  N   UNL     1       2.648   1.158  -0.798  0.00  0.00    -0.228 NA
ATOM      8  C   UNL     1       1.685   1.909  -1.319  0.00  0.00    +0.053 C 
ATOM      9  C   UNL     1       0.543   1.336  -1.805  0.00  0.00    +0.085 C 
ATOM     10  C   UNL     1       0.415  -0.169  -1.731  0.00  0.00    +0.162 C 
ATOM     11  C   UNL     1       1.852   3.405  -1.375  0.00  0.00    +0.066 C 
ATOM     12  S   UNL     1       3.776  -1.320  -0.043  0.00  0.00    -0.046 S 
ENDROOT
BRANCH   1  16
ATOM     13  C   UNL     1       0.238  -7.139  -0.596  0.00  0.00    +0.121 A 
ATOM     14  C   UNL     1       1.552  -7.367  -0.985  0.00  0.00    +0.046 A 
ATOM     15  C   UNL     1       2.502  -6.384  -0.823  0.00  0.00    +0.011 A 
ATOM     16  C   UNL     1       2.142  -5.152  -0.264  0.00  0.00    -0.024 A 
ATOM     17  C   UNL     1       0.817  -4.929   0.133  0.00  0.00    +0.011 A 
ATOM     18  C   UNL     1      -0.126  -5.917  -0.040  0.00  0.00    +0.046 A 
BRANCH  13  19
ATOM     19  O   UNL     1      -0.695  -8.112  -0.758  0.00  0.00    -0.492 OA
BRANCH  19  20
ATOM     20  C   UNL     1      -2.027  -7.811  -0.337  0.00  0.00    +0.229 C 
BRANCH  20  22
ATOM     21  C   UNL     1      -4.355  -8.698  -0.146  0.00  0.00    +0.007 C 
ATOM     22  C   UNL     1      -2.929  -9.019  -0.597  0.00  0.00    +0.038 C 
ENDBRANCH  20  22
ENDBRANCH  19  20
ENDBRANCH  13  19
ENDBRANCH   1  16
BRANCH  10  23
ATOM     23  C   UNL     1       0.210  -0.686  -3.131  0.00  0.00    -0.020 A 
ATOM     24  C   UNL     1       1.292  -0.830  -3.979  0.00  0.00    +0.009 A 
ATOM     25  C   UNL     1       1.108  -1.309  -5.261  0.00  0.00    +0.046 A 
ATOM     26  C   UNL     1      -0.166  -1.637  -5.702  0.00  0.00    +0.120 A 
ATOM     27  C   UNL     1      -1.252  -1.486  -4.851  0.00  0.00    +0.046 A 
ATOM     28  C   UNL     1      -1.061  -1.012  -3.567  0.00  0.00    +0.009 A 
BRANCH  26  29
ATOM     29  O   UNL     1      -0.351  -2.104  -6.964  0.00  0.00    -0.495 OA
ATOM     30  C   UNL     1       0.812  -2.233  -7.785  0.00  0.00    +0.277 C 
ENDBRANCH  26  29
ENDBRANCH  10  23
BRANCH   9  31
ATOM     31  C   UNL     1      -0.478   2.121  -2.364  0.00  0.00    +0.339 C 
ATOM     32  O   UNL     1      -0.394   3.336  -2.340  0.00  0.00    -0.245 OA
BRANCH  31  33
ATOM     33  O   UNL     1      -1.554   1.529  -2.927  0.00  0.00    -0.459 OA
BRANCH  33  34
ATOM     34  C   UNL     1      -2.554   2.389  -3.476  0.00  0.00    +0.171 C 
ATOM     35  C   UNL     1      -2.233   2.675  -4.944  0.00  0.00    +0.052 C 
ATOM     36  C   UNL     1      -3.922   1.710  -3.376  0.00  0.00    +0.052 C 
ENDBRANCH  33  34
ENDBRANCH  31  33
ENDBRANCH   9  31
TORSDOF 9
