REMARK  Name = ZINC39916043
REMARK  12 active torsions:
REMARK  status: ('A' for Active; 'I' for Inactive)
REMARK    1  A    between atoms: C_10  and  O_11
REMARK    2  A    between atoms: O_11  and  C_12
REMARK    3  A    between atoms: C_12  and  C_13
REMARK    4  A    between atoms: C_13  and  C_14
REMARK    5  A    between atoms: C_14  and  N_15
REMARK    6  A    between atoms: C_23  and  S_24
REMARK    7  A    between atoms: S_24  and  C_25
REMARK    8  A    between atoms: C_27  and  O_40
REMARK    9  A    between atoms: C_29  and  O_39
REMARK   10  A    between atoms: C_31  and  O_38
REMARK   11  A    between atoms: C_33  and  C_36
REMARK   12  A    between atoms: C_36  and  O_37
REMARK                            x       y       z     vdW  Elec       q    Type
REMARK                         _______ _______ _______ _____ _____    ______ ____
ROOT
ATOM      1  N   UNL     1       9.959   0.311  -0.299  0.00  0.00    -0.318 N 
ATOM      2  C   UNL     1      10.643   0.842  -1.379  0.00  0.00    +0.069 A 
ATOM      3  C   UNL     1      10.524   0.706  -2.754  0.00  0.00    +0.028 A 
ATOM      4  C   UNL     1      11.385   1.387  -3.589  0.00  0.00    +0.002 A 
ATOM      5  C   UNL     1      12.371   2.209  -3.063  0.00  0.00    +0.002 A 
ATOM      6  C   UNL     1      12.504   2.355  -1.701  0.00  0.00    +0.030 A 
ATOM      7  C   UNL     1      11.640   1.672  -0.841  0.00  0.00    +0.090 A 
ATOM      8  N   UNL     1      11.523   1.613   0.511  0.00  0.00    -0.222 NA
ATOM      9  C   UNL     1      10.531   0.819   0.833  0.00  0.00    +0.172 A 
ENDROOT
BRANCH   1  10
ATOM     10  C   UNL     1       8.827  -0.618  -0.358  0.00  0.00    +0.127 C 
BRANCH  10  11
ATOM     11  C   UNL     1       7.519   0.175  -0.417  0.00  0.00    +0.063 C 
BRANCH  11  12
ATOM     12  C   UNL     1       6.337  -0.794  -0.479  0.00  0.00    +0.231 C 
BRANCH  12  13
ATOM     13  O   UNL     1       5.116  -0.054  -0.533  0.00  0.00    -0.491 OA
BRANCH  13  23
ATOM     14  C   UNL     1       0.248   1.145  -0.760  0.00  0.00    +0.001 A 
ATOM     15  C   UNL     1       1.420   1.898  -0.700  0.00  0.00    +0.001 A 
ATOM     16  C   UNL     1       2.639   1.294  -0.645  0.00  0.00    +0.012 A 
ATOM     17  C   UNL     1       2.720  -0.108  -0.649  0.00  0.00    +0.024 A 
ATOM     18  C   UNL     1       1.529  -0.874  -0.711  0.00  0.00    -0.014 A 
ATOM     19  C   UNL     1       0.289  -0.215  -0.767  0.00  0.00    +0.008 A 
ATOM     20  C   UNL     1       1.611  -2.277  -0.715  0.00  0.00    +0.009 A 
ATOM     21  C   UNL     1       2.829  -2.883  -0.659  0.00  0.00    +0.004 A 
ATOM     22  C   UNL     1       4.001  -2.136  -0.599  0.00  0.00    +0.046 A 
ATOM     23  C   UNL     1       3.964  -0.770  -0.593  0.00  0.00    +0.128 A 
ENDBRANCH  13  23
ENDBRANCH  12  13
ENDBRANCH  11  12
ENDBRANCH  10  11
ENDBRANCH   1  10
BRANCH   9  24
ATOM     24  S   UNL     1      10.018   0.455   2.479  0.00  0.00    -0.054 S 
BRANCH  24  25
ATOM     25  C   UNL     1      11.152   1.419   3.515  0.00  0.00    +0.214 C 
ATOM     26  C   UNL     1      10.736   1.292   4.983  0.00  0.00    +0.185 C 
ATOM     27  C   UNL     1      11.733   2.059   5.857  0.00  0.00    +0.177 C 
ATOM     28  C   UNL     1      13.142   1.514   5.603  0.00  0.00    +0.176 C 
ATOM     29  C   UNL     1      13.466   1.634   4.111  0.00  0.00    +0.176 C 
ATOM     30  O   UNL     1      12.483   0.924   3.354  0.00  0.00    -0.355 OA
BRANCH  28  31
ATOM     31  O   UNL     1      14.090   2.270   6.360  0.00  0.00    -0.386 OA
ATOM     32  H   UNL     1      13.942   2.243   7.315  0.00  0.00    +0.210 HD
ENDBRANCH  28  31
BRANCH  27  33
ATOM     33  O   UNL     1      11.689   3.448   5.526  0.00  0.00    -0.386 OA
ATOM     34  H   UNL     1      10.822   3.856   5.658  0.00  0.00    +0.210 HD
ENDBRANCH  27  33
BRANCH  26  35
ATOM     35  O   UNL     1      10.731  -0.087   5.360  0.00  0.00    -0.386 OA
ATOM     36  H   UNL     1      10.124  -0.633   4.843  0.00  0.00    +0.210 HD
ENDBRANCH  26  35
BRANCH  29  37
ATOM     37  C   UNL     1      13.457   3.108   3.703  0.00  0.00    +0.190 C 
BRANCH  37  38
ATOM     38  O   UNL     1      13.907   3.232   2.353  0.00  0.00    -0.392 OA
ATOM     39  H   UNL     1      13.927   4.142   2.026  0.00  0.00    +0.210 HD
ENDBRANCH  37  38
ENDBRANCH  29  37
ENDBRANCH  24  25
ENDBRANCH   9  24
TORSDOF 12
