REMARK  Name = ZINC39778714
REMARK  7 active torsions:
REMARK  status: ('A' for Active; 'I' for Inactive)
REMARK    1  A    between atoms: C_1  and  C_2
REMARK    2  A    between atoms: C_7  and  N_8
REMARK    3  A    between atoms: C_9  and  S_20
REMARK    4  A    between atoms: S_20  and  C_21
REMARK    5  A    between atoms: C_21  and  C_23
REMARK    6  A    between atoms: C_21  and  C_24
REMARK    7  A    between atoms: C_24  and  C_26
REMARK                            x       y       z     vdW  Elec       q    Type
REMARK                         _______ _______ _______ _____ _____    ______ ____
ROOT
ATOM      1  N   UNL     1      -0.136  -0.235   2.736  0.00  0.00    -0.244 N 
ATOM      2  C   UNL     1      -1.232   0.334   3.538  0.00  0.00    +0.241 C 
ATOM      3  N   UNL     1      -0.586   1.413   4.305  0.00  0.00    -0.259 N 
ATOM      4  N   UNL     1       0.762   1.407   3.927  0.00  0.00    -0.283 N 
ATOM      5  C   UNL     1       1.005   0.484   3.060  0.00  0.00    +0.183 C 
ATOM      6  N   UNL     1       2.258   0.242   2.512  0.00  0.00    -0.299 N 
ATOM      7  C   UNL     1       2.402  -0.194   1.114  0.00  0.00    +0.136 C 
ATOM      8  C   UNL     1       3.432   0.712   0.429  0.00  0.00    +0.179 C 
ATOM      9  O   UNL     1       4.628   0.741   1.212  0.00  0.00    -0.377 OA
ATOM     10  C   UNL     1       4.458   1.290   2.521  0.00  0.00    +0.179 C 
ATOM     11  C   UNL     1       3.481   0.419   3.311  0.00  0.00    +0.136 C 
ATOM     12  H   UNL     1      -1.010   2.009   4.943  0.00  0.00    +0.169 HD
ATOM     13  H   UNL     1       1.430   2.017   4.277  0.00  0.00    +0.187 HD
ENDROOT
BRANCH   1  20
ATOM     14  C   UNL     1       0.914  -2.761   3.520  0.00  0.00    +0.045 C 
ATOM     15  C   UNL     1       0.274  -2.547   2.173  0.00  0.00    -0.029 A 
ATOM     16  C   UNL     1       0.177  -3.595   1.279  0.00  0.00    +0.005 A 
ATOM     17  C   UNL     1      -0.411  -3.399   0.043  0.00  0.00    +0.000 A 
ATOM     18  C   UNL     1      -0.905  -2.154  -0.302  0.00  0.00    +0.002 A 
ATOM     19  C   UNL     1      -0.812  -1.102   0.587  0.00  0.00    +0.024 A 
ATOM     20  C   UNL     1      -0.226  -1.296   1.832  0.00  0.00    +0.042 A 
ENDBRANCH   1  20
BRANCH   2  21
ATOM     21  S   UNL     1      -2.529   1.003   2.460  0.00  0.00    -0.107 S 
BRANCH  21  22
ATOM     22  C   UNL     1      -1.795   2.515   1.777  0.00  0.00    +0.117 C 
ATOM     23  C   UNL     1      -0.771   2.144   0.702  0.00  0.00    +0.027 C 
BRANCH  22  24
ATOM     24  C   UNL     1      -2.878   3.367   1.167  0.00  0.00    +0.174 C 
ATOM     25  O   UNL     1      -3.906   2.854   0.775  0.00  0.00    -0.291 OA
BRANCH  24  26
ATOM     26  C   UNL     1      -2.696   4.762   1.051  0.00  0.00    +0.024 C 
ATOM     27  C   UNL     1      -3.586   5.681   0.525  0.00  0.00    +0.006 A 
ATOM     28  C   UNL     1      -4.880   5.556  -0.034  0.00  0.00    +0.010 A 
ATOM     29  C   UNL     1      -5.537   6.649  -0.481  0.00  0.00    +0.001 A 
ATOM     30  C   UNL     1      -4.986   7.939  -0.417  0.00  0.00    +0.002 A 
ATOM     31  C   UNL     1      -3.758   8.167   0.097  0.00  0.00    +0.026 A 
ATOM     32  C   UNL     1      -2.974   7.030   0.608  0.00  0.00    +0.043 A 
ATOM     33  N   UNL     1      -1.790   6.961   1.145  0.00  0.00    -0.380 N 
ATOM     34  C   UNL     1      -1.489   5.566   1.482  0.00  0.00    +0.152 C 
ATOM     35  H   UNL     1      -1.200   7.716   1.301  0.00  0.00    +0.160 HD
ENDBRANCH  24  26
ENDBRANCH  22  24
ENDBRANCH  21  22
ENDBRANCH   2  21
TORSDOF 5
