REMARK  Name = ZINC53067663
REMARK  5 active torsions:
REMARK  status: ('A' for Active; 'I' for Inactive)
REMARK    1  A    between atoms: C_1  and  C_2
REMARK    2  A    between atoms: C_10  and  C_11
REMARK    3  A    between atoms: N_13  and  C_14
REMARK    4  A    between atoms: C_14  and  C_19
REMARK    5  A    between atoms: C_19  and  O_20
REMARK                            x       y       z     vdW  Elec       q    Type
REMARK                         _______ _______ _______ _____ _____    ______ ____
ROOT
ATOM      1  C   UNL     1      -0.122  -0.200   2.541  0.00  0.00    +0.280 C 
ATOM      2  O   UNL     1      -0.162   0.963   2.898  0.00  0.00    -0.267 OA
ATOM      3  N   UNL     1      -0.013  -1.183   3.456  0.00  0.00    -0.301 N 
ATOM      4  H   UNL     1      -0.058  -2.111   3.179  0.00  0.00    +0.150 HD
ENDROOT
BRANCH   1  14
ATOM      5  C   UNL     1      -0.376   1.872   0.235  0.00  0.00    +0.048 C 
ATOM      6  C   UNL     1      -0.304   0.373   0.103  0.00  0.00    +0.008 A 
ATOM      7  C   UNL     1      -0.334  -0.404  -1.136  0.00  0.00    +0.025 A 
ATOM      8  C   UNL     1      -0.429  -0.072  -2.490  0.00  0.00    +0.032 A 
ATOM      9  C   UNL     1      -0.430  -1.064  -3.431  0.00  0.00    +0.042 A 
ATOM     10  C   UNL     1      -0.338  -2.397  -3.049  0.00  0.00    +0.023 A 
ATOM     11  C   UNL     1      -0.245  -2.743  -1.719  0.00  0.00    +0.048 A 
ATOM     12  C   UNL     1      -0.241  -1.752  -0.744  0.00  0.00    +0.136 A 
ATOM     13  O   UNL     1      -0.162  -1.780   0.601  0.00  0.00    -0.450 OA
ATOM     14  C   UNL     1      -0.194  -0.531   1.111  0.00  0.00    +0.193 A 
ATOM     15 CL   UNL     1      -0.548  -0.655  -5.114  0.00  0.00    -0.084 Cl
ENDBRANCH   1  14
BRANCH   3  16
ATOM     16  C   UNL     1       0.172  -0.850   4.871  0.00  0.00    +0.058 C 
ATOM     17  C   UNL     1       0.232  -2.138   5.728  0.00  0.00    +0.028 C 
ATOM     18  C   UNL     1      -1.264  -2.504   5.898  0.00  0.00    +0.002 C 
ATOM     19  C   UNL     1      -1.970  -1.143   6.066  0.00  0.00    +0.002 C 
ATOM     20  C   UNL     1      -1.057  -0.091   5.412  0.00  0.00    +0.028 C 
BRANCH  16  21
ATOM     21  C   UNL     1       1.442  -0.018   5.061  0.00  0.00    +0.181 C 
BRANCH  21  22
ATOM     22  O   UNL     1       2.556  -0.711   4.495  0.00  0.00    -0.393 OA
ATOM     23  H   UNL     1       3.396  -0.241   4.580  0.00  0.00    +0.209 HD
ENDBRANCH  21  22
ENDBRANCH  16  21
ENDBRANCH   3  16
TORSDOF 4
