REMARK  Name = ZINC21805349
REMARK  10 active torsions:
REMARK  status: ('A' for Active; 'I' for Inactive)
REMARK    1  A    between atoms: C_1  and  N_2
REMARK    2  A    between atoms: N_2  and  C_3
REMARK    3  A    between atoms: N_2  and  C_4
REMARK    4  A    between atoms: C_4  and  C_6
REMARK    5  A    between atoms: C_4  and  C_25
REMARK    6  A    between atoms: C_6  and  N_7
REMARK    7  A    between atoms: C_8  and  C_10
REMARK    8  A    between atoms: C_12  and  C_15
REMARK    9  A    between atoms: C_30  and  O_31
REMARK   10  A    between atoms: O_31  and  C_32
REMARK                            x       y       z     vdW  Elec       q    Type
REMARK                         _______ _______ _______ _____ _____    ______ ____
ROOT
ATOM      1  N   UNL     1     -11.393  -1.901   1.318  0.00  0.00    -0.311 N 
ATOM      2  C   UNL     1     -10.228  -2.307   1.860  0.00  0.00    +0.266 C 
ATOM      3  O   UNL     1      -9.977  -2.051   3.021  0.00  0.00    -0.268 OA
ATOM      4  H   UNL     1     -11.620  -2.132   0.267  0.00  0.00    +0.149 HD
ENDROOT
BRANCH   2   5
ATOM      5  C   UNL     1      -9.252  -3.066   1.040  0.00  0.00    +0.168 A 
ATOM      6  C   UNL     1      -7.993  -3.566   1.462  0.00  0.00    +0.086 A 
ATOM      7  C   UNL     1      -7.494  -4.176   0.345  0.00  0.00    +0.168 A 
ATOM      8  O   UNL     1      -8.422  -4.026  -0.616  0.00  0.00    -0.354 OA
ATOM      9  N   UNL     1      -9.384  -3.412  -0.217  0.00  0.00    -0.073 NA
BRANCH   7  10
ATOM     10  C   UNL     1      -6.194  -4.870   0.221  0.00  0.00    +0.020 A 
ATOM     11  C   UNL     1      -5.329  -4.945   1.314  0.00  0.00    +0.012 A 
ATOM     12  C   UNL     1      -4.121  -5.592   1.182  0.00  0.00    +0.004 A 
ATOM     13  C   UNL     1      -3.752  -6.170  -0.028  0.00  0.00    -0.044 A 
ATOM     14  C   UNL     1      -4.604  -6.103  -1.109  0.00  0.00    -0.044 A 
ATOM     15  C   UNL     1      -5.822  -5.453  -0.988  0.00  0.00    +0.015 A 
ATOM     16  C   UNL     1      -4.268  -6.715  -2.444  0.00  0.00    +0.035 C 
ATOM     17  C   UNL     1      -2.769  -6.992  -2.547  0.00  0.00    +0.005 C 
ATOM     18  C   UNL     1      -2.337  -7.779  -1.304  0.00  0.00    +0.005 C 
ATOM     19  C   UNL     1      -2.408  -6.849  -0.096  0.00  0.00    +0.035 C 
ENDBRANCH   7  10
ENDBRANCH   2   5
BRANCH   1  20
ATOM     20  C   UNL     1     -12.356  -1.151   2.128  0.00  0.00    +0.094 C 
BRANCH  20  21
ATOM     21  C   UNL     1     -13.465  -0.605   1.226  0.00  0.00    -0.017 C 
BRANCH  21  22
ATOM     22  C   UNL     1     -14.523   0.054   2.073  0.00  0.00    -0.018 A 
ATOM     23  C   UNL     1     -14.595   1.432   2.142  0.00  0.00    +0.005 A 
ATOM     24  C   UNL     1     -15.567   2.037   2.916  0.00  0.00    +0.000 A 
ATOM     25  C   UNL     1     -16.465   1.266   3.631  0.00  0.00    +0.004 A 
ATOM     26  C   UNL     1     -16.394  -0.113   3.570  0.00  0.00    +0.046 A 
ATOM     27  C   UNL     1     -15.422  -0.722   2.790  0.00  0.00    +0.122 A 
BRANCH  27  28
ATOM     28  O   UNL     1     -15.351  -2.078   2.728  0.00  0.00    -0.495 OA
ATOM     29  C   UNL     1     -16.308  -2.814   3.491  0.00  0.00    +0.277 C 
ENDBRANCH  27  28
ENDBRANCH  21  22
BRANCH  21  31
ATOM     30  C   UNL     1     -11.879   1.205   0.958  0.00  0.00    -0.096 C 
ATOM     31  N   UNL     1     -12.899   0.381   0.296  0.00  0.00    +0.382 N 
ATOM     32  C   UNL     1     -12.350  -0.277  -0.898  0.00  0.00    -0.096 C 
ATOM     33  H   UNL     1     -13.713   1.046  -0.029  0.00  0.00    -0.082 HD
ENDBRANCH  21  31
ENDBRANCH  20  21
ENDBRANCH   1  20
TORSDOF 7
