REMARK  Name = ZINC19586994
REMARK  9 active torsions:
REMARK  status: ('A' for Active; 'I' for Inactive)
REMARK    1  A    between atoms: C_1  and  N_2
REMARK    2  A    between atoms: N_7  and  C_10
REMARK    3  A    between atoms: N_11  and  C_15
REMARK    4  A    between atoms: C_15  and  C_16
REMARK    5  A    between atoms: N_18  and  C_19
REMARK    6  A    between atoms: N_18  and  C_28
REMARK    7  A    between atoms: C_19  and  C_20
REMARK    8  A    between atoms: C_23  and  O_26
REMARK    9  A    between atoms: O_26  and  C_27
REMARK                            x       y       z     vdW  Elec       q    Type
REMARK                         _______ _______ _______ _____ _____    ______ ____
ROOT
ATOM      1  C   UNL     1       0.050   1.083  -0.018  0.00  0.00    +0.234 C 
ATOM      2  O   UNL     1       0.070  -0.116   0.162  0.00  0.00    -0.274 OA
ATOM      3  N   UNL     1      -1.124   1.714  -0.217  0.00  0.00    -0.293 N 
ENDROOT
BRANCH   3   4
ATOM      4  C   UNL     1      -1.141   3.140  -0.555  0.00  0.00    +0.076 C 
ATOM      5  C   UNL     1      -0.401   3.377  -1.887  0.00  0.00    +0.022 C 
ATOM      6  C   UNL     1       0.334   4.725  -1.679  0.00  0.00    +0.002 C 
ATOM      7  C   UNL     1       0.788   4.642  -0.200  0.00  0.00    +0.002 C 
ATOM      8  C   UNL     1      -0.386   3.944   0.518  0.00  0.00    +0.022 C 
ENDBRANCH   3   4
BRANCH   1   9
ATOM      9  C   UNL     1       1.337   1.866  -0.026  0.00  0.00    +0.207 C 
BRANCH   9  18
ATOM     10  C   UNL     1       6.296  -1.489  -1.221  0.00  0.00    +0.135 C 
ATOM     11  N   UNL     1       5.227  -0.511  -1.435  0.00  0.00    -0.267 N 
ATOM     12  C   UNL     1       4.654   0.406  -0.447  0.00  0.00    +0.205 C 
ATOM     13  C   UNL     1       3.173   0.334  -0.999  0.00  0.00    +0.208 C 
ATOM     14  N   UNL     1       3.390   0.409  -2.382  0.00  0.00    -0.266 N 
ATOM     15  C   UNL     1       4.555  -0.261  -2.597  0.00  0.00    +0.307 C 
ATOM     16  O   UNL     1       4.945  -0.609  -3.695  0.00  0.00    -0.252 OA
ATOM     17  C   UNL     1       2.560   1.082  -3.384  0.00  0.00    +0.135 C 
ATOM     18  N   UNL     1       2.471   0.942   0.056  0.00  0.00    -0.255 N 
ATOM     19  C   UNL     1       3.103   0.471   1.184  0.00  0.00    +0.306 C 
ATOM     20  O   UNL     1       2.628   0.525   2.302  0.00  0.00    -0.253 OA
ATOM     21  N   UNL     1       4.325  -0.066   0.900  0.00  0.00    -0.277 N 
ATOM     22  H   UNL     1       5.028  -0.716   1.442  0.00  0.00    +0.152 HD
ENDBRANCH   9  18
ENDBRANCH   1   9
BRANCH   3  23
ATOM     23  C   UNL     1      -2.383   0.975  -0.097  0.00  0.00    +0.143 C 
BRANCH  23  24
ATOM     24  C   UNL     1      -2.874   1.048   1.327  0.00  0.00    -0.030 A 
ATOM     25  C   UNL     1      -2.492   0.081   2.238  0.00  0.00    +0.009 A 
ATOM     26  C   UNL     1      -2.936   0.149   3.545  0.00  0.00    +0.046 A 
ATOM     27  C   UNL     1      -3.774   1.182   3.939  0.00  0.00    +0.120 A 
ATOM     28  C   UNL     1      -4.160   2.148   3.021  0.00  0.00    +0.046 A 
ATOM     29  C   UNL     1      -3.709   2.079   1.717  0.00  0.00    +0.009 A 
BRANCH  27  30
ATOM     30  O   UNL     1      -4.216   1.248   5.222  0.00  0.00    -0.495 OA
ATOM     31  C   UNL     1      -3.779   0.219   6.113  0.00  0.00    +0.277 C 
ENDBRANCH  27  30
ENDBRANCH  23  24
ENDBRANCH   3  23
TORSDOF 6
