REMARK  Name = ZINC15946849
REMARK  10 active torsions:
REMARK  status: ('A' for Active; 'I' for Inactive)
REMARK    1  A    between atoms: C_1  and  C_2
REMARK    2  A    between atoms: C_2  and  O_3
REMARK    3  A    between atoms: O_3  and  C_4
REMARK    4  A    between atoms: C_7  and  N_10
REMARK    5  A    between atoms: C_11  and  C_13
REMARK    6  A    between atoms: C_17  and  N_18
REMARK    7  A    between atoms: C_19  and  C_21
REMARK    8  A    between atoms: C_21  and  N_68
REMARK    9  A    between atoms: C_26  and  C_28
REMARK   10  A    between atoms: C_30  and  C_34
REMARK                            x       y       z     vdW  Elec       q    Type
REMARK                         _______ _______ _______ _____ _____    ______ ____
ROOT
ATOM      1  C   UNL     1      -1.466   0.191   7.882  0.00  0.00    +0.069 A 
ATOM      2  C   UNL     1      -0.331  -0.191   8.704  0.00  0.00    -0.023 A 
ATOM      3  C   UNL     1       0.820  -0.406   8.031  0.00  0.00    -0.004 A 
ATOM      4  S   UNL     1       0.412  -0.114   6.333  0.00  0.00    -0.077 S 
ATOM      5  C   UNL     1      -1.261   0.296   6.513  0.00  0.00    +0.084 A 
ATOM      6  C   UNL     1       2.143  -0.808   8.608  0.00  0.00    +0.046 C 
ATOM      7  C   UNL     1       1.913  -1.306  10.042  0.00  0.00    -0.009 C 
ATOM      8  C   UNL     1       1.027  -0.298  10.779  0.00  0.00    +0.008 C 
ATOM      9  C   UNL     1      -0.395  -0.347  10.218  0.00  0.00    +0.037 C 
ATOM     10  C   UNL     1       3.256  -1.434  10.764  0.00  0.00    +0.008 C 
ENDROOT
BRANCH   1  12
ATOM     11  N   UNL     1      -3.100   1.701   8.879  0.00  0.00    -0.281 N 
ATOM     12  C   UNL     1      -2.780   0.455   8.476  0.00  0.00    +0.251 C 
ATOM     13  O   UNL     1      -3.583  -0.451   8.606  0.00  0.00    -0.270 OA
ATOM     14  H   UNL     1      -2.439   2.409   8.835  0.00  0.00    +0.155 HD
BRANCH  11  18
ATOM     15  C   UNL     1      -6.930   2.511  10.313  0.00  0.00    +0.121 A 
ATOM     16  C   UNL     1      -6.338   1.283  10.573  0.00  0.00    +0.047 A 
ATOM     17  C   UNL     1      -5.069   1.014  10.098  0.00  0.00    +0.027 A 
ATOM     18  C   UNL     1      -4.387   1.973   9.360  0.00  0.00    +0.034 A 
ATOM     19  C   UNL     1      -4.978   3.203   9.106  0.00  0.00    +0.027 A 
ATOM     20  C   UNL     1      -6.249   3.469   9.577  0.00  0.00    +0.047 A 
BRANCH  15  21
ATOM     21  O   UNL     1      -8.179   2.775  10.781  0.00  0.00    -0.492 OA
BRANCH  21  23
ATOM     22  C   UNL     1     -10.129   4.171  11.082  0.00  0.00    +0.048 C 
ATOM     23  C   UNL     1      -8.728   4.058  10.477  0.00  0.00    +0.225 C 
ENDBRANCH  21  23
ENDBRANCH  15  21
ENDBRANCH  11  18
ENDBRANCH   1  12
BRANCH   5  24
ATOM     24  N   UNL     1      -2.175   0.640   5.529  0.00  0.00    -0.281 N 
ATOM     25  C   UNL     1      -1.789   0.690   4.239  0.00  0.00    +0.201 C 
ATOM     26  O   UNL     1      -0.642   0.435   3.939  0.00  0.00    -0.278 OA
ATOM     27  H   UNL     1      -3.093   0.844   5.769  0.00  0.00    +0.155 HD
BRANCH  25  28
ATOM     28  C   UNL     1      -2.782   1.063   3.169  0.00  0.00    +0.019 C 
BRANCH  28  35
ATOM     29  C   UNL     1      -1.716  -0.461   1.619  0.00  0.00    -0.078 C 
ATOM     30  C   UNL     1      -1.203  -0.602   0.184  0.00  0.00    -0.019 C 
ATOM     31  C   UNL     1      -0.037   0.366  -0.034  0.00  0.00    -0.003 C 
ATOM     32  C   UNL     1      -0.508   1.793   0.258  0.00  0.00    -0.016 C 
ATOM     33  C   UNL     1      -1.042   1.866   1.690  0.00  0.00    -0.071 C 
ATOM     34  C   UNL     1      -1.532   3.286   1.980  0.00  0.00    -0.013 C 
ATOM     35  N   UNL     1      -2.177   0.929   1.828  0.00  0.00    +0.387 N 
ATOM     36  H   UNL     1      -2.884   1.156   1.119  0.00  0.00    -0.081 HD
ENDBRANCH  28  35
ENDBRANCH  25  28
ENDBRANCH   5  24
TORSDOF 7
