REMARK  Name = ZINC04671945
REMARK  8 active torsions:
REMARK  status: ('A' for Active; 'I' for Inactive)
REMARK    1  A    between atoms: C_1  and  C_2
REMARK    2  A    between atoms: C_2  and  O_3
REMARK    3  A    between atoms: O_3  and  C_4
REMARK    4  A    between atoms: C_9  and  N_62
REMARK    5  A    between atoms: C_12  and  N_62
REMARK    6  A    between atoms: C_14  and  C_31
REMARK    7  A    between atoms: C_15  and  C_30
REMARK    8  A    between atoms: N_18  and  C_19
REMARK                            x       y       z     vdW  Elec       q    Type
REMARK                         _______ _______ _______ _____ _____    ______ ____
ROOT
ATOM      1  C   UNL     1       4.538  -0.242   1.777  0.00  0.00    +0.047 C 
ATOM      2  C   UNL     1       5.347   0.249   2.955  0.00  0.00    -0.062 C 
ATOM      3  C   UNL     1       6.224  -0.705   3.250  0.00  0.00    +0.010 C 
ATOM      4  C   UNL     1       6.058  -1.834   2.329  0.00  0.00    +0.242 C 
ATOM      5  O   UNL     1       6.718  -2.855   2.352  0.00  0.00    -0.270 OA
ATOM      6  N   UNL     1       5.067  -1.574   1.456  0.00  0.00    -0.301 N 
ATOM      7  C   UNL     1       7.237  -0.637   4.364  0.00  0.00    +0.049 C 
ATOM      8  C   UNL     1       5.190   1.571   3.662  0.00  0.00    +0.039 C 
ENDROOT
BRANCH   6   9
ATOM      9  C   UNL     1       4.602  -2.457   0.383  0.00  0.00    +0.105 C 
ATOM     10  C   UNL     1       4.107  -3.769   0.989  0.00  0.00    +0.027 C 
ATOM     11  C   UNL     1       3.830  -4.754  -0.152  0.00  0.00    +0.007 C 
ATOM     12  C   UNL     1       5.166  -5.169  -0.765  0.00  0.00    +0.035 C 
ATOM     13  C   UNL     1       5.991  -3.955  -1.108  0.00  0.00    -0.042 A 
ATOM     14  C   UNL     1       5.734  -2.711  -0.577  0.00  0.00    -0.024 A 
ATOM     15  C   UNL     1       6.537  -1.634  -0.930  0.00  0.00    +0.006 A 
ATOM     16  C   UNL     1       7.587  -1.800  -1.809  0.00  0.00    +0.000 A 
ATOM     17  C   UNL     1       7.843  -3.049  -2.344  0.00  0.00    +0.000 A 
ATOM     18  C   UNL     1       7.047  -4.121  -1.994  0.00  0.00    +0.004 A 
ENDBRANCH   6   9
BRANCH   1  19
ATOM     19  N   UNL     1       3.115  -0.338   2.151  0.00  0.00    +0.396 N 
ATOM     20  H   UNL     1       2.881  -1.319   2.345  0.00  0.00    -0.082 HD
ATOM     21  H   UNL     1       2.946   0.227   2.991  0.00  0.00    -0.082 HD
BRANCH  19  27
ATOM     22  C   UNL     1      -1.187   2.136   0.019  0.00  0.00    +0.403 C 
ATOM     23  O   UNL     1      -2.237   1.526   0.021  0.00  0.00    -0.226 OA
ATOM     24  N   UNL     1      -0.018   1.465   0.010  0.00  0.00    -0.268 N 
ATOM     25  C   UNL     1       1.261   2.189   0.002  0.00  0.00    +0.109 C 
ATOM     26  C   UNL     1       2.125   1.677   1.158  0.00  0.00    +0.003 C 
ATOM     27  C   UNL     1       2.263   0.156   1.052  0.00  0.00    -0.066 C 
ATOM     28  C   UNL     1       0.880  -0.492   1.159  0.00  0.00    +0.003 C 
ATOM     29  C   UNL     1       0.002  -0.004   0.002  0.00  0.00    +0.109 C 
BRANCH  22  30
ATOM     30  O   UNL     1      -1.190   3.482   0.027  0.00  0.00    -0.451 OA
BRANCH  30  32
ATOM     31  C   UNL     1      -2.289   5.655   0.044  0.00  0.00    +0.048 C 
ATOM     32  C   UNL     1      -2.486   4.138   0.036  0.00  0.00    +0.230 C 
ENDBRANCH  30  32
ENDBRANCH  22  30
ENDBRANCH  19  27
ENDBRANCH   1  19
TORSDOF 5
