REMARK  Name = ZINC16809417
REMARK  8 active torsions:
REMARK  status: ('A' for Active; 'I' for Inactive)
REMARK    1  A    between atoms: C_1  and  C_2
REMARK    2  A    between atoms: C_5  and  C_8
REMARK    3  A    between atoms: C_8  and  C_9
REMARK    4  A    between atoms: C_10  and  C_35
REMARK    5  A    between atoms: C_23  and  C_27
REMARK    6  A    between atoms: C_24  and  C_26
REMARK    7  A    between atoms: C_27  and  C_28
REMARK    8  A    between atoms: C_31  and  C_34
REMARK                            x       y       z     vdW  Elec       q    Type
REMARK                         _______ _______ _______ _____ _____    ______ ____
ROOT
ATOM      1  C   UNL     1      -0.536   1.355   2.026  0.00  0.00    +0.042 A 
ATOM      2  C   UNL     1      -1.580   0.672   2.577  0.00  0.00    +0.050 A 
ATOM      3  N   UNL     1      -2.390   1.276   3.444  0.00  0.00    -0.221 NA
ATOM      4  C   UNL     1      -2.216   2.537   3.782  0.00  0.00    +0.202 A 
ATOM      5  N   UNL     1      -1.195   3.270   3.261  0.00  0.00    -0.295 N 
ATOM      6  H   UNL     1      -1.081   4.198   3.521  0.00  0.00    +0.172 HD
ATOM      7  C   UNL     1      -0.342   2.703   2.382  0.00  0.00    +0.256 A 
ATOM      8  O   UNL     1       0.578   3.346   1.904  0.00  0.00    -0.267 OA
ATOM      9  N   UNL     1      -3.079   3.122   4.677  0.00  0.00    -0.255 N 
ATOM     10  C   UNL     1      -4.114   2.393   5.210  0.00  0.00    +0.202 A 
ATOM     11  N   UNL     1      -4.962   2.983   6.095  0.00  0.00    -0.295 N 
ATOM     12  H   UNL     1      -4.834   3.912   6.345  0.00  0.00    +0.172 HD
ATOM     13  C   UNL     1      -5.981   2.273   6.623  0.00  0.00    +0.256 A 
ATOM     14  O   UNL     1      -6.751   2.788   7.418  0.00  0.00    -0.267 OA
ATOM     15  C   UNL     1      -6.139   0.929   6.239  0.00  0.00    +0.042 A 
ATOM     16  C   UNL     1      -5.258   0.391   5.348  0.00  0.00    +0.050 A 
ATOM     17  N   UNL     1      -4.271   1.135   4.852  0.00  0.00    -0.221 NA
ATOM     18  C   UNL     1      -5.404  -1.047   4.920  0.00  0.00    +0.066 C 
ATOM     19  C   UNL     1      -1.814  -0.770   2.209  0.00  0.00    +0.066 C 
ATOM     20  H   UNL     1      -2.958   4.050   4.931  0.00  0.00    +0.158 HD
ENDROOT
BRANCH   1  21
ATOM     21  C   UNL     1       0.391   0.680   1.048  0.00  0.00    +0.077 C 
BRANCH  21  26
ATOM     22  C   UNL     1       5.053  -1.276   3.846  0.00  0.00    +0.044 C 
ATOM     23  C   UNL     1       3.837  -0.766   3.116  0.00  0.00    -0.050 A 
ATOM     24  C   UNL     1       2.713  -1.563   3.005  0.00  0.00    +0.003 A 
ATOM     25  C   UNL     1       1.597  -1.095   2.335  0.00  0.00    +0.004 A 
ATOM     26  C   UNL     1       1.606   0.170   1.778  0.00  0.00    -0.043 A 
ATOM     27  C   UNL     1       2.732   0.965   1.885  0.00  0.00    +0.004 A 
ATOM     28  C   UNL     1       3.846   0.498   2.558  0.00  0.00    +0.003 A 
ENDBRANCH  21  26
ENDBRANCH   1  21
BRANCH  15  29
ATOM     29  C   UNL     1      -7.263   0.098   6.803  0.00  0.00    +0.077 C 
BRANCH  29  30
ATOM     30  C   UNL     1      -8.505   0.305   5.975  0.00  0.00    -0.043 A 
ATOM     31  C   UNL     1      -9.353   1.360   6.253  0.00  0.00    +0.004 A 
ATOM     32  C   UNL     1     -10.490   1.553   5.490  0.00  0.00    +0.003 A 
ATOM     33  C   UNL     1     -10.784   0.684   4.456  0.00  0.00    -0.050 A 
ATOM     34  C   UNL     1      -9.938  -0.374   4.181  0.00  0.00    +0.003 A 
ATOM     35  C   UNL     1      -8.799  -0.564   4.940  0.00  0.00    +0.004 A 
ATOM     36  C   UNL     1     -12.025   0.891   3.627  0.00  0.00    +0.044 C 
ENDBRANCH  29  30
ENDBRANCH  15  29
TORSDOF 4
