REMARK  Name = ZINC01939556
REMARK  12 active torsions:
REMARK  status: ('A' for Active; 'I' for Inactive)
REMARK    1  A    between atoms: C_1  and  C_2
REMARK    2  A    between atoms: C_2  and  C_3
REMARK    3  A    between atoms: C_3  and  N_61
REMARK    4  A    between atoms: C_4  and  C_5
REMARK    5  A    between atoms: C_4  and  N_61
REMARK    6  A    between atoms: C_5  and  C_6
REMARK    7  A    between atoms: C_7  and  C_8
REMARK    8  A    between atoms: C_7  and  N_61
REMARK    9  A    between atoms: C_9  and  O_34
REMARK   10  A    between atoms: C_15  and  C_30
REMARK   11  A    between atoms: C_16  and  O_19
REMARK   12  A    between atoms: O_19  and  C_20
REMARK                            x       y       z     vdW  Elec       q    Type
REMARK                         _______ _______ _______ _____ _____    ______ ____
ROOT
ATOM      1  C   UNL     1       7.085   3.588  -0.248  0.00  0.00    +0.020 A 
ATOM      2  C   UNL     1       7.812   3.880  -1.391  0.00  0.00    +0.122 A 
ATOM      3  C   UNL     1       7.498   3.271  -2.604  0.00  0.00    +0.046 A 
ATOM      4  C   UNL     1       6.469   2.377  -2.683  0.00  0.00    +0.019 A 
ATOM      5  C   UNL     1       5.728   2.072  -1.541  0.00  0.00    +0.068 A 
ATOM      6  C   UNL     1       6.037   2.682  -0.312  0.00  0.00    +0.144 A 
ATOM      7  O   UNL     1       5.314   2.379   0.785  0.00  0.00    -0.447 OA
ATOM      8  C   UNL     1       4.296   1.509   0.757  0.00  0.00    +0.254 A 
ATOM      9  C   UNL     1       3.915   0.868  -0.366  0.00  0.00    +0.222 A 
ATOM     10  C   UNL     1       4.614   1.109  -1.583  0.00  0.00    +0.235 A 
ATOM     11  O   UNL     1       4.301   0.544  -2.618  0.00  0.00    -0.283 OA
ENDROOT
BRANCH   8  12
ATOM     12  C   UNL     1       3.546   1.234   2.035  0.00  0.00    +0.454 C 
ATOM     13  F   UNL     1       4.147   0.166   2.709  0.00  0.00    -0.163 F 
ATOM     14  F   UNL     1       3.575   2.373   2.847  0.00  0.00    -0.163 F 
ATOM     15  F   UNL     1       2.218   0.909   1.735  0.00  0.00    -0.163 F 
ENDBRANCH   8  12
BRANCH   2  16
ATOM     16  O   UNL     1       8.837   4.766  -1.328  0.00  0.00    -0.506 OA
ATOM     17  H   UNL     1       9.693   4.365  -1.123  0.00  0.00    +0.292 HD
ENDBRANCH   2  16
BRANCH   1  18
ATOM     18  C   UNL     1       7.433   4.252   1.059  0.00  0.00    -0.036 C 
BRANCH  18  19
ATOM     19  N   UNL     1       8.443   3.430   1.758  0.00  0.00    +0.383 N 
ATOM     20  H   UNL     1       9.221   3.239   1.115  0.00  0.00    -0.081 HD
BRANCH  19  21
ATOM     21  C   UNL     1       8.961   4.159   2.935  0.00  0.00    -0.079 C 
BRANCH  21  23
ATOM     22  C   UNL     1      10.612   5.884   3.669  0.00  0.00    +0.002 C 
ATOM     23  C   UNL     1       9.959   5.215   2.457  0.00  0.00    -0.022 C 
ENDBRANCH  21  23
ENDBRANCH  19  21
BRANCH  19  24
ATOM     24  C   UNL     1       7.844   2.147   2.181  0.00  0.00    -0.079 C 
BRANCH  24  25
ATOM     25  C   UNL     1       8.968   1.187   2.578  0.00  0.00    -0.022 C 
ATOM     26  C   UNL     1       8.366  -0.151   3.012  0.00  0.00    +0.002 C 
ENDBRANCH  24  25
ENDBRANCH  19  24
ENDBRANCH  18  19
ENDBRANCH   1  18
BRANCH   9  27
ATOM     27  O   UNL     1       2.873  -0.007  -0.335  0.00  0.00    -0.448 OA
BRANCH  27  28
ATOM     28  C   UNL     1       1.627   0.477  -0.574  0.00  0.00    +0.129 A 
ATOM     29  C   UNL     1       1.454   1.840  -0.840  0.00  0.00    +0.047 A 
ATOM     30  C   UNL     1       0.219   2.354  -1.083  0.00  0.00    +0.012 A 
ATOM     31  C   UNL     1      -0.903   1.508  -1.067  0.00  0.00    -0.018 A 
ATOM     32  C   UNL     1      -2.194   2.006  -1.314  0.00  0.00    +0.008 A 
ATOM     33  C   UNL     1      -3.259   1.159  -1.292  0.00  0.00    +0.001 A 
ATOM     34  C   UNL     1      -3.090  -0.199  -1.028  0.00  0.00    +0.001 A 
ATOM     35  C   UNL     1      -1.856  -0.718  -0.785  0.00  0.00    +0.008 A 
ATOM     36  C   UNL     1      -0.731   0.126  -0.804  0.00  0.00    -0.014 A 
ATOM     37  C   UNL     1       0.557  -0.373  -0.552  0.00  0.00    +0.054 A 
ENDBRANCH  27  28
ENDBRANCH   9  27
TORSDOF 10
