REMARK  Name = ZINC02408696
REMARK  7 active torsions:
REMARK  status: ('A' for Active; 'I' for Inactive)
REMARK    1  A    between atoms: C_4  and  C_7
REMARK    2  A    between atoms: C_7  and  O_8
REMARK    3  A    between atoms: O_8  and  C_9
REMARK    4  A    between atoms: C_9  and  C_11
REMARK    5  A    between atoms: C_11  and  N_12
REMARK    6  A    between atoms: C_34  and  N_38
REMARK    7  A    between atoms: C_35  and  C_36
REMARK                            x       y       z     vdW  Elec       q    Type
REMARK                         _______ _______ _______ _____ _____    ______ ____
ROOT
ATOM      1  N   UNL     1       4.483   6.826   0.199  0.00  0.00    -0.259 N 
ATOM      2  C   UNL     1       4.118   6.879  -1.134  0.00  0.00    +0.042 A 
ATOM      3  C   UNL     1       4.771   7.486  -2.208  0.00  0.00    +0.024 A 
ATOM      4  C   UNL     1       4.174   7.381  -3.455  0.00  0.00    +0.002 A 
ATOM      5  C   UNL     1       2.984   6.707  -3.641  0.00  0.00    +0.000 A 
ATOM      6  C   UNL     1       2.324   6.098  -2.579  0.00  0.00    +0.007 A 
ATOM      7  C   UNL     1       2.911   6.200  -1.337  0.00  0.00    -0.001 A 
ATOM      8  C   UNL     1       2.491   5.681   0.004  0.00  0.00    +0.148 C 
ATOM      9  C   UNL     1       3.588   6.141   0.942  0.00  0.00    +0.241 C 
ATOM     10  O   UNL     1       3.651   5.934   2.135  0.00  0.00    -0.274 OA
ATOM     11  C   UNL     1       2.416   4.180  -0.002  0.00  0.00    +0.104 A 
ATOM     12  C   UNL     1       1.206   3.550   0.010  0.00  0.00    +0.152 A 
ATOM     13  C   UNL     1       1.188   2.079   0.002  0.00  0.00    +0.060 A 
ATOM     14  C   UNL     1      -0.017   1.373   0.010  0.00  0.00    +0.015 A 
ATOM     15  C   UNL     1       0.002  -0.004   0.002  0.00  0.00    +0.001 A 
ATOM     16  C   UNL     1       1.209  -0.688  -0.013  0.00  0.00    +0.004 A 
ATOM     17  C   UNL     1       2.405  -0.003  -0.022  0.00  0.00    +0.047 A 
ATOM     18  C   UNL     1       2.409   1.386  -0.014  0.00  0.00    +0.143 A 
ATOM     19  O   UNL     1       3.571   2.075  -0.023  0.00  0.00    -0.422 OA
ATOM     20  C   UNL     1       3.596   3.417  -0.018  0.00  0.00    +0.346 A 
ATOM     21  O   UNL     1       4.672   3.989  -0.029  0.00  0.00    -0.245 OA
ATOM     22  O   UNL     1       0.052   4.243   0.028  0.00  0.00    -0.440 OA
ATOM     23  C   UNL     1       0.043   5.533   0.410  0.00  0.00    +0.199 C 
ATOM     24  C   UNL     1       1.177   6.277   0.420  0.00  0.00    +0.110 C 
ENDROOT
BRANCH  23  25
ATOM     25  N   UNL     1      -1.140   6.109   0.798  0.00  0.00    -0.328 N 
ATOM     26  H   UNL     1      -1.958   5.588   0.794  0.00  0.00    +0.145 HD
ATOM     27  H   UNL     1      -1.159   7.039   1.075  0.00  0.00    +0.145 HD
ENDBRANCH  23  25
BRANCH  24  28
ATOM     28  C   UNL     1       1.121   7.646   0.834  0.00  0.00    +0.102 C 
ATOM     29  N   UNL     1       1.076   8.733   1.162  0.00  0.00    -0.191 NA
ENDBRANCH  24  28
BRANCH   1  30
ATOM     30  C   UNL     1       5.697   7.441   0.741  0.00  0.00    +0.234 C 
BRANCH  30  31
ATOM     31  C   UNL     1       5.395   8.854   1.171  0.00  0.00    +0.325 C 
ATOM     32  O   UNL     1       4.281   9.300   1.039  0.00  0.00    -0.249 OA
BRANCH  31  33
ATOM     33  O   UNL     1       6.365   9.615   1.702  0.00  0.00    -0.459 OA
BRANCH  33  34
ATOM     34  C   UNL     1       6.003  10.965   2.094  0.00  0.00    +0.267 C 
BRANCH  34  38
ATOM     35  C   UNL     1       9.425  12.946   3.711  0.00  0.00    +0.000 A 
ATOM     36  C   UNL     1       9.160  13.019   2.356  0.00  0.00    +0.000 A 
ATOM     37  C   UNL     1       8.052  12.379   1.833  0.00  0.00    +0.007 A 
ATOM     38  C   UNL     1       7.210  11.664   2.664  0.00  0.00    -0.010 A 
ATOM     39  C   UNL     1       7.473  11.594   4.020  0.00  0.00    +0.007 A 
ATOM     40  C   UNL     1       8.582  12.232   4.542  0.00  0.00    +0.000 A 
ENDBRANCH  34  38
ENDBRANCH  33  34
ENDBRANCH  31  33
ENDBRANCH  30  31
ENDBRANCH   1  30
TORSDOF 7
