REMARK  Name = ZINC60300759
REMARK  7 active torsions:
REMARK  status: ('A' for Active; 'I' for Inactive)
REMARK    1  A    between atoms: C_7  and  C_25
REMARK    2  A    between atoms: C_8  and  C_10
REMARK    3  A    between atoms: N_12  and  C_13
REMARK    4  A    between atoms: C_13  and  C_14
REMARK    5  A    between atoms: C_14  and  N_19
REMARK    6  A    between atoms: C_25  and  S_26
REMARK    7  A    between atoms: S_26  and  C_27
REMARK                            x       y       z     vdW  Elec       q    Type
REMARK                         _______ _______ _______ _____ _____    ______ ____
ROOT
ATOM      1  C   UNL     1       0.088   1.462   0.498  0.00  0.00    +0.001 A 
ATOM      2  C   UNL     1       1.288   2.159   0.525  0.00  0.00    +0.004 A 
ATOM      3  C   UNL     1       2.492   1.493   0.447  0.00  0.00    +0.047 A 
ATOM      4  C   UNL     1       2.510   0.107   0.339  0.00  0.00    +0.136 A 
ATOM      5  C   UNL     1       1.291  -0.595   0.312  0.00  0.00    +0.025 A 
ATOM      6  C   UNL     1       0.081   0.100   0.393  0.00  0.00    +0.012 A 
ATOM      7  C   UNL     1       1.649  -2.008   0.195  0.00  0.00    +0.021 A 
ATOM      8  C   UNL     1       3.006  -2.050   0.161  0.00  0.00    +0.194 A 
ATOM      9  O   UNL     1       3.503  -0.798   0.247  0.00  0.00    -0.450 OA
ENDROOT
BRANCH   8  10
ATOM     10  C   UNL     1       3.812  -3.274   0.049  0.00  0.00    +0.280 C 
ATOM     11  O   UNL     1       3.264  -4.358  -0.022  0.00  0.00    -0.267 OA
ATOM     12  N   UNL     1       5.157  -3.196   0.025  0.00  0.00    -0.310 N 
ATOM     13  H   UNL     1       5.594  -2.331   0.082  0.00  0.00    +0.149 HD
BRANCH  12  14
ATOM     14  C   UNL     1       5.960  -4.416  -0.087  0.00  0.00    +0.092 C 
BRANCH  14  15
ATOM     15  C   UNL     1       7.439  -4.044  -0.216  0.00  0.00    -0.050 C 
ATOM     16  C   UNL     1       7.664  -3.211  -1.494  0.00  0.00    -0.010 C 
ATOM     17  C   UNL     1       9.038  -3.691  -2.023  0.00  0.00    -0.001 C 
ATOM     18  C   UNL     1       9.006  -5.211  -1.727  0.00  0.00    -0.001 C 
ATOM     19  C   UNL     1       8.291  -5.316  -0.364  0.00  0.00    -0.010 C 
BRANCH  15  20
ATOM     20  N   UNL     1       7.870  -3.283   0.964  0.00  0.00    +0.386 N 
ATOM     21  C   UNL     1       9.229  -2.783   0.743  0.00  0.00    -0.067 C 
ATOM     22  C   UNL     1       9.558  -1.695   1.772  0.00  0.00    +0.050 C 
ATOM     23  S   UNL     1       9.492  -2.440   3.431  0.00  0.00    -0.164 S 
ATOM     24  C   UNL     1       7.889  -3.302   3.418  0.00  0.00    +0.050 C 
ATOM     25  C   UNL     1       7.810  -4.150   2.143  0.00  0.00    -0.067 C 
ATOM     26  H   UNL     1       7.248  -2.499   1.098  0.00  0.00    -0.081 HD
ENDBRANCH  15  20
ENDBRANCH  14  15
ENDBRANCH  12  14
ENDBRANCH   8  10
BRANCH   7  27
ATOM     27  C   UNL     1       0.704  -3.179   0.126  0.00  0.00    +0.117 C 
BRANCH  27  28
ATOM     28  S   UNL     1       0.287  -3.518  -1.607  0.00  0.00    -0.081 S 
BRANCH  28  29
ATOM     29  C   UNL     1      -0.809  -4.895  -1.520  0.00  0.00    +0.188 A 
ATOM     30  N   UNL     1      -1.121  -5.400  -0.335  0.00  0.00    -0.230 NA
ATOM     31  C   UNL     1      -1.941  -6.433  -0.235  0.00  0.00    +0.115 A 
ATOM     32  C   UNL     1      -2.475  -6.986  -1.389  0.00  0.00    +0.039 A 
ATOM     33  C   UNL     1      -2.128  -6.433  -2.612  0.00  0.00    +0.115 A 
ATOM     34  N   UNL     1      -1.307  -5.397  -2.642  0.00  0.00    -0.230 NA
ENDBRANCH  28  29
ENDBRANCH  27  28
ENDBRANCH   7  27
TORSDOF 7
