REMARK  Name = ZINC01398003
REMARK  7 active torsions:
REMARK  status: ('A' for Active; 'I' for Inactive)
REMARK    1  A    between atoms: C_1  and  N_2
REMARK    2  A    between atoms: N_2  and  C_3
REMARK    3  A    between atoms: N_2  and  C_4
REMARK    4  A    between atoms: C_7  and  C_10
REMARK    5  A    between atoms: C_13  and  C_29
REMARK    6  A    between atoms: C_14  and  C_22
REMARK    7  A    between atoms: C_15  and  C_20
REMARK                            x       y       z     vdW  Elec       q    Type
REMARK                         _______ _______ _______ _____ _____    ______ ____
ROOT
ATOM      1  C   UNL     1      -0.018   1.468   0.005  0.00  0.00    +0.155 A 
ATOM      2  N   UNL     1       1.044   2.251   0.012  0.00  0.00    -0.208 NA
ATOM      3  C   UNL     1       0.670   3.536   0.017  0.00  0.00    +0.176 A 
ATOM      4  C   UNL     1       1.421   4.727   0.024  0.00  0.00    +0.105 A 
ATOM      5  C   UNL     1       0.750   5.970   0.027  0.00  0.00    +0.026 A 
ATOM      6  C   UNL     1      -0.656   5.981   0.023  0.00  0.00    +0.127 A 
ATOM      7  C   UNL     1      -1.360   4.753   0.015  0.00  0.00    +0.290 A 
ATOM      8  O   UNL     1      -2.579   4.757   0.011  0.00  0.00    -0.264 OA
ATOM      9  N   UNL     1      -0.699   3.583   0.012  0.00  0.00    -0.197 N 
ATOM     10  N   UNL     1      -1.143   2.251  -0.001  0.00  0.00    -0.272 N 
ATOM     11  H   UNL     1      -2.063   1.945  -0.010  0.00  0.00    +0.189 HD
ENDROOT
BRANCH   5  12
ATOM     12  C   UNL     1       1.513   7.236   0.035  0.00  0.00    -0.015 A 
ATOM     13  C   UNL     1       2.320   7.575  -1.053  0.00  0.00    +0.010 A 
ATOM     14  C   UNL     1       3.025   8.759  -1.042  0.00  0.00    +0.020 A 
ATOM     15  C   UNL     1       2.943   9.607   0.050  0.00  0.00    +0.041 A 
ATOM     16  C   UNL     1       2.148   9.274   1.134  0.00  0.00    +0.020 A 
ATOM     17  C   UNL     1       1.434   8.095   1.133  0.00  0.00    +0.010 A 
ATOM     18 CL   UNL     1       3.840  11.094   0.059  0.00  0.00    -0.084 Cl
ENDBRANCH   5  12
BRANCH   1  22
ATOM     19  C   UNL     1       0.040  -2.771  -0.015  0.00  0.00    +0.029 A 
ATOM     20  C   UNL     1       1.237  -2.060  -0.007  0.00  0.00    +0.024 A 
ATOM     21  C   UNL     1       1.222  -0.689  -0.001  0.00  0.00    +0.013 A 
ATOM     22  C   UNL     1       0.002  -0.004  -0.002  0.00  0.00    +0.019 A 
ATOM     23  C   UNL     1      -1.200  -0.722  -0.003  0.00  0.00    +0.013 A 
ATOM     24  C   UNL     1      -1.177  -2.093  -0.015  0.00  0.00    +0.024 A 
BRANCH  19  26
ATOM     25  C   UNL     1       1.331  -4.875  -0.148  0.00  0.00    +0.129 C 
ATOM     26  N   UNL     1       0.058  -4.161  -0.022  0.00  0.00    -0.336 N 
ATOM     27  C   UNL     1      -1.194  -4.911   0.097  0.00  0.00    +0.129 C 
ENDBRANCH  19  26
ENDBRANCH   1  22
BRANCH   6  28
ATOM     28  C   UNL     1      -1.369   7.223   0.025  0.00  0.00    +0.105 C 
ATOM     29  N   UNL     1      -1.935   8.209   0.027  0.00  0.00    -0.191 NA
ENDBRANCH   6  28
BRANCH   4  30
ATOM     30  C   UNL     1       2.852   4.678   0.029  0.00  0.00    +0.104 C 
ATOM     31  N   UNL     1       3.988   4.640   0.033  0.00  0.00    -0.191 NA
ENDBRANCH   4  30
TORSDOF 5
