REMARK  Name = ZINC17085914
REMARK  5 active torsions:
REMARK  status: ('A' for Active; 'I' for Inactive)
REMARK    1  A    between atoms: C_1  and  C_2
REMARK    2  A    between atoms: C_2  and  C_3
REMARK    3  A    between atoms: C_2  and  C_4
REMARK    4  A    between atoms: C_2  and  C_5
REMARK    5  A    between atoms: C_17  and  C_20
REMARK                            x       y       z     vdW  Elec       q    Type
REMARK                         _______ _______ _______ _____ _____    ______ ____
ROOT
ATOM      1  C   UNL     1       1.784  -2.655   6.986  0.00  0.00    -0.000 C 
ATOM      2  C   UNL     1       0.647  -3.555   6.494  0.00  0.00    +0.009 C 
ATOM      3  C   UNL     1       0.141  -3.059   5.139  0.00  0.00    +0.037 C 
ATOM      4  C   UNL     1       1.327  -2.919   4.192  0.00  0.00    -0.023 A 
ATOM      5  C   UNL     1       2.590  -2.849   4.669  0.00  0.00    -0.004 A 
ATOM      6  S   UNL     1       3.616  -2.696   3.231  0.00  0.00    -0.078 S 
ATOM      7  C   UNL     1       2.397  -2.728   2.028  0.00  0.00    +0.080 A 
ATOM      8  C   UNL     1       1.197  -2.850   2.745  0.00  0.00    +0.068 A 
ATOM      9  C   UNL     1      -0.063  -2.893   1.969  0.00  0.00    +0.248 C 
ATOM     10  O   UNL     1      -1.133  -3.107   2.509  0.00  0.00    -0.270 OA
ATOM     11  N   UNL     1       0.023  -2.682   0.639  0.00  0.00    -0.289 N 
ATOM     12  C   UNL     1       1.226  -2.187  -0.022  0.00  0.00    +0.191 C 
ATOM     13  N   UNL     1       2.445  -2.659   0.660  0.00  0.00    -0.316 N 
ATOM     14  C   UNL     1       3.018  -2.892   6.103  0.00  0.00    +0.046 C 
ATOM     15  H   UNL     1      -0.877  -2.905   0.048  0.00  0.00    +0.151 HD
ATOM     16  H   UNL     1       3.332  -2.935   0.071  0.00  0.00    +0.149 HD
ENDROOT
BRANCH  12  17
ATOM     17  C   UNL     1       1.208  -0.680  -0.014  0.00  0.00    +0.008 A 
ATOM     18  C   UNL     1       0.521  -0.003   0.977  0.00  0.00    +0.057 A 
ATOM     19  C   UNL     1       0.503   1.381   0.987  0.00  0.00    +0.167 A 
ATOM     20  C   UNL     1       1.180   2.090  -0.003  0.00  0.00    +0.167 A 
ATOM     21  C   UNL     1       1.867   1.407  -0.993  0.00  0.00    +0.065 A 
ATOM     22  C   UNL     1       1.880   0.023  -0.997  0.00  0.00    +0.028 A 
ATOM     23 BR   UNL     1       2.818  -0.907  -2.349  0.00  0.00    -0.050 Br
ATOM     24  O   UNL     1       1.012   3.426   0.225  0.00  0.00    -0.453 OA
ATOM     25  C   UNL     1       0.570   3.530   1.591  0.00  0.00    +0.466 C 
ATOM     26  O   UNL     1      -0.092   2.273   1.832  0.00  0.00    -0.453 OA
ENDBRANCH  12  17
BRANCH   1  28
ATOM     27  C   UNL     1       3.268  -2.111   8.921  0.00  0.00    +0.011 C 
ATOM     28  C   UNL     1       2.119  -2.999   8.439  0.00  0.00    -0.035 C 
ATOM     29  C   UNL     1       0.888  -2.762   9.315  0.00  0.00    +0.011 C 
ATOM     30  C   UNL     1       2.536  -4.468   8.532  0.00  0.00    +0.011 C 
ENDBRANCH   1  28
TORSDOF 2
