REMARK  Name = ZINC63478251
REMARK  7 active torsions:
REMARK  status: ('A' for Active; 'I' for Inactive)
REMARK    1  A    between atoms: C_3  and  N_8
REMARK    2  A    between atoms: C_9  and  S_14
REMARK    3  A    between atoms: S_14  and  C_15
REMARK    4  A    between atoms: C_15  and  C_16
REMARK    5  A    between atoms: N_18  and  C_19
REMARK    6  A    between atoms: C_19  and  C_20
REMARK    7  A    between atoms: C_20  and  C_21
REMARK                            x       y       z     vdW  Elec       q    Type
REMARK                         _______ _______ _______ _____ _____    ______ ____
ROOT
ATOM      1  C   UNL     1       5.258   1.004   4.116  0.00  0.00    +0.223 C 
ATOM      2  O   UNL     1       5.545  -0.175   4.118  0.00  0.00    -0.275 OA
ATOM      3  N   UNL     1       5.144   1.671   5.281  0.00  0.00    -0.314 N 
ATOM      4  H   UNL     1       4.914   2.614   5.279  0.00  0.00    +0.149 HD
ENDROOT
BRANCH   1   5
ATOM      5  C   UNL     1       5.029   1.721   2.810  0.00  0.00    +0.168 C 
BRANCH   5   6
ATOM      6  S   UNL     1       5.254   0.560   1.435  0.00  0.00    -0.107 S 
BRANCH   6   8
ATOM      7  N   UNL     1       3.581   2.123  -0.021  0.00  0.00    -0.174 N 
ATOM      8  C   UNL     1       4.947   1.566  -0.043  0.00  0.00    +0.260 C 
ATOM      9  N   UNL     1       5.795   2.773  -0.043  0.00  0.00    -0.218 N 
ATOM     10  N   UNL     1       4.914   3.860  -0.023  0.00  0.00    -0.063 NA
ATOM     11  N   UNL     1       3.736   3.514  -0.016  0.00  0.00    -0.056 NA
ATOM     12  H   UNL     1       6.764   2.806  -0.055  0.00  0.00    +0.173 HD
BRANCH   7  15
ATOM     13  C   UNL     1      -0.017   1.378   0.010  0.00  0.00    +0.003 A 
ATOM     14  C   UNL     1       1.169   2.087   0.002  0.00  0.00    +0.025 A 
ATOM     15  C   UNL     1       2.382   1.409  -0.013  0.00  0.00    +0.058 A 
ATOM     16  C   UNL     1       2.398   0.020  -0.021  0.00  0.00    +0.045 A 
ATOM     17  C   UNL     1       1.208  -0.683  -0.013  0.00  0.00    +0.043 A 
ATOM     18  C   UNL     1       0.002  -0.004   0.002  0.00  0.00    +0.020 A 
ATOM     19 CL   UNL     1       1.227  -2.419  -0.023  0.00  0.00    -0.083 Cl
ENDBRANCH   7  15
ENDBRANCH   6   8
ENDBRANCH   5   6
ENDBRANCH   1   5
BRANCH   3  20
ATOM     20  C   UNL     1       5.367   0.974   6.550  0.00  0.00    +0.108 C 
BRANCH  20  21
ATOM     21  C   UNL     1       5.177   1.953   7.710  0.00  0.00    +0.052 C 
BRANCH  21  22
ATOM     22  C   UNL     1       5.407   1.236   9.015  0.00  0.00    -0.040 C 
ATOM     23  C   UNL     1       6.556   1.188   9.725  0.00  0.00    +0.002 A 
ATOM     24  C   UNL     1       7.887   1.767   9.503  0.00  0.00    +0.048 A 
ATOM     25  C   UNL     1       8.863   1.538  10.413  0.00  0.00    +0.124 A 
ATOM     26  C   UNL     1       8.633   0.764  11.561  0.00  0.00    +0.040 A 
ATOM     27  C   UNL     1       7.438   0.200  11.833  0.00  0.00    +0.029 A 
ATOM     28  C   UNL     1       6.341   0.375  10.944  0.00  0.00    +0.043 A 
ATOM     29  N   UNL     1       5.106  -0.062  10.985  0.00  0.00    -0.380 N 
ATOM     30  C   UNL     1       4.396   0.430   9.799  0.00  0.00    +0.144 C 
ATOM     31  F   UNL     1      10.088   2.069  10.212  0.00  0.00    -0.205 F 
ATOM     32  H   UNL     1       4.725  -0.616  11.684  0.00  0.00    +0.160 HD
ENDBRANCH  21  22
ENDBRANCH  20  21
ENDBRANCH   3  20
TORSDOF 7
