REMARK  Name = ZINC14644352
REMARK  9 active torsions:
REMARK  status: ('A' for Active; 'I' for Inactive)
REMARK    1  A    between atoms: C_1  and  C_2
REMARK    2  A    between atoms: C_2  and  C_4
REMARK    3  A    between atoms: C_2  and  O_22
REMARK    4  A    between atoms: N_6  and  N_7
REMARK    5  A    between atoms: C_8  and  C_10
REMARK    6  A    between atoms: C_10  and  C_11
REMARK    7  A    between atoms: C_11  and  C_12
REMARK    8  A    between atoms: N_14  and  C_15
REMARK    9  A    between atoms: O_22  and  C_23
REMARK                            x       y       z     vdW  Elec       q    Type
REMARK                         _______ _______ _______ _____ _____    ______ ____
ROOT
ATOM      1  N   UNL     1       4.995   0.988  -0.079  0.00  0.00    -0.234 N 
ATOM      2  C   UNL     1       3.838   1.679  -0.074  0.00  0.00    +0.230 C 
ATOM      3  O   UNL     1       3.856   2.892  -0.061  0.00  0.00    -0.274 OA
ATOM      4  H   UNL     1       4.980   0.018  -0.089  0.00  0.00    +0.173 HD
ENDROOT
BRANCH   1   7
ATOM      5  C   UNL     1       7.375   0.979  -0.074  0.00  0.00    +0.270 C 
ATOM      6  O   UNL     1       7.357  -0.234  -0.087  0.00  0.00    -0.270 OA
ATOM      7  N   UNL     1       6.218   1.670  -0.069  0.00  0.00    -0.231 N 
ATOM      8  H   UNL     1       6.233   2.640  -0.059  0.00  0.00    +0.173 HD
BRANCH   5  10
ATOM      9  C   UNL     1       8.837   2.479   1.252  0.00  0.00    +0.062 C 
ATOM     10  C   UNL     1       8.692   1.712  -0.063  0.00  0.00    +0.257 C 
BRANCH  10  11
ATOM     11  O   UNL     1       9.761   0.773  -0.188  0.00  0.00    -0.479 OA
BRANCH  11  12
ATOM     12  C   UNL     1      10.930   1.234  -0.709  0.00  0.00    +0.136 A 
ATOM     13  C   UNL     1      11.079   2.584  -0.991  0.00  0.00    +0.048 A 
ATOM     14  C   UNL     1      12.269   3.051  -1.516  0.00  0.00    +0.023 A 
ATOM     15  C   UNL     1      13.307   2.172  -1.770  0.00  0.00    +0.042 A 
ATOM     16  C   UNL     1      13.158   0.825  -1.495  0.00  0.00    +0.039 A 
ATOM     17  C   UNL     1      11.972   0.354  -0.965  0.00  0.00    +0.061 A 
ATOM     18 BR   UNL     1      11.768  -1.488  -0.590  0.00  0.00    -0.046 Br
ATOM     19 CL   UNL     1      14.799   2.762  -2.435  0.00  0.00    -0.084 Cl
ENDBRANCH  11  12
ENDBRANCH  10  11
ENDBRANCH   5  10
ENDBRANCH   1   7
BRANCH   2  20
ATOM     20  C   UNL     1       2.522   0.946  -0.085  0.00  0.00    +0.106 C 
BRANCH  20  21
ATOM     21  C   UNL     1       1.374   1.957  -0.077  0.00  0.00    +0.105 C 
BRANCH  21  22
ATOM     22  C   UNL     1       0.057   1.223  -0.087  0.00  0.00    +0.218 C 
ATOM     23  O   UNL     1       0.039   0.011  -0.100  0.00  0.00    -0.275 OA
ATOM     24  N   UNL     1      -1.099   1.915  -0.088  0.00  0.00    -0.284 N 
ATOM     25  H   UNL     1      -1.086   2.882  -0.019  0.00  0.00    +0.155 HD
BRANCH  24  26
ATOM     26  C   UNL     1      -2.320   1.237  -0.189  0.00  0.00    +0.052 A 
ATOM     27  C   UNL     1      -2.420  -0.083   0.233  0.00  0.00    +0.025 A 
ATOM     28  C   UNL     1      -3.627  -0.747   0.137  0.00  0.00    +0.002 A 
ATOM     29  C   UNL     1      -4.733  -0.104  -0.387  0.00  0.00    +0.002 A 
ATOM     30  C   UNL     1      -4.636   1.208  -0.813  0.00  0.00    +0.022 A 
ATOM     31  C   UNL     1      -3.433   1.881  -0.715  0.00  0.00    +0.062 A 
ATOM     32 CL   UNL     1      -3.312   3.527  -1.251  0.00  0.00    -0.082 Cl
ENDBRANCH  24  26
ENDBRANCH  21  22
ENDBRANCH  20  21
ENDBRANCH   2  20
TORSDOF 8
