REMARK  Name = ZINC21301272
REMARK  7 active torsions:
REMARK  status: ('A' for Active; 'I' for Inactive)
REMARK    1  A    between atoms: C_2  and  C_3
REMARK    2  A    between atoms: C_3  and  N_4
REMARK    3  A    between atoms: N_4  and  C_5
REMARK    4  A    between atoms: N_4  and  C_12
REMARK    5  A    between atoms: C_5  and  C_6
REMARK    6  A    between atoms: C_12  and  C_13
REMARK    7  A    between atoms: C_26  and  C_28
REMARK                            x       y       z     vdW  Elec       q    Type
REMARK                         _______ _______ _______ _____ _____    ______ ____
ROOT
ATOM      1  C   UNL     1      -1.487   1.004   0.929  0.00  0.00    +0.204 C 
ATOM      2  O   UNL     1      -2.500   1.615   0.661  0.00  0.00    -0.277 OA
ATOM      3  N   UNL     1      -1.295   0.532   2.176  0.00  0.00    -0.259 N 
ATOM      4  C   UNL     1      -0.129  -0.176   2.500  0.00  0.00    +0.058 A 
ATOM      5  C   UNL     1       1.088   0.478   2.607  0.00  0.00    +0.025 A 
ATOM      6  C   UNL     1       2.223  -0.232   2.950  0.00  0.00    +0.002 A 
ATOM      7  C   UNL     1       2.149  -1.592   3.188  0.00  0.00    +0.002 A 
ATOM      8  C   UNL     1       0.940  -2.254   3.076  0.00  0.00    +0.025 A 
ATOM      9  C   UNL     1      -0.200  -1.552   2.721  0.00  0.00    +0.055 A 
ATOM     10  N   UNL     1      -1.423  -2.209   2.546  0.00  0.00    -0.284 N 
ATOM     11  C   UNL     1      -2.548  -1.726   3.117  0.00  0.00    +0.219 C 
ATOM     12  O   UNL     1      -3.615  -2.257   2.889  0.00  0.00    -0.275 OA
ATOM     13  C   UNL     1      -2.487  -0.533   4.033  0.00  0.00    +0.128 C 
ATOM     14  C   UNL     1      -2.298   0.753   3.220  0.00  0.00    +0.194 C 
ATOM     15  H   UNL     1      -1.473  -3.126   1.941  0.00  0.00    +0.155 HD
ENDROOT
BRANCH  14  16
ATOM     16  C   UNL     1      -1.831   1.881   4.143  0.00  0.00    +0.409 C 
ATOM     17  F   UNL     1      -1.665   3.053   3.398  0.00  0.00    -0.169 F 
ATOM     18  F   UNL     1      -2.789   2.093   5.140  0.00  0.00    -0.169 F 
ATOM     19  F   UNL     1      -0.613   1.526   4.733  0.00  0.00    -0.169 F 
ENDBRANCH  14  16
BRANCH   1  20
ATOM     20  C   UNL     1      -0.443   0.774  -0.133  0.00  0.00    +0.020 C 
BRANCH  20  21
ATOM     21  N   UNL     1      -0.885   1.382  -1.395  0.00  0.00    +0.391 N 
ATOM     22  H   UNL     1      -1.899   1.014  -1.610  0.00  0.00    -0.080 HD
BRANCH  21  23
ATOM     23  C   UNL     1      -0.950   2.845  -1.280  0.00  0.00    -0.051 C 
BRANCH  23  25
ATOM     24  C   UNL     1       0.932   4.301  -1.828  0.00  0.00    +0.002 C 
ATOM     25  C   UNL     1       0.432   3.391  -1.029  0.00  0.00    -0.053 C 
ENDBRANCH  23  25
ENDBRANCH  21  23
BRANCH  21  26
ATOM     26  C   UNL     1      -0.014   0.979  -2.507  0.00  0.00    -0.034 C 
BRANCH  26  27
ATOM     27  C   UNL     1      -0.695   1.288  -3.816  0.00  0.00    -0.025 A 
ATOM     28  C   UNL     1      -0.566   2.379  -4.608  0.00  0.00    +0.011 A 
ATOM     29  C   UNL     1      -1.295   2.446  -5.781  0.00  0.00    +0.028 A 
ATOM     30  C   UNL     1      -2.127   1.423  -6.097  0.00  0.00    +0.078 A 
ATOM     31  S   UNL     1      -1.887   0.313  -4.720  0.00  0.00    -0.084 S 
ATOM     32 CL   UNL     1      -3.157   1.239  -7.482  0.00  0.00    -0.076 Cl
ENDBRANCH  26  27
ENDBRANCH  21  26
ENDBRANCH  20  21
ENDBRANCH   1  20
TORSDOF 7
