REMARK  Name = ZINC44575799
REMARK  4 active torsions:
REMARK  status: ('A' for Active; 'I' for Inactive)
REMARK    1  A    between atoms: C_3  and  C_6
REMARK    2  A    between atoms: C_6  and  S_7
REMARK    3  A    between atoms: S_7  and  C_8
REMARK    4  A    between atoms: N_21  and  O_22
REMARK                            x       y       z     vdW  Elec       q    Type
REMARK                         _______ _______ _______ _____ _____    ______ ____
ROOT
ATOM      1  C   UNL     1       6.034   0.614   1.627  0.00  0.00    +0.095 C 
ATOM      2  C   UNL     1       6.582   0.388   3.038  0.00  0.00    +0.024 C 
ATOM      3  C   UNL     1       7.023   1.726   3.634  0.00  0.00    +0.028 C 
ATOM      4  C   UNL     1       7.254   1.566   5.114  0.00  0.00    -0.031 C 
ATOM      5  C   UNL     1       7.509   2.618   5.853  0.00  0.00    -0.031 C 
ATOM      6  C   UNL     1       7.570   3.984   5.219  0.00  0.00    +0.031 C 
ATOM      7  C   UNL     1       6.182   4.367   4.700  0.00  0.00    +0.031 C 
ATOM      8  C   UNL     1       6.237   4.553   3.206  0.00  0.00    -0.031 C 
ATOM      9  C   UNL     1       5.349   3.969   2.440  0.00  0.00    -0.031 C 
ATOM     10  C   UNL     1       5.403   4.157   0.946  0.00  0.00    +0.033 C 
ATOM     11  C   UNL     1       5.602   2.800   0.267  0.00  0.00    +0.059 C 
ATOM     12  C   UNL     1       6.514   1.946   1.110  0.00  0.00    +0.071 C 
ATOM     13  N   UNL     1       7.696   2.351   1.386  0.00  0.00    -0.095 NA
ENDROOT
BRANCH  13  14
ATOM     14  O   UNL     1       8.147   3.602   0.900  0.00  0.00    -0.409 OA
ATOM     15  H   UNL     1       9.052   3.822   1.160  0.00  0.00    +0.328 HD
ENDBRANCH  13  14
BRANCH   1  16
ATOM     16  S   UNL     1       4.220   0.602   1.675  0.00  0.00    -0.144 S 
BRANCH  16  17
ATOM     17  C   UNL     1       3.804  -1.112   2.096  0.00  0.00    +0.144 C 
BRANCH  17  20
ATOM     18  C   UNL     1       0.240  -1.707   1.366  0.00  0.00    +0.041 A 
ATOM     19  C   UNL     1       1.596  -1.663   0.967  0.00  0.00    +0.045 A 
ATOM     20  C   UNL     1       2.308  -1.293   2.046  0.00  0.00    +0.115 A 
ATOM     21  O   UNL     1       1.461  -1.112   3.072  0.00  0.00    -0.467 OA
ATOM     22  C   UNL     1       0.205  -1.362   2.666  0.00  0.00    +0.195 A 
ENDBRANCH  17  20
ENDBRANCH  16  17
ENDBRANCH   1  16
TORSDOF 4
