REMARK  Name = ZINC35990856
REMARK  12 active torsions:
REMARK  status: ('A' for Active; 'I' for Inactive)
REMARK    1  A    between atoms: C_1  and  C_2
REMARK    2  A    between atoms: C_2  and  N_3
REMARK    3  A    between atoms: C_4  and  C_24
REMARK    4  A    between atoms: C_5  and  C_19
REMARK    5  A    between atoms: C_6  and  C_11
REMARK    6  A    between atoms: C_15  and  O_17
REMARK    7  A    between atoms: O_17  and  C_18
REMARK    8  A    between atoms: C_19  and  O_21
REMARK    9  A    between atoms: O_21  and  C_22
REMARK   10  A    between atoms: C_22  and  C_23
REMARK   11  A    between atoms: C_24  and  N_25
REMARK   12  A    between atoms: C_29  and  C_32
REMARK                            x       y       z     vdW  Elec       q    Type
REMARK                         _______ _______ _______ _____ _____    ______ ____
ROOT
ATOM      1  N   UNL     1      -1.390  -0.479  -0.042  0.00  0.00    -0.258 N 
ATOM      2  C   UNL     1      -1.965  -0.622   1.188  0.00  0.00    +0.041 C 
ATOM      3  C   UNL     1      -3.212  -1.122   1.321  0.00  0.00    +0.080 C 
ATOM      4  C   UNL     1      -3.951  -1.518   0.059  0.00  0.00    +0.144 C 
ATOM      5  N   UNL     1      -3.243  -1.324  -1.218  0.00  0.00    -0.288 N 
ATOM      6  C   UNL     1      -1.998  -0.808  -1.189  0.00  0.00    +0.307 C 
ATOM      7  O   UNL     1      -1.407  -0.640  -2.237  0.00  0.00    -0.252 OA
ATOM      8  H   UNL     1      -3.664  -1.559  -2.060  0.00  0.00    +0.151 HD
ENDROOT
BRANCH   4   9
ATOM      9  C   UNL     1      -4.314  -2.976   0.171  0.00  0.00    -0.019 A 
ATOM     10  C   UNL     1      -3.364  -3.946  -0.092  0.00  0.00    +0.006 A 
ATOM     11  C   UNL     1      -3.694  -5.285   0.010  0.00  0.00    +0.004 A 
ATOM     12  C   UNL     1      -4.973  -5.657   0.375  0.00  0.00    +0.045 A 
ATOM     13  C   UNL     1      -5.928  -4.686   0.639  0.00  0.00    +0.120 A 
ATOM     14  C   UNL     1      -5.593  -3.343   0.542  0.00  0.00    +0.051 A 
BRANCH  13  15
ATOM     15  O   UNL     1      -7.187  -5.049   0.999  0.00  0.00    -0.495 OA
ATOM     16  C   UNL     1      -7.459  -6.449   1.085  0.00  0.00    +0.277 C 
ENDBRANCH  13  15
ENDBRANCH   4   9
BRANCH   1  18
ATOM     17  C   UNL     1      -0.105   1.593  -0.230  0.00  0.00    +0.025 C 
ATOM     18  C   UNL     1      -0.033   0.070  -0.112  0.00  0.00    +0.111 C 
ENDBRANCH   1  18
BRANCH   3  19
ATOM     19  C   UNL     1      -3.809  -1.271   2.595  0.00  0.00    +0.339 C 
ATOM     20  O   UNL     1      -3.823  -2.360   3.136  0.00  0.00    -0.245 OA
BRANCH  19  21
ATOM     21  O   UNL     1      -4.362  -0.204   3.209  0.00  0.00    -0.462 OA
BRANCH  21  22
ATOM     22  C   UNL     1      -4.947  -0.427   4.494  0.00  0.00    +0.229 C 
ATOM     23  C   UNL     1      -5.519   0.887   5.029  0.00  0.00    +0.048 C 
ENDBRANCH  21  22
ENDBRANCH  19  21
ENDBRANCH   3  19
BRANCH   2  24
ATOM     24  C   UNL     1      -1.194  -0.215   2.418  0.00  0.00    +0.136 C 
BRANCH  24  25
ATOM     25  N   UNL     1      -0.043  -1.110   2.593  0.00  0.00    -0.300 NA
ATOM     26  C   UNL     1      -0.481  -2.479   2.898  0.00  0.00    +0.066 C 
ATOM     27  C   UNL     1       0.743  -3.390   3.013  0.00  0.00    -0.067 C 
ATOM     28  N   UNL     1       1.626  -2.892   4.076  0.00  0.00    +0.382 N 
ATOM     29  C   UNL     1       2.075  -1.533   3.745  0.00  0.00    -0.061 C 
ATOM     30  C   UNL     1       0.862  -0.607   3.636  0.00  0.00    +0.069 C 
ATOM     31  C   UNL     1       3.009  -1.023   4.844  0.00  0.00    -0.012 C 
ATOM     32  H   UNL     1       1.123  -2.876   4.950  0.00  0.00    -0.085 HD
ATOM     33  H   UNL     1       2.427  -3.500   4.160  0.00  0.00    -0.085 HD
ENDBRANCH  24  25
ENDBRANCH   2  24
TORSDOF 8
