REMARK  Name = ZINC08920464
REMARK  14 active torsions:
REMARK  status: ('A' for Active; 'I' for Inactive)
REMARK    1  A    between atoms: C_1  and  C_2
REMARK    2  A    between atoms: C_2  and  C_3
REMARK    3  A    between atoms: C_3  and  C_4
REMARK    4  A    between atoms: C_4  and  N_5
REMARK    5  A    between atoms: N_5  and  C_6
REMARK    6  A    between atoms: N_5  and  S_8
REMARK    7  A    between atoms: C_6  and  C_7
REMARK    8  A    between atoms: S_8  and  C_11
REMARK    9  A    between atoms: C_14  and  C_17
REMARK   10  A    between atoms: N_19  and  C_20
REMARK   11  A    between atoms: C_21  and  C_30
REMARK   12  A    between atoms: C_28  and  C_29
REMARK   13  A    between atoms: C_28  and  N_68
REMARK   14  A    between atoms: N_32  and  C_33
REMARK                            x       y       z     vdW  Elec       q    Type
REMARK                         _______ _______ _______ _____ _____    ______ ____
ROOT
ATOM      1  C   UNL     1      -3.119   3.066   4.885  0.00  0.00    +0.249 C 
ATOM      2  O   UNL     1      -3.928   2.303   5.378  0.00  0.00    -0.270 OA
ATOM      3  N   UNL     1      -2.918   4.281   5.433  0.00  0.00    -0.275 N 
ATOM      4  H   UNL     1      -2.273   4.889   5.040  0.00  0.00    +0.156 HD
ENDROOT
BRANCH   3   5
ATOM      5  C   UNL     1      -3.634   4.661   6.556  0.00  0.00    +0.085 A 
ATOM      6  C   UNL     1      -3.568   5.859   7.257  0.00  0.00    +0.068 A 
ATOM      7  C   UNL     1      -4.433   6.006   8.412  0.00  0.00    -0.027 A 
ATOM      8  C   UNL     1      -5.221   4.941   8.683  0.00  0.00    -0.021 A 
ATOM      9  S   UNL     1      -4.834   3.761   7.424  0.00  0.00    -0.079 S 
ATOM     10  C   UNL     1      -6.201   4.824   9.809  0.00  0.00    -0.035 C 
ATOM     11  C   UNL     1      -5.797   7.196  10.099  0.00  0.00    -0.074 C 
ATOM     12  C   UNL     1      -4.496   7.248   9.293  0.00  0.00    +0.018 C 
ATOM     13  N   UNL     1      -5.893   5.894  10.790  0.00  0.00    +0.383 N 
ATOM     14  H   UNL     1      -4.994   5.686  11.239  0.00  0.00    -0.081 HD
BRANCH   6  15
ATOM     15  C   UNL     1      -2.659   6.933   6.845  0.00  0.00    +0.246 C 
ATOM     16  O   UNL     1      -3.036   7.780   6.057  0.00  0.00    -0.270 OA
ATOM     17  N   UNL     1      -1.406   6.981   7.338  0.00  0.00    -0.314 N 
ATOM     18  C   UNL     1      -0.497   8.054   6.926  0.00  0.00    +0.128 C 
ATOM     19  H   UNL     1      -1.105   6.306   7.966  0.00  0.00    +0.149 HD
ENDBRANCH   6  15
BRANCH  13  20
ATOM     20  C   UNL     1      -6.947   5.947  11.826  0.00  0.00    -0.082 C 
ATOM     21  C   UNL     1      -7.220   4.532  12.339  0.00  0.00    -0.017 C 
ENDBRANCH  13  20
ENDBRANCH   3   5
BRANCH   1  25
ATOM     22  C   UNL     1      -0.927   1.900   1.439  0.00  0.00    +0.106 A 
ATOM     23  C   UNL     1      -0.715   3.146   2.002  0.00  0.00    +0.029 A 
ATOM     24  C   UNL     1      -1.427   3.533   3.118  0.00  0.00    +0.015 A 
ATOM     25  C   UNL     1      -2.356   2.660   3.687  0.00  0.00    +0.037 A 
ATOM     26  C   UNL     1      -2.561   1.402   3.117  0.00  0.00    +0.015 A 
ATOM     27  C   UNL     1      -1.846   1.030   1.998  0.00  0.00    +0.029 A 
BRANCH  22  28
ATOM     28  S   UNL     1      -0.017   1.417   0.010  0.00  0.00    +0.061 S 
ATOM     29  O   UNL     1       0.002  -0.004   0.002  0.00  0.00    -0.153 OA
ATOM     30  O   UNL     1       1.172   2.195   0.003  0.00  0.00    -0.153 OA
BRANCH  28  31
ATOM     31  N   UNL     1      -0.897   1.885  -1.312  0.00  0.00    -0.177 NA
BRANCH  31  32
ATOM     32  C   UNL     1      -0.691   3.213  -1.897  0.00  0.00    +0.106 C 
ATOM     33  C   UNL     1       0.306   3.112  -3.053  0.00  0.00    +0.022 C 
ENDBRANCH  31  32
BRANCH  31  34
ATOM     34  C   UNL     1      -1.883   0.973  -1.897  0.00  0.00    +0.109 C 
BRANCH  34  35
ATOM     35  C   UNL     1      -3.267   1.280  -1.323  0.00  0.00    +0.017 C 
BRANCH  35  37
ATOM     36  C   UNL     1      -5.680   0.634  -1.359  0.00  0.00    +0.004 C 
ATOM     37  C   UNL     1      -4.296   0.327  -1.934  0.00  0.00    -0.002 C 
ENDBRANCH  35  37
ENDBRANCH  34  35
ENDBRANCH  31  34
ENDBRANCH  28  31
ENDBRANCH  22  28
ENDBRANCH   1  25
TORSDOF 10
