REMARK  Name = ZINC63515182
REMARK  6 active torsions:
REMARK  status: ('A' for Active; 'I' for Inactive)
REMARK    1  A    between atoms: C_1  and  C_2
REMARK    2  A    between atoms: C_4  and  C_13
REMARK    3  A    between atoms: C_13  and  C_14
REMARK    4  A    between atoms: C_14  and  N_15
REMARK    5  A    between atoms: C_20  and  C_21
REMARK    6  A    between atoms: C_20  and  O_22
REMARK                            x       y       z     vdW  Elec       q    Type
REMARK                         _______ _______ _______ _____ _____    ______ ____
ROOT
ATOM      1  C   UNL     1       1.364  -0.963  -3.578  0.00  0.00    +0.118 C 
ENDROOT
BRANCH   1   2
ATOM      2  N   UNL     1       0.998  -0.729  -4.977  0.00  0.00    -0.235 N 
ATOM      3  C   UNL     1       0.184  -1.500  -5.725  0.00  0.00    +0.406 C 
ATOM      4  O   UNL     1      -0.373  -2.494  -5.304  0.00  0.00    -0.226 OA
ATOM      5  O   UNL     1       0.055  -1.052  -6.987  0.00  0.00    -0.439 OA
ATOM      6  C   UNL     1       0.481   0.316  -7.014  0.00  0.00    +0.160 C 
ATOM      7  C   UNL     1       1.449   0.398  -5.820  0.00  0.00    +0.175 C 
ATOM      8  C   UNL     1       1.295   1.728  -5.080  0.00  0.00    +0.068 C 
ATOM      9  C   UNL     1       1.208   0.632  -8.314  0.00  0.00    +0.053 C 
ATOM     10  C   UNL     1       0.232   0.518  -9.488  0.00  0.00    +0.004 C 
ATOM     11  C   UNL     1      -0.931   1.490  -9.278  0.00  0.00    +0.000 C 
ATOM     12  C   UNL     1      -1.665   1.140  -7.983  0.00  0.00    +0.004 C 
ATOM     13  C   UNL     1      -0.698   1.256  -6.802  0.00  0.00    +0.053 C 
BRANCH   7  14
ATOM     14  O   UNL     1       2.799   0.207  -6.247  0.00  0.00    -0.368 OA
ATOM     15  H   UNL     1       3.438   0.160  -5.522  0.00  0.00    +0.212 HD
ENDBRANCH   7  14
ENDBRANCH   1   2
BRANCH   1  16
ATOM     16  C   UNL     1       0.352  -0.269  -2.664  0.00  0.00    +0.052 C 
BRANCH  16  19
ATOM     17  C   UNL     1      -0.019   1.526   0.010  0.00  0.00    +0.035 C 
ATOM     18  C   UNL     1       0.002  -0.004   0.002  0.00  0.00    +0.103 C 
ATOM     19  C   UNL     1       0.729  -0.509  -1.224  0.00  0.00    -0.037 C 
ATOM     20  C   UNL     1       1.785  -1.220  -0.768  0.00  0.00    +0.001 A 
ATOM     21  C   UNL     1       2.860  -1.954  -1.446  0.00  0.00    +0.010 A 
ATOM     22  C   UNL     1       3.801  -2.585  -0.712  0.00  0.00    +0.002 A 
ATOM     23  C   UNL     1       3.797  -2.568   0.689  0.00  0.00    +0.022 A 
ATOM     24  C   UNL     1       2.852  -1.920   1.407  0.00  0.00    +0.064 A 
ATOM     25  C   UNL     1       1.779  -1.200   0.713  0.00  0.00    +0.062 A 
ATOM     26  N   UNL     1       0.758  -0.506   1.155  0.00  0.00    -0.377 N 
ATOM     27 CL   UNL     1       2.908  -1.940   3.142  0.00  0.00    -0.081 Cl
ATOM     28  H   UNL     1       0.540  -0.349   2.087  0.00  0.00    +0.160 HD
ENDBRANCH  16  19
ENDBRANCH   1  16
TORSDOF 4
