REMARK  Name = ZINC22936034
REMARK  11 active torsions:
REMARK  status: ('A' for Active; 'I' for Inactive)
REMARK    1  A    between atoms: C_1  and  C_2
REMARK    2  A    between atoms: C_2  and  N_3
REMARK    3  A    between atoms: C_7  and  C_9
REMARK    4  A    between atoms: C_9  and  N_10
REMARK    5  A    between atoms: N_10  and  C_11
REMARK    6  A    between atoms: C_11  and  C_12
REMARK    7  A    between atoms: C_14  and  O_29
REMARK    8  A    between atoms: C_15  and  O_19
REMARK    9  A    between atoms: O_19  and  C_20
REMARK   10  A    between atoms: C_20  and  C_21
REMARK   11  A    between atoms: O_29  and  C_30
REMARK                            x       y       z     vdW  Elec       q    Type
REMARK                         _______ _______ _______ _____ _____    ______ ____
ROOT
ATOM      1  C   UNL     1      -1.701  -1.403  -4.949  0.00  0.00    -0.060 A 
ATOM      2  C   UNL     1      -2.198  -0.171  -5.331  0.00  0.00    +0.051 A 
ATOM      3  C   UNL     1      -1.663   0.482  -6.430  0.00  0.00    +0.163 A 
ATOM      4  C   UNL     1      -0.626  -0.106  -7.148  0.00  0.00    +0.176 A 
ATOM      5  C   UNL     1      -0.132  -1.342  -6.760  0.00  0.00    +0.063 A 
ATOM      6  C   UNL     1      -0.668  -1.985  -5.658  0.00  0.00    +0.021 A 
ATOM      7 BR   UNL     1       1.278  -2.145  -7.731  0.00  0.00    -0.046 Br
ENDROOT
BRANCH   3   8
ATOM      8  O   UNL     1      -2.151   1.694  -6.807  0.00  0.00    -0.491 OA
ATOM      9  C   UNL     1      -3.216   2.236  -6.025  0.00  0.00    +0.277 C 
ENDBRANCH   3   8
BRANCH   1  10
ATOM     10  C   UNL     1      -2.285  -2.111  -3.753  0.00  0.00    -0.047 C 
BRANCH  10  11
ATOM     11  N   UNL     1      -1.555  -1.710  -2.543  0.00  0.00    +0.381 N 
ATOM     12  H   UNL     1      -1.637  -0.712  -2.416  0.00  0.00    -0.086 HD
ATOM     13  H   UNL     1      -0.582  -1.958  -2.639  0.00  0.00    -0.086 HD
BRANCH  11  14
ATOM     14  C   UNL     1      -2.124  -2.399  -1.377  0.00  0.00    -0.098 C 
BRANCH  14  19
ATOM     15  N   UNL     1      -1.376  -0.512   0.012  0.00  0.00    +0.380 N 
ATOM     16  C   UNL     1      -2.028  -0.158   1.291  0.00  0.00    -0.079 C 
ATOM     17  C   UNL     1      -2.935  -1.369   1.623  0.00  0.00    -0.020 C 
ATOM     18  C   UNL     1      -2.064  -2.556   1.133  0.00  0.00    -0.019 C 
ATOM     19  C   UNL     1      -1.364  -1.981  -0.117  0.00  0.00    -0.086 C 
ATOM     20  H   UNL     1      -1.894  -0.109  -0.754  0.00  0.00    -0.082 HD
BRANCH  15  22
ATOM     21  C   UNL     1      -0.019   1.526   0.010  0.00  0.00    -0.017 C 
ATOM     22  C   UNL     1       0.002  -0.004   0.002  0.00  0.00    -0.082 C 
ENDBRANCH  15  22
ENDBRANCH  14  19
ENDBRANCH  11  14
ENDBRANCH  10  11
ENDBRANCH   1  10
BRANCH   4  23
ATOM     23  O   UNL     1      -0.098   0.530  -8.228  0.00  0.00    -0.483 OA
BRANCH  23  24
ATOM     24  C   UNL     1       1.002   1.410  -7.989  0.00  0.00    +0.266 C 
BRANCH  24  25
ATOM     25  C   UNL     1       1.451   2.019  -9.292  0.00  0.00    +0.008 A 
ATOM     26  C   UNL     1       0.801   1.693 -10.467  0.00  0.00    +0.010 A 
ATOM     27  C   UNL     1       1.212   2.251 -11.663  0.00  0.00    +0.020 A 
ATOM     28  C   UNL     1       2.273   3.138 -11.684  0.00  0.00    +0.042 A 
ATOM     29  C   UNL     1       2.924   3.466 -10.508  0.00  0.00    +0.040 A 
ATOM     30  C   UNL     1       2.509   2.910  -9.311  0.00  0.00    +0.049 A 
ATOM     31 CL   UNL     1       3.321   3.326  -7.834  0.00  0.00    -0.083 Cl
ATOM     32 CL   UNL     1       2.789   3.839 -13.186  0.00  0.00    -0.083 Cl
ENDBRANCH  24  25
ENDBRANCH  23  24
ENDBRANCH   4  23
TORSDOF 9
