REMARK  Name = ZINC44021083
REMARK  4 active torsions:
REMARK  status: ('A' for Active; 'I' for Inactive)
REMARK    1  A    between atoms: C_4  and  N_11
REMARK    2  A    between atoms: C_6  and  C_7
REMARK    3  A    between atoms: N_11  and  C_12
REMARK    4  A    between atoms: N_16  and  C_21
REMARK                            x       y       z     vdW  Elec       q    Type
REMARK                         _______ _______ _______ _____ _____    ______ ____
ROOT
ATOM      1  C   UNL     1       3.558  -2.023   0.015  0.00  0.00    +0.109 A 
ATOM      2  C   UNL     1       4.696  -2.760   0.185  0.00  0.00    +0.112 A 
ATOM      3  C   UNL     1       4.601  -4.159   0.240  0.00  0.00    +0.259 A 
ATOM      4  O   UNL     1       5.603  -4.837   0.391  0.00  0.00    -0.267 OA
ATOM      5  N   UNL     1       3.395  -4.749   0.124  0.00  0.00    -0.255 N 
ATOM      6  C   UNL     1       2.284  -4.009  -0.043  0.00  0.00    +0.331 A 
ATOM      7  O   UNL     1       1.206  -4.561  -0.146  0.00  0.00    -0.246 OA
ATOM      8  N   UNL     1       2.348  -2.666  -0.093  0.00  0.00    -0.295 N 
ATOM      9  H   UNL     1       1.536  -2.148  -0.209  0.00  0.00    +0.172 HD
ENDROOT
BRANCH   5  10
ATOM     10  C   UNL     1       3.292  -6.210   0.180  0.00  0.00    +0.054 C 
ATOM     11  C   UNL     1       2.387  -6.613   1.346  0.00  0.00    +0.032 C 
ATOM     12  C   UNL     1       2.280  -8.138   1.405  0.00  0.00    -0.008 C 
ATOM     13  C   UNL     1       3.672  -8.739   1.608  0.00  0.00    +0.007 C 
ATOM     14  C   UNL     1       4.577  -8.336   0.442  0.00  0.00    -0.008 C 
ATOM     15  C   UNL     1       4.684  -6.811   0.384  0.00  0.00    +0.032 C 
ATOM     16  C   UNL     1       3.983  -8.857  -0.868  0.00  0.00    +0.007 C 
ATOM     17  C   UNL     1       2.591  -8.255  -1.071  0.00  0.00    -0.008 C 
ATOM     18  C   UNL     1       1.686  -8.658   0.095  0.00  0.00    +0.007 C 
ATOM     19  C   UNL     1       2.698  -6.730  -1.130  0.00  0.00    +0.032 C 
ENDBRANCH   5  10
BRANCH   1  20
ATOM     20  N   UNL     1       3.621  -0.653  -0.042  0.00  0.00    -0.300 N 
ATOM     21  H   UNL     1       4.011  -0.154   0.694  0.00  0.00    +0.154 HD
BRANCH  20  25
ATOM     22  C   UNL     1       2.143   1.365  -3.374  0.00  0.00    +0.014 A 
ATOM     23  C   UNL     1       2.590   2.080  -2.277  0.00  0.00    +0.022 A 
ATOM     24  C   UNL     1       3.081   1.414  -1.170  0.00  0.00    +0.062 A 
ATOM     25  C   UNL     1       3.125   0.025  -1.160  0.00  0.00    +0.051 A 
ATOM     26  C   UNL     1       2.676  -0.689  -2.263  0.00  0.00    +0.037 A 
ATOM     27  C   UNL     1       2.186  -0.017  -3.366  0.00  0.00    +0.057 A 
ATOM     28 CL   UNL     1       3.642   2.312   0.206  0.00  0.00    -0.082 Cl
BRANCH  27  29
ATOM     29  C   UNL     1       1.698  -0.791  -4.564  0.00  0.00    +0.417 C 
ATOM     30  F   UNL     1       1.254   0.101  -5.546  0.00  0.00    -0.166 F 
ATOM     31  F   UNL     1       2.744  -1.566  -5.076  0.00  0.00    -0.166 F 
ATOM     32  F   UNL     1       0.643  -1.626  -4.181  0.00  0.00    -0.166 F 
ENDBRANCH  27  29
ENDBRANCH  20  25
ENDBRANCH   1  20
TORSDOF 4
