REMARK  Name = ZINC15658590
REMARK  8 active torsions:
REMARK  status: ('A' for Active; 'I' for Inactive)
REMARK    1  A    between atoms: C_1  and  C_2
REMARK    2  A    between atoms: C_8  and  C_9
REMARK    3  A    between atoms: C_8  and  C_10
REMARK    4  A    between atoms: C_14  and  C_32
REMARK    5  A    between atoms: C_14  and  O_33
REMARK    6  A    between atoms: C_15  and  C_26
REMARK    7  A    between atoms: P_17  and  C_19
REMARK    8  A    between atoms: C_19  and  C_20
REMARK                            x       y       z     vdW  Elec       q    Type
REMARK                         _______ _______ _______ _____ _____    ______ ____
ROOT
ATOM      1  C   UNL     1      -0.510   1.963  -1.751  0.00  0.00    +0.019 C 
ATOM      2  C   UNL     1      -1.032   0.552  -1.432  0.00  0.00    +0.028 C 
ATOM      3  C   UNL     1      -2.530   0.521  -1.214  0.00  0.00    +0.019 C 
ATOM      4  C   UNL     1      -2.954   0.396   0.236  0.00  0.00    -0.000 C 
ATOM      5  C   UNL     1      -1.962   0.509   1.393  0.00  0.00    -0.001 C 
ATOM      6  C   UNL     1      -2.982   1.611   1.157  0.00  0.00    -0.029 C 
ATOM      7  C   UNL     1      -2.533   2.965   0.620  0.00  0.00    +0.011 C 
ATOM      8  C   UNL     1      -4.164   1.689   2.142  0.00  0.00    +0.011 C 
ATOM      9  C   UNL     1      -0.485   0.694   1.010  0.00  0.00    +0.011 C 
ATOM     10  C   UNL     1      -0.312  -0.141  -0.245  0.00  0.00    +0.035 C 
ATOM     11  C   UNL     1       1.086  -0.580  -0.613  0.00  0.00    +0.080 C 
ATOM     12  C   UNL     1       1.229  -0.891  -2.127  0.00  0.00    +0.113 C 
ATOM     13  P   UNL     1      -0.508  -0.656  -2.744  0.00  0.00    +0.109 P 
ATOM     14  O   UNL     1      -0.536  -0.048  -4.088  0.00  0.00    -0.319 OA
ATOM     15  C   UNL     1       2.106   0.487  -0.227  0.00  0.00    +0.043 C 
ENDROOT
BRANCH  12  16
ATOM     16  C   UNL     1       1.680  -2.314  -2.338  0.00  0.00    -0.034 A 
ATOM     17  C   UNL     1       1.059  -3.344  -1.656  0.00  0.00    +0.004 A 
ATOM     18  C   UNL     1       1.473  -4.649  -1.849  0.00  0.00    +0.000 A 
ATOM     19  C   UNL     1       2.507  -4.924  -2.724  0.00  0.00    +0.000 A 
ATOM     20  C   UNL     1       3.128  -3.894  -3.406  0.00  0.00    +0.000 A 
ATOM     21  C   UNL     1       2.711  -2.590  -3.216  0.00  0.00    +0.004 A 
ENDBRANCH  12  16
BRANCH  11  22
ATOM     22  O   UNL     1       1.390  -1.778   0.112  0.00  0.00    -0.387 OA
ATOM     23  H   UNL     1       2.272  -2.132  -0.065  0.00  0.00    +0.210 HD
ENDBRANCH  11  22
BRANCH  13  24
ATOM     24  C   UNL     1      -1.457  -2.206  -2.672  0.00  0.00    +0.105 C 
BRANCH  24  25
ATOM     25  C   UNL     1      -2.847  -1.969  -3.204  0.00  0.00    -0.040 A 
ATOM     26  C   UNL     1      -3.928  -1.981  -2.342  0.00  0.00    +0.004 A 
ATOM     27  C   UNL     1      -5.203  -1.764  -2.830  0.00  0.00    +0.000 A 
ATOM     28  C   UNL     1      -5.397  -1.534  -4.179  0.00  0.00    +0.000 A 
ATOM     29  C   UNL     1      -4.316  -1.521  -5.040  0.00  0.00    +0.000 A 
ATOM     30  C   UNL     1      -3.041  -1.734  -4.552  0.00  0.00    +0.004 A 
ENDBRANCH  24  25
ENDBRANCH  13  24
TORSDOF 4
