REMARK  Name = ZINC39665035
REMARK  9 active torsions:
REMARK  status: ('A' for Active; 'I' for Inactive)
REMARK    1  A    between atoms: C_1  and  C_2
REMARK    2  A    between atoms: C_2  and  C_4
REMARK    3  A    between atoms: C_2  and  O_29
REMARK    4  A    between atoms: C_4  and  N_5
REMARK    5  A    between atoms: C_6  and  C_8
REMARK    6  A    between atoms: C_19  and  C_21
REMARK    7  A    between atoms: C_21  and  C_22
REMARK    8  A    between atoms: C_22  and  C_23
REMARK    9  A    between atoms: O_29  and  C_30
REMARK                            x       y       z     vdW  Elec       q    Type
REMARK                         _______ _______ _______ _____ _____    ______ ____
ROOT
ATOM      1  C   UNL     1       1.376  -4.282   1.475  0.00  0.00    +0.100 C 
ATOM      2  C   UNL     1      -0.050  -4.838   1.262  0.00  0.00    +0.121 C 
ATOM      3  N   UNL     1      -0.023  -6.184   1.882  0.00  0.00    -0.300 N 
ATOM      4  C   UNL     1       0.790  -6.008   3.109  0.00  0.00    +0.115 C 
ATOM      5  C   UNL     1       1.923  -5.052   2.688  0.00  0.00    -0.004 C 
ATOM      6  C   UNL     1       2.248  -4.086   3.824  0.00  0.00    -0.010 C 
ATOM      7  C   UNL     1       2.845  -4.868   4.997  0.00  0.00    -0.082 C 
ATOM      8  N   UNL     1       4.061  -5.563   4.556  0.00  0.00    +0.379 N 
ATOM      9  C   UNL     1       3.725  -6.556   3.529  0.00  0.00    -0.082 C 
ATOM     10  C   UNL     1       3.165  -5.845   2.293  0.00  0.00    -0.010 C 
ATOM     11  C   UNL     1      -0.606  -7.313   1.432  0.00  0.00    +0.216 C 
ATOM     12  O   UNL     1      -0.492  -8.345   2.058  0.00  0.00    -0.276 OA
ATOM     13  H   UNL     1       4.710  -4.891   4.175  0.00  0.00    -0.086 HD
ATOM     14  H   UNL     1       4.486  -6.027   5.345  0.00  0.00    -0.086 HD
ENDROOT
BRANCH   1  16
ATOM     15  N   UNL     1       2.373  -2.019   1.458  0.00  0.00    -0.312 N 
ATOM     16  C   UNL     1       1.324  -2.805   1.770  0.00  0.00    +0.218 C 
ATOM     17  O   UNL     1       0.339  -2.324   2.288  0.00  0.00    -0.275 OA
ATOM     18  H   UNL     1       3.162  -2.403   1.044  0.00  0.00    +0.149 HD
BRANCH  15  19
ATOM     19  C   UNL     1       2.324  -0.583   1.745  0.00  0.00    +0.148 C 
BRANCH  19  21
ATOM     20  C   UNL     1       3.630   1.546   1.709  0.00  0.00    +0.053 C 
ATOM     21  C   UNL     1       3.631   0.073   1.297  0.00  0.00    +0.187 C 
BRANCH  21  22
ATOM     22  O   UNL     1       3.751  -0.025  -0.123  0.00  0.00    -0.488 OA
BRANCH  22  23
ATOM     23  C   UNL     1       5.006   0.027  -0.642  0.00  0.00    +0.121 A 
ATOM     24  C   UNL     1       6.090   0.276   0.187  0.00  0.00    +0.045 A 
ATOM     25  C   UNL     1       7.365   0.327  -0.343  0.00  0.00    +0.004 A 
ATOM     26  C   UNL     1       7.561   0.131  -1.698  0.00  0.00    +0.000 A 
ATOM     27  C   UNL     1       6.482  -0.117  -2.526  0.00  0.00    +0.004 A 
ATOM     28  C   UNL     1       5.205  -0.176  -2.000  0.00  0.00    +0.045 A 
ENDBRANCH  22  23
ENDBRANCH  21  22
ENDBRANCH  19  21
ENDBRANCH  15  19
ENDBRANCH   1  16
BRANCH  11  29
ATOM     29  C   UNL     1      -1.399  -7.292   0.151  0.00  0.00    +0.100 C 
BRANCH  29  30
ATOM     30  C   UNL     1      -1.950  -8.691  -0.131  0.00  0.00    +0.044 C 
BRANCH  30  31
ATOM     31  C   UNL     1      -2.743  -8.670  -1.412  0.00  0.00    -0.047 A 
ATOM     32  C   UNL     1      -4.096  -8.390  -1.383  0.00  0.00    +0.003 A 
ATOM     33  C   UNL     1      -4.824  -8.371  -2.558  0.00  0.00    +0.000 A 
ATOM     34  C   UNL     1      -4.198  -8.631  -3.763  0.00  0.00    +0.000 A 
ATOM     35  C   UNL     1      -2.845  -8.911  -3.792  0.00  0.00    +0.000 A 
ATOM     36  C   UNL     1      -2.116  -8.925  -2.618  0.00  0.00    +0.003 A 
ENDBRANCH  30  31
ENDBRANCH  29  30
ENDBRANCH  11  29
TORSDOF 8
