REMARK  Name = ZINC12498289
REMARK  12 active torsions:
REMARK  status: ('A' for Active; 'I' for Inactive)
REMARK    1  A    between atoms: C_1  and  C_2
REMARK    2  A    between atoms: C_2  and  C_4
REMARK    3  A    between atoms: C_8  and  N_10
REMARK    4  A    between atoms: C_15  and  C_30
REMARK    5  A    between atoms: C_17  and  C_22
REMARK    6  A    between atoms: C_17  and  C_26
REMARK    7  A    between atoms: C_22  and  C_23
REMARK    8  A    between atoms: C_23  and  S_24
REMARK    9  A    between atoms: S_24  and  C_25
REMARK   10  A    between atoms: C_26  and  O_28
REMARK   11  A    between atoms: O_28  and  C_29
REMARK   12  A    between atoms: C_33  and  O_36
REMARK                            x       y       z     vdW  Elec       q    Type
REMARK                         _______ _______ _______ _____ _____    ______ ____
ROOT
ATOM      1  N   UNL     1       2.367   3.938   0.018  0.00  0.00    -0.210 N 
ATOM      2  C   UNL     1       2.470   5.307   0.017  0.00  0.00    +0.229 C 
ATOM      3  O   UNL     1       1.595   6.114  -0.213  0.00  0.00    -0.275 OA
ATOM      4  C   UNL     1       3.867   5.576   0.358  0.00  0.00    +0.077 C 
ATOM      5  C   UNL     1       4.814   6.679   0.052  0.00  0.00    -0.027 C 
ATOM      6  C   UNL     1       5.956   4.547   0.131  0.00  0.00    +0.044 C 
ATOM      7  C   UNL     1       4.553   4.370  -0.398  0.00  0.00    +0.086 C 
ATOM      8  C   UNL     1       3.589   3.319  -0.003  0.00  0.00    +0.229 C 
ATOM      9  O   UNL     1       3.829   2.157   0.248  0.00  0.00    -0.275 OA
ATOM     10  N   UNL     1       6.152   6.023   0.005  0.00  0.00    +0.395 N 
ATOM     11  H   UNL     1       6.733   6.363   0.781  0.00  0.00    -0.083 HD
ATOM     12  H   UNL     1       6.612   6.237  -0.887  0.00  0.00    -0.083 HD
ENDROOT
BRANCH   1  17
ATOM     13  C   UNL     1      -1.261   3.264   0.068  0.00  0.00    +0.019 A 
ATOM     14  C   UNL     1      -1.263   1.865   0.056  0.00  0.00    +0.011 A 
ATOM     15  C   UNL     1      -0.070   1.175   0.041  0.00  0.00    +0.003 A 
ATOM     16  C   UNL     1       1.132   1.860   0.027  0.00  0.00    +0.024 A 
ATOM     17  C   UNL     1       1.146   3.250   0.033  0.00  0.00    +0.045 A 
ATOM     18  C   UNL     1      -0.046   3.955   0.053  0.00  0.00    +0.035 A 
BRANCH  13  20
ATOM     19  C   UNL     1      -3.841   3.257   0.105  0.00  0.00    +0.091 C 
ATOM     20  C   UNL     1      -2.533   4.005   0.089  0.00  0.00    +0.160 C 
ATOM     21  O   UNL     1      -2.528   5.218   0.095  0.00  0.00    -0.292 OA
ENDBRANCH  13  20
ENDBRANCH   1  17
BRANCH   5  22
ATOM     22  C   UNL     1       4.473   7.285  -1.285  0.00  0.00    -0.060 A 
ATOM     23  C   UNL     1       4.828   6.628  -2.450  0.00  0.00    +0.005 A 
ATOM     24  C   UNL     1       4.512   7.178  -3.677  0.00  0.00    +0.045 A 
ATOM     25  C   UNL     1       3.849   8.396  -3.740  0.00  0.00    +0.117 A 
ATOM     26  C   UNL     1       3.500   9.054  -2.571  0.00  0.00    +0.045 A 
ATOM     27  C   UNL     1       3.813   8.498  -1.346  0.00  0.00    +0.005 A 
BRANCH  25  28
ATOM     28  O   UNL     1       3.542   8.941  -4.947  0.00  0.00    -0.507 OA
ATOM     29  H   UNL     1       4.229   9.521  -5.302  0.00  0.00    +0.292 HD
ENDBRANCH  25  28
ENDBRANCH   5  22
BRANCH   6  30
ATOM     30  C   UNL     1       6.947   3.788  -0.714  0.00  0.00    +0.297 C 
ATOM     31  O   UNL     1       6.586   2.828  -1.353  0.00  0.00    -0.252 OA
BRANCH  30  32
ATOM     32  O   UNL     1       8.230   4.179  -0.757  0.00  0.00    -0.469 OA
ATOM     33  C   UNL     1       9.129   3.402  -1.591  0.00  0.00    +0.280 C 
ENDBRANCH  30  32
ENDBRANCH   6  30
BRANCH   6  34
ATOM     34  C   UNL     1       6.045   4.109   1.594  0.00  0.00    +0.010 C 
BRANCH  34  35
ATOM     35  C   UNL     1       7.471   4.324   2.106  0.00  0.00    +0.068 C 
BRANCH  35  36
ATOM     36  S   UNL     1       7.576   3.804   3.840  0.00  0.00    -0.164 S 
ATOM     37  C   UNL     1       9.305   4.119   4.289  0.00  0.00    +0.084 C 
ENDBRANCH  35  36
ENDBRANCH  34  35
ENDBRANCH   6  34
TORSDOF 9
