REMARK  Name = ZINC25516427
REMARK  8 active torsions:
REMARK  status: ('A' for Active; 'I' for Inactive)
REMARK    1  A    between atoms: C_1  and  C_2
REMARK    2  A    between atoms: C_2  and  C_28
REMARK    3  A    between atoms: N_5  and  N_9
REMARK    4  A    between atoms: C_10  and  C_12
REMARK    5  A    between atoms: C_12  and  N_13
REMARK    6  A    between atoms: C_19  and  C_21
REMARK    7  A    between atoms: C_28  and  C_29
REMARK    8  A    between atoms: C_29  and  C_30
REMARK                            x       y       z     vdW  Elec       q    Type
REMARK                         _______ _______ _______ _____ _____    ______ ____
ROOT
ATOM      1  N   UNL     1       2.703   2.041  -0.806  0.00  0.00    -0.225 N 
ATOM      2  C   UNL     1       3.532   2.246  -1.849  0.00  0.00    +0.213 C 
ATOM      3  O   UNL     1       3.077   2.464  -2.951  0.00  0.00    -0.276 OA
ATOM      4  H   UNL     1       3.115   1.843   0.194  0.00  0.00    +0.173 HD
ENDROOT
BRANCH   1   9
ATOM      5  C   UNL     1      -1.791   1.140  -0.081  0.00  0.00    +0.041 C 
ATOM      6  C   UNL     1      -0.881   1.510  -1.254  0.00  0.00    +0.112 C 
ATOM      7  C   UNL     1       0.524   0.990  -1.028  0.00  0.00    +0.263 C 
ATOM      8  O   UNL     1       0.866  -0.167  -0.900  0.00  0.00    -0.271 OA
ATOM      9  N   UNL     1       1.315   2.080  -0.996  0.00  0.00    -0.137 N 
ATOM     10  C   UNL     1       0.612   3.205  -1.170  0.00  0.00    +0.326 C 
ATOM     11  O   UNL     1       1.106   4.316  -1.181  0.00  0.00    -0.251 OA
ATOM     12  N   UNL     1      -0.702   2.970  -1.331  0.00  0.00    -0.284 N 
ATOM     13  H   UNL     1      -1.572   3.623  -1.495  0.00  0.00    +0.151 HD
BRANCH   6  14
ATOM     14  C   UNL     1      -1.451   0.967  -2.566  0.00  0.00    +0.040 C 
BRANCH  14  15
ATOM     15  C   UNL     1      -2.765   1.683  -2.887  0.00  0.00    +0.038 C 
BRANCH  15  16
ATOM     16  C   UNL     1      -3.326   1.149  -4.179  0.00  0.00    -0.047 A 
ATOM     17  C   UNL     1      -2.984   1.743  -5.380  0.00  0.00    +0.003 A 
ATOM     18  C   UNL     1      -3.495   1.250  -6.566  0.00  0.00    +0.000 A 
ATOM     19  C   UNL     1      -4.356   0.169  -6.551  0.00  0.00    +0.000 A 
ATOM     20  C   UNL     1      -4.702  -0.423  -5.350  0.00  0.00    +0.000 A 
ATOM     21  C   UNL     1      -4.187   0.068  -4.164  0.00  0.00    +0.003 A 
ENDBRANCH  15  16
ENDBRANCH  14  15
ENDBRANCH   6  14
ENDBRANCH   1   9
BRANCH   2  22
ATOM     22  C   UNL     1       5.025   2.203  -1.644  0.00  0.00    +0.020 C 
BRANCH  22  23
ATOM     23  N   UNL     1       5.702   2.455  -2.923  0.00  0.00    +0.387 N 
ATOM     24  C   UNL     1       5.442   1.370  -3.879  0.00  0.00    -0.059 C 
ATOM     25  C   UNL     1       6.010   1.754  -5.249  0.00  0.00    +0.089 C 
ATOM     26  N   UNL     1       7.427   2.111  -5.084  0.00  0.00    -0.301 N 
ATOM     27  C   UNL     1       7.781   3.094  -4.048  0.00  0.00    +0.089 C 
ATOM     28  C   UNL     1       7.143   2.657  -2.725  0.00  0.00    -0.059 C 
ATOM     29  C   UNL     1       8.376   1.554  -5.862  0.00  0.00    +0.249 C 
ATOM     30  O   UNL     1       9.533   1.913  -5.761  0.00  0.00    -0.270 OA
ATOM     31  H   UNL     1       5.290   3.382  -3.349  0.00  0.00    -0.081 HD
BRANCH  29  32
ATOM     32  C   UNL     1       8.011   0.506  -6.836  0.00  0.00    +0.072 A 
ATOM     33  C   UNL     1       6.984   0.730  -7.756  0.00  0.00    +0.016 A 
ATOM     34  C   UNL     1       6.652  -0.251  -8.666  0.00  0.00    +0.001 A 
ATOM     35  C   UNL     1       7.324  -1.461  -8.664  0.00  0.00    +0.003 A 
ATOM     36  C   UNL     1       8.338  -1.694  -7.754  0.00  0.00    +0.039 A 
ATOM     37  C   UNL     1       8.687  -0.718  -6.838  0.00  0.00    +0.135 A 
ATOM     38  F   UNL     1       9.678  -0.947  -5.948  0.00  0.00    -0.205 F 
ENDBRANCH  29  32
ENDBRANCH  22  23
ENDBRANCH   2  22
TORSDOF 7
