REMARK  Name = ZINC39653791
REMARK  8 active torsions:
REMARK  status: ('A' for Active; 'I' for Inactive)
REMARK    1  A    between atoms: C_1  and  C_2
REMARK    2  A    between atoms: C_2  and  O_3
REMARK    3  A    between atoms: O_3  and  C_4
REMARK    4  A    between atoms: C_7  and  C_10
REMARK    5  A    between atoms: C_10  and  C_11
REMARK    6  A    between atoms: C_11  and  N_12
REMARK    7  A    between atoms: C_13  and  C_15
REMARK    8  A    between atoms: C_26  and  C_28
REMARK                            x       y       z     vdW  Elec       q    Type
REMARK                         _______ _______ _______ _____ _____    ______ ____
ROOT
ATOM      1  C   UNL     1      -0.548 -10.806  -3.600  0.00  0.00    +0.100 C 
ATOM      2  C   UNL     1      -0.583 -11.197  -2.106  0.00  0.00    +0.121 C 
ATOM      3  N   UNL     1      -2.003 -11.527  -1.838  0.00  0.00    -0.296 N 
ATOM      4  C   UNL     1      -2.449 -12.250  -3.053  0.00  0.00    +0.115 C 
ATOM      5  C   UNL     1      -1.772 -11.502  -4.219  0.00  0.00    -0.004 C 
ATOM      6  C   UNL     1      -2.728 -10.467  -4.806  0.00  0.00    -0.010 C 
ATOM      7  C   UNL     1      -3.908 -11.186  -5.465  0.00  0.00    -0.082 C 
ATOM      8  N   UNL     1      -3.413 -12.078  -6.521  0.00  0.00    +0.379 N 
ATOM      9  C   UNL     1      -2.568 -13.126  -5.935  0.00  0.00    -0.082 C 
ATOM     10  C   UNL     1      -1.331 -12.489  -5.295  0.00  0.00    -0.010 C 
ATOM     11  C   UNL     1      -2.726 -11.236  -0.738  0.00  0.00    +0.247 C 
ATOM     12  O   UNL     1      -2.255 -10.524   0.127  0.00  0.00    -0.270 OA
ATOM     13  H   UNL     1      -4.195 -12.504  -6.994  0.00  0.00    -0.086 HD
ATOM     14  H   UNL     1      -2.872 -11.544  -7.184  0.00  0.00    -0.086 HD
ENDROOT
BRANCH  11  15
ATOM     15  C   UNL     1      -4.090 -11.783  -0.585  0.00  0.00    +0.037 A 
ATOM     16  C   UNL     1      -4.479 -12.911  -1.310  0.00  0.00    +0.014 A 
ATOM     17  C   UNL     1      -5.754 -13.416  -1.163  0.00  0.00    +0.016 A 
ATOM     18  C   UNL     1      -6.647 -12.807  -0.297  0.00  0.00    +0.018 A 
ATOM     19  C   UNL     1      -6.267 -11.689   0.425  0.00  0.00    +0.016 A 
ATOM     20  C   UNL     1      -4.994 -11.177   0.290  0.00  0.00    +0.014 A 
ATOM     21 BR   UNL     1      -8.393 -13.507  -0.101  0.00  0.00    -0.050 Br
ENDBRANCH  11  15
BRANCH   1  23
ATOM     22  N   UNL     1      -0.191  -8.710  -4.865  0.00  0.00    -0.315 N 
ATOM     23  C   UNL     1      -0.661  -9.311  -3.754  0.00  0.00    +0.218 C 
ATOM     24  O   UNL     1      -1.176  -8.648  -2.878  0.00  0.00    -0.275 OA
ATOM     25  H   UNL     1       0.221  -9.241  -5.566  0.00  0.00    +0.149 HD
BRANCH  22  26
ATOM     26  C   UNL     1      -0.300  -7.257  -5.015  0.00  0.00    +0.109 C 
BRANCH  26  27
ATOM     27  C   UNL     1       0.305  -6.835  -6.355  0.00  0.00    +0.054 C 
BRANCH  27  31
ATOM     28  C   UNL     1      -0.015  -2.597  -6.792  0.00  0.00    +0.121 A 
ATOM     29  C   UNL     1       1.108  -3.151  -6.195  0.00  0.00    +0.046 A 
ATOM     30  C   UNL     1       1.209  -4.521  -6.054  0.00  0.00    +0.007 A 
ATOM     31  C   UNL     1       0.193  -5.341  -6.509  0.00  0.00    -0.046 A 
ATOM     32  C   UNL     1      -0.927  -4.791  -7.106  0.00  0.00    +0.007 A 
ATOM     33  C   UNL     1      -1.036  -3.421  -7.243  0.00  0.00    +0.046 A 
BRANCH  28  34
ATOM     34  O   UNL     1      -0.117  -1.248  -6.931  0.00  0.00    -0.492 OA
BRANCH  34  36
ATOM     35  C   UNL     1       0.680   1.020  -6.687  0.00  0.00    +0.048 C 
ATOM     36  C   UNL     1       0.973  -0.462  -6.445  0.00  0.00    +0.225 C 
ENDBRANCH  34  36
ENDBRANCH  28  34
ENDBRANCH  27  31
ENDBRANCH  26  27
ENDBRANCH  22  26
ENDBRANCH   1  23
TORSDOF 7
