REMARK  Name = ZINC37425707
REMARK  14 active torsions:
REMARK  status: ('A' for Active; 'I' for Inactive)
REMARK    1  A    between atoms: C_1  and  C_2
REMARK    2  A    between atoms: C_5  and  N_9
REMARK    3  A    between atoms: C_6  and  C_8
REMARK    4  A    between atoms: C_12  and  C_14
REMARK    5  A    between atoms: C_14  and  C_15
REMARK    6  A    between atoms: C_14  and  C_16
REMARK    7  A    between atoms: C_14  and  C_17
REMARK    8  A    between atoms: C_18  and  C_33
REMARK    9  A    between atoms: N_24  and  C_25
REMARK   10  A    between atoms: C_25  and  C_26
REMARK   11  A    between atoms: N_28  and  C_29
REMARK   12  A    between atoms: C_29  and  C_30
REMARK   13  A    between atoms: C_30  and  C_31
REMARK   14  A    between atoms: C_30  and  C_32
REMARK                            x       y       z     vdW  Elec       q    Type
REMARK                         _______ _______ _______ _____ _____    ______ ____
ROOT
ATOM      1  N   UNL     1      -1.289  -5.932  -0.533  0.00  0.00    -0.217 N 
ATOM      2  C   UNL     1       0.052  -5.778  -0.639  0.00  0.00    +0.136 A 
ATOM      3  C   UNL     1       0.641  -6.917  -0.208  0.00  0.00    +0.034 A 
ATOM      4  C   UNL     1      -0.367  -7.804   0.171  0.00  0.00    +0.075 A 
ATOM      5  N   UNL     1      -1.524  -7.216  -0.016  0.00  0.00    -0.169 NA
ATOM      6  C   UNL     1       2.130  -7.150  -0.157  0.00  0.00    +0.118 C 
ATOM      7  S   UNL     1       2.741  -7.393  -1.863  0.00  0.00    -0.138 S 
ATOM      8  C   UNL     1       1.793  -6.137  -2.785  0.00  0.00    +0.166 C 
ATOM      9  C   UNL     1       1.724  -4.853  -2.015  0.00  0.00    +0.231 C 
ATOM     10  O   UNL     1       2.547  -3.984  -2.214  0.00  0.00    -0.274 OA
ATOM     11  N   UNL     1       0.760  -4.661  -1.109  0.00  0.00    -0.246 N 
ENDROOT
BRANCH   1  16
ATOM     12  C   UNL     1      -5.234  -2.089  -1.906  0.00  0.00    +0.044 C 
ATOM     13  C   UNL     1      -4.186  -3.110  -1.541  0.00  0.00    -0.050 A 
ATOM     14  C   UNL     1      -3.208  -3.451  -2.457  0.00  0.00    +0.005 A 
ATOM     15  C   UNL     1      -2.247  -4.386  -2.126  0.00  0.00    +0.028 A 
ATOM     16  C   UNL     1      -2.263  -4.982  -0.872  0.00  0.00    +0.070 A 
ATOM     17  C   UNL     1      -3.246  -4.637   0.045  0.00  0.00    -0.025 A 
ATOM     18  C   UNL     1      -4.202  -3.698  -0.290  0.00  0.00    +0.008 A 
ATOM     19  C   UNL     1      -3.268  -5.282   1.407  0.00  0.00    +0.046 C 
ENDBRANCH   1  16
BRANCH   6  20
ATOM     20  C   UNL     1       2.422  -8.376   0.669  0.00  0.00    +0.007 A 
ATOM     21  C   UNL     1       2.500  -9.671   0.276  0.00  0.00    +0.012 A 
ATOM     22  C   UNL     1       2.784 -10.641   1.218  0.00  0.00    +0.008 A 
ATOM     23  C   UNL     1       2.976 -10.270   2.508  0.00  0.00    +0.045 A 
ATOM     24  S   UNL     1       2.761  -8.499   2.417  0.00  0.00    -0.100 S 
ENDBRANCH   6  20
BRANCH   4  25
ATOM     25  C   UNL     1      -0.161  -9.197   0.710  0.00  0.00    +0.007 C 
ATOM     26  C   UNL     1       0.706  -9.133   1.969  0.00  0.00    +0.017 C 
ATOM     27  C   UNL     1      -1.517  -9.815   1.055  0.00  0.00    +0.017 C 
ATOM     28  C   UNL     1       0.537 -10.055  -0.347  0.00  0.00    +0.017 C 
ENDBRANCH   4  25
BRANCH  11  29
ATOM     29  C   UNL     1       0.450  -3.316  -0.618  0.00  0.00    +0.210 C 
BRANCH  29  30
ATOM     30  C   UNL     1       1.376  -2.970   0.520  0.00  0.00    +0.231 C 
ATOM     31  O   UNL     1       2.213  -3.769   0.884  0.00  0.00    -0.274 OA
ATOM     32  N   UNL     1       1.274  -1.774   1.132  0.00  0.00    -0.314 N 
ATOM     33  H   UNL     1       0.605  -1.136   0.840  0.00  0.00    +0.149 HD
BRANCH  32  34
ATOM     34  C   UNL     1       2.175  -1.438   2.237  0.00  0.00    +0.107 C 
BRANCH  34  35
ATOM     35  C   UNL     1       1.851  -0.033   2.750  0.00  0.00    -0.000 C 
ATOM     36  C   UNL     1       2.706   0.270   3.982  0.00  0.00    +0.009 C 
ATOM     37  C   UNL     1       2.154   0.992   1.655  0.00  0.00    +0.009 C 
ENDBRANCH  34  35
ENDBRANCH  32  34
ENDBRANCH  29  30
ENDBRANCH  11  29
TORSDOF 7
