REMARK  Name = ZINC02074427
REMARK  16 active torsions:
REMARK  status: ('A' for Active; 'I' for Inactive)
REMARK    1  A    between atoms: C_1  and  C_2
REMARK    2  A    between atoms: C_3  and  C_32
REMARK    3  A    between atoms: C_4  and  C_25
REMARK    4  A    between atoms: C_10  and  C_15
REMARK    5  A    between atoms: C_18  and  O_23
REMARK    6  A    between atoms: C_19  and  O_21
REMARK    7  A    between atoms: O_21  and  C_22
REMARK    8  A    between atoms: O_23  and  C_24
REMARK    9  A    between atoms: C_29  and  O_31
REMARK   10  A    between atoms: C_32  and  O_34
REMARK   11  A    between atoms: O_34  and  C_35
REMARK   12  A    between atoms: C_35  and  C_36
REMARK   13  A    between atoms: C_36  and  O_37
REMARK   14  A    between atoms: O_37  and  C_38
REMARK   15  A    between atoms: C_38  and  C_39
REMARK   16  A    between atoms: C_38  and  C_40
REMARK                            x       y       z     vdW  Elec       q    Type
REMARK                         _______ _______ _______ _____ _____    ______ ____
ROOT
ATOM      1  C   UNL     1      -0.013   1.086   0.008  0.00  0.00    +0.061 C 
ATOM      2  C   UNL     1      -0.718   1.572   1.248  0.00  0.00    +0.016 C 
ATOM      3  C   UNL     1      -0.849   2.892   1.467  0.00  0.00    +0.065 C 
ATOM      4  C   UNL     1      -1.544   3.412   2.692  0.00  0.00    +0.092 C 
ATOM      5  C   UNL     1      -2.381   2.338   3.338  0.00  0.00    +0.024 C 
ATOM      6  C   UNL     1      -2.178   1.036   3.046  0.00  0.00    +0.016 C 
ATOM      7  N   UNL     1      -1.215   0.668   2.145  0.00  0.00    -0.321 N 
ATOM      8  C   UNL     1      -2.999  -0.046   3.704  0.00  0.00    +0.059 C 
ATOM      9  C   UNL     1      -4.398   0.490   4.015  0.00  0.00    +0.032 C 
ATOM     10  C   UNL     1      -4.259   1.715   4.925  0.00  0.00    +0.088 C 
ATOM     11  C   UNL     1      -3.377   2.729   4.250  0.00  0.00    +0.162 C 
ATOM     12  O   UNL     1      -3.529   3.909   4.497  0.00  0.00    -0.292 OA
ATOM     13  H   UNL     1      -0.842  -0.367   2.147  0.00  0.00    +0.152 HD
ENDROOT
BRANCH   9  14
ATOM     14  C   UNL     1      -5.207  -0.571   4.714  0.00  0.00    -0.040 A 
ATOM     15  C   UNL     1      -4.765  -1.097   5.914  0.00  0.00    +0.008 A 
ATOM     16  C   UNL     1      -5.503  -2.071   6.559  0.00  0.00    +0.049 A 
ATOM     17  C   UNL     1      -6.690  -2.522   6.005  0.00  0.00    +0.161 A 
ATOM     18  C   UNL     1      -7.136  -1.992   4.798  0.00  0.00    +0.162 A 
ATOM     19  C   UNL     1      -6.394  -1.013   4.158  0.00  0.00    +0.053 A 
BRANCH  18  20
ATOM     20  O   UNL     1      -8.301  -2.431   4.250  0.00  0.00    -0.491 OA
ATOM     21  C   UNL     1      -8.696  -1.842   3.009  0.00  0.00    +0.277 C 
ENDBRANCH  18  20
BRANCH  17  22
ATOM     22  O   UNL     1      -7.418  -3.480   6.639  0.00  0.00    -0.491 OA
ATOM     23  C   UNL     1      -6.900  -3.977   7.874  0.00  0.00    +0.277 C 
ENDBRANCH  17  22
ENDBRANCH   9  14
BRANCH   4  24
ATOM     24  C   UNL     1      -0.507   3.891   3.675  0.00  0.00    -0.032 A 
ATOM     25  C   UNL     1       0.420   3.002   4.189  0.00  0.00    +0.005 A 
ATOM     26  C   UNL     1       1.373   3.439   5.090  0.00  0.00    +0.004 A 
ATOM     27  C   UNL     1       1.401   4.764   5.480  0.00  0.00    +0.045 A 
ATOM     28  C   UNL     1       0.473   5.657   4.966  0.00  0.00    +0.117 A 
ATOM     29  C   UNL     1      -0.479   5.218   4.058  0.00  0.00    +0.050 A 
BRANCH  28  30
ATOM     30  O   UNL     1       0.499   6.961   5.348  0.00  0.00    -0.507 OA
ATOM     31  H   UNL     1      -0.238   7.668   4.939  0.00  0.00    +0.292 HD
ENDBRANCH  28  30
ENDBRANCH   4  24
BRANCH   3  32
ATOM     32  C   UNL     1      -0.328   3.807   0.523  0.00  0.00    +0.338 C 
ATOM     33  O   UNL     1       0.233   3.397  -0.476  0.00  0.00    -0.245 OA
BRANCH  32  34
ATOM     34  O   UNL     1      -0.453   5.135   0.731  0.00  0.00    -0.459 OA
BRANCH  34  35
ATOM     35  C   UNL     1       0.097   6.001  -0.263  0.00  0.00    +0.260 C 
BRANCH  35  36
ATOM     36  C   UNL     1      -0.139   7.457   0.142  0.00  0.00    +0.201 C 
BRANCH  36  37
ATOM     37  O   UNL     1       0.590   7.743   1.337  0.00  0.00    -0.374 OA
BRANCH  37  38
ATOM     38  C   UNL     1       0.437   9.085   1.805  0.00  0.00    +0.112 C 
ATOM     39  C   UNL     1      -0.755   9.159   2.761  0.00  0.00    +0.037 C 
ATOM     40  C   UNL     1       1.708   9.517   2.539  0.00  0.00    +0.037 C 
ENDBRANCH  37  38
ENDBRANCH  36  37
ENDBRANCH  35  36
ENDBRANCH  34  35
ENDBRANCH  32  34
ENDBRANCH   3  32
TORSDOF 11
