REMARK  Name = ZINC39683635
REMARK  8 active torsions:
REMARK  status: ('A' for Active; 'I' for Inactive)
REMARK    1  A    between atoms: C_1  and  C_2
REMARK    2  A    between atoms: C_2  and  C_3
REMARK    3  A    between atoms: C_3  and  C_4
REMARK    4  A    between atoms: C_4  and  C_5
REMARK    5  A    between atoms: C_9  and  C_18
REMARK    6  A    between atoms: N_20  and  C_21
REMARK    7  A    between atoms: C_21  and  C_22
REMARK    8  A    between atoms: C_22  and  C_23
REMARK                            x       y       z     vdW  Elec       q    Type
REMARK                         _______ _______ _______ _____ _____    ______ ____
ROOT
ATOM      1  C   UNL     1      -2.987  -2.606  -0.018  0.00  0.00    +0.216 C 
ATOM      2  O   UNL     1      -3.937  -1.856   0.050  0.00  0.00    -0.276 OA
ATOM      3  N   UNL     1      -3.178  -3.940   0.011  0.00  0.00    -0.300 N 
ATOM      4  C   UNL     1      -2.152  -5.007  -0.052  0.00  0.00    +0.121 C 
ATOM      5  C   UNL     1      -2.640  -6.080   0.946  0.00  0.00    +0.100 C 
ATOM      6  C   UNL     1      -4.158  -5.856   1.051  0.00  0.00    -0.004 C 
ATOM      7  C   UNL     1      -4.463  -4.671   0.122  0.00  0.00    +0.115 C 
ATOM      8  C   UNL     1      -4.910  -7.100   0.587  0.00  0.00    -0.010 C 
ATOM      9  C   UNL     1      -6.415  -6.874   0.755  0.00  0.00    -0.082 C 
ATOM     10  N   UNL     1      -6.715  -6.594   2.164  0.00  0.00    +0.379 N 
ATOM     11  C   UNL     1      -6.063  -5.345   2.577  0.00  0.00    -0.082 C 
ATOM     12  C   UNL     1      -4.543  -5.506   2.486  0.00  0.00    -0.010 C 
ATOM     13  H   UNL     1      -7.713  -6.506   2.283  0.00  0.00    -0.086 HD
ATOM     14  H   UNL     1      -6.377  -7.353   2.736  0.00  0.00    -0.086 HD
ENDROOT
BRANCH   5  15
ATOM     15  C   UNL     1      -2.347  -7.460   0.419  0.00  0.00    +0.218 C 
ATOM     16  O   UNL     1      -2.334  -7.663  -0.777  0.00  0.00    -0.275 OA
ATOM     17  N   UNL     1      -2.098  -8.470   1.276  0.00  0.00    -0.315 N 
ATOM     18  H   UNL     1      -2.107  -8.308   2.232  0.00  0.00    +0.149 HD
BRANCH  17  19
ATOM     19  C   UNL     1      -1.812  -9.812   0.763  0.00  0.00    +0.109 C 
BRANCH  19  20
ATOM     20  C   UNL     1      -1.567 -10.765   1.936  0.00  0.00    +0.055 C 
BRANCH  20  21
ATOM     21  C   UNL     1      -1.273 -12.146   1.408  0.00  0.00    -0.032 A 
ATOM     22  C   UNL     1      -2.292 -13.072   1.291  0.00  0.00    +0.005 A 
ATOM     23  C   UNL     1      -2.023 -14.338   0.807  0.00  0.00    +0.000 A 
ATOM     24  C   UNL     1      -0.735 -14.679   0.440  0.00  0.00    +0.001 A 
ATOM     25  C   UNL     1       0.285 -13.754   0.557  0.00  0.00    +0.015 A 
ATOM     26  C   UNL     1       0.015 -12.484   1.037  0.00  0.00    +0.021 A 
ATOM     27 BR   UNL     1       1.408 -11.215   1.191  0.00  0.00    -0.050 Br
ENDBRANCH  20  21
ENDBRANCH  19  20
ENDBRANCH  17  19
ENDBRANCH   5  15
BRANCH   1  28
ATOM     28  C   UNL     1      -1.592  -2.048  -0.136  0.00  0.00    +0.096 C 
BRANCH  28  29
ATOM     29  C   UNL     1      -1.654  -0.519  -0.147  0.00  0.00    +0.009 C 
BRANCH  29  31
ATOM     30  C   UNL     1      -0.300   1.576  -0.278  0.00  0.00    +0.004 C 
ATOM     31  C   UNL     1      -0.238   0.048  -0.267  0.00  0.00    -0.003 C 
ENDBRANCH  29  31
ENDBRANCH  28  29
ENDBRANCH   1  28
TORSDOF 7
