REMARK  Name = ZINC04580422
REMARK  2 active torsions:
REMARK  status: ('A' for Active; 'I' for Inactive)
REMARK    1  A    between atoms: C_1  and  C_2
REMARK    2  A    between atoms: N_10  and  C_13
REMARK                            x       y       z     vdW  Elec       q    Type
REMARK                         _______ _______ _______ _____ _____    ______ ____
ROOT
ATOM      1  C   UNL     1      -3.658   1.541  -0.064  0.00  0.00    -0.013 C 
ATOM      2  C   UNL     1      -2.443   1.714   0.850  0.00  0.00    -0.060 C 
ATOM      3  C   UNL     1      -1.222   2.113   0.018  0.00  0.00    +0.073 C 
ATOM      4  C   UNL     1      -0.586   3.182   1.003  0.00  0.00    +0.088 C 
ATOM      5  C   UNL     1       0.734   3.321   0.442  0.00  0.00    +0.229 C 
ATOM      6  O   UNL     1       1.408   4.326   0.373  0.00  0.00    -0.275 OA
ATOM      7  N   UNL     1       1.060   2.060   0.003  0.00  0.00    -0.209 N 
ATOM      8  C   UNL     1      -0.014   1.208   0.009  0.00  0.00    +0.228 C 
ATOM      9  O   UNL     1       0.002  -0.004   0.002  0.00  0.00    -0.275 OA
ATOM     10  C   UNL     1      -1.759   3.934   1.446  0.00  0.00    +0.050 C 
ATOM     11  C   UNL     1      -1.543   4.840   2.625  0.00  0.00    -0.028 A 
ATOM     12  C   UNL     1      -1.000   4.654   3.877  0.00  0.00    +0.004 A 
ATOM     13  C   UNL     1      -0.936   5.710   4.768  0.00  0.00    +0.000 A 
ATOM     14  C   UNL     1      -1.420   6.952   4.400  0.00  0.00    +0.002 A 
ATOM     15  C   UNL     1      -1.966   7.143   3.147  0.00  0.00    +0.023 A 
ATOM     16  C   UNL     1      -2.034   6.085   2.244  0.00  0.00    +0.036 A 
ATOM     17  N   UNL     1      -2.532   6.029   0.940  0.00  0.00    -0.286 N 
ATOM     18  C   UNL     1      -2.407   4.802   0.401  0.00  0.00    +0.211 C 
ATOM     19  O   UNL     1      -2.750   4.461  -0.712  0.00  0.00    -0.277 OA
ATOM     20  H   UNL     1      -2.923   6.787   0.477  0.00  0.00    +0.155 HD
ATOM     21  N   UNL     1      -2.676   2.820   1.807  0.00  0.00    +0.394 N 
ATOM     22  H   UNL     1      -2.479   2.501   2.764  0.00  0.00    -0.083 HD
ATOM     23  H   UNL     1      -3.651   3.135   1.746  0.00  0.00    -0.083 HD
ENDROOT
BRANCH   7  24
ATOM     24  C   UNL     1       2.345   1.687  -0.404  0.00  0.00    +0.052 A 
ATOM     25  C   UNL     1       2.722   1.817  -1.723  0.00  0.00    +0.024 A 
ATOM     26  C   UNL     1       3.999   1.453  -2.138  0.00  0.00    +0.002 A 
ATOM     27  C   UNL     1       4.908   0.950  -1.258  0.00  0.00    +0.008 A 
ATOM     28  C   UNL     1       4.562   0.796   0.096  0.00  0.00    -0.016 A 
ATOM     29  C   UNL     1       3.265   1.168   0.530  0.00  0.00    +0.004 A 
ATOM     30  C   UNL     1       2.921   1.012   1.883  0.00  0.00    +0.010 A 
ATOM     31  C   UNL     1       3.835   0.509   2.757  0.00  0.00    +0.001 A 
ATOM     32  C   UNL     1       5.110   0.143   2.330  0.00  0.00    +0.001 A 
ATOM     33  C   UNL     1       5.478   0.279   1.028  0.00  0.00    +0.008 A 
ENDBRANCH   7  24
TORSDOF 1
