REMARK  Name = ZINC40045973
REMARK  11 active torsions:
REMARK  status: ('A' for Active; 'I' for Inactive)
REMARK    1  A    between atoms: C_1  and  C_2
REMARK    2  A    between atoms: C_2  and  C_3
REMARK    3  A    between atoms: C_3  and  C_4
REMARK    4  A    between atoms: C_4  and  C_5
REMARK    5  A    between atoms: C_5  and  O_6
REMARK    6  A    between atoms: O_6  and  C_7
REMARK    7  A    between atoms: C_10  and  C_15
REMARK    8  A    between atoms: C_12  and  O_13
REMARK    9  A    between atoms: O_13  and  C_14
REMARK   10  A    between atoms: C_22  and  C_36
REMARK   11  A    between atoms: C_36  and  C_37
REMARK                            x       y       z     vdW  Elec       q    Type
REMARK                         _______ _______ _______ _____ _____    ______ ____
ROOT
ATOM      1  C   UNL     1      -7.818  -6.645   0.041  0.00  0.00    +0.152 C 
ATOM      2  C   UNL     1      -8.409  -6.644  -1.331  0.00  0.00    +0.072 A 
ATOM      3  C   UNL     1      -7.922  -7.208  -2.594  0.00  0.00    +0.199 A 
ATOM      4  O   UNL     1      -6.962  -7.955  -2.664  0.00  0.00    -0.287 OA
ATOM      5  C   UNL     1      -8.709  -6.782  -3.778  0.00  0.00    +0.065 A 
ATOM      6  C   UNL     1      -8.258  -7.068  -5.066  0.00  0.00    +0.019 A 
ATOM      7  C   UNL     1      -8.992  -6.665  -6.147  0.00  0.00    -0.047 A 
ATOM      8  C   UNL     1     -10.181  -5.972  -5.965  0.00  0.00    +0.007 A 
ATOM      9  C   UNL     1     -10.642  -5.682  -4.700  0.00  0.00    +0.047 A 
ATOM     10  C   UNL     1      -9.913  -6.085  -3.581  0.00  0.00    +0.139 A 
ATOM     11  O   UNL     1     -10.389  -5.798  -2.348  0.00  0.00    -0.450 OA
ATOM     12  C   UNL     1      -9.597  -5.972  -1.271  0.00  0.00    +0.199 A 
ATOM     13  C   UNL     1      -9.804  -5.520   0.115  0.00  0.00    +0.289 C 
ATOM     14  O   UNL     1     -10.766  -4.889   0.505  0.00  0.00    -0.266 OA
ATOM     15  N   UNL     1      -8.770  -5.910   0.890  0.00  0.00    -0.232 N 
ATOM     16  C   UNL     1      -8.628  -5.663   2.248  0.00  0.00    +0.168 A 
ATOM     17  N   UNL     1      -7.641  -6.015   3.045  0.00  0.00    -0.233 NA
ATOM     18  C   UNL     1      -7.654  -5.700   4.326  0.00  0.00    +0.120 A 
ATOM     19  C   UNL     1      -8.725  -5.002   4.779  0.00  0.00    +0.068 A 
ATOM     20  S   UNL     1      -9.673  -4.835   3.275  0.00  0.00    -0.060 S 
ENDROOT
BRANCH   1  24
ATOM     21  C   UNL     1      -4.032  -4.656   0.016  0.00  0.00    +0.162 A 
ATOM     22  C   UNL     1      -5.205  -3.918   0.025  0.00  0.00    +0.050 A 
ATOM     23  C   UNL     1      -6.427  -4.564   0.033  0.00  0.00    +0.009 A 
ATOM     24  C   UNL     1      -6.482  -5.946   0.032  0.00  0.00    -0.018 A 
ATOM     25  C   UNL     1      -5.316  -6.687   0.023  0.00  0.00    +0.055 A 
ATOM     26  C   UNL     1      -4.088  -6.046   0.009  0.00  0.00    +0.162 A 
BRANCH  26  27
ATOM     27  O   UNL     1      -2.939  -6.774  -0.006  0.00  0.00    -0.491 OA
ATOM     28  C   UNL     1      -3.073  -8.197  -0.013  0.00  0.00    +0.277 C 
ENDBRANCH  26  27
BRANCH  21  29
ATOM     29  O   UNL     1      -2.829  -4.022   0.007  0.00  0.00    -0.488 OA
BRANCH  29  30
ATOM     30  C   UNL     1      -2.848  -2.593   0.015  0.00  0.00    +0.229 C 
BRANCH  30  31
ATOM     31  C   UNL     1      -1.413  -2.063   0.004  0.00  0.00    +0.041 C 
BRANCH  31  32
ATOM     32  C   UNL     1      -1.433  -0.534   0.013  0.00  0.00    +0.003 C 
BRANCH  32  34
ATOM     33  C   UNL     1      -0.019   1.526   0.010  0.00  0.00    +0.004 C 
ATOM     34  C   UNL     1       0.002  -0.004   0.002  0.00  0.00    -0.003 C 
ENDBRANCH  32  34
ENDBRANCH  31  32
ENDBRANCH  30  31
ENDBRANCH  29  30
ENDBRANCH  21  29
ENDBRANCH   1  24
BRANCH   7  35
ATOM     35  C   UNL     1      -8.509  -6.973  -7.541  0.00  0.00    +0.032 C 
ATOM     36  C   UNL     1      -9.068  -8.325  -7.987  0.00  0.00    +0.009 C 
ENDBRANCH   7  35
TORSDOF 8
