REMARK  Name = ZINC14652784
REMARK  11 active torsions:
REMARK  status: ('A' for Active; 'I' for Inactive)
REMARK    1  A    between atoms: C_1  and  C_2
REMARK    2  A    between atoms: C_2  and  C_3
REMARK    3  A    between atoms: C_3  and  O_4
REMARK    4  A    between atoms: O_4  and  C_5
REMARK    5  A    between atoms: C_10  and  C_11
REMARK    6  A    between atoms: N_13  and  N_14
REMARK    7  A    between atoms: C_15  and  C_17
REMARK    8  A    between atoms: C_17  and  O_18
REMARK    9  A    between atoms: O_18  and  C_19
REMARK   10  A    between atoms: C_22  and  C_26
REMARK   11  A    between atoms: C_26  and  C_27
REMARK                            x       y       z     vdW  Elec       q    Type
REMARK                         _______ _______ _______ _____ _____    ______ ____
ROOT
ATOM      1  C   UNL     1       2.417   3.950  -0.001  0.00  0.00    +0.264 C 
ATOM      2  O   UNL     1       3.482   3.364  -0.014  0.00  0.00    -0.269 OA
ATOM      3  N   UNL     1       2.389   5.297   0.006  0.00  0.00    -0.230 N 
ATOM      4  H   UNL     1       1.539   5.765   0.017  0.00  0.00    +0.173 HD
ENDROOT
BRANCH   1  10
ATOM      5  C   UNL     1       1.180   1.785   0.000  0.00  0.00    +0.133 A 
ATOM      6  C   UNL     1      -0.013   1.076   0.008  0.00  0.00    +0.047 A 
ATOM      7  C   UNL     1      -1.218   1.749   0.017  0.00  0.00    +0.019 A 
ATOM      8  C   UNL     1      -1.247   3.135   0.030  0.00  0.00    +0.019 A 
ATOM      9  C   UNL     1      -0.071   3.855   0.022  0.00  0.00    +0.032 A 
ATOM     10  C   UNL     1       1.155   3.186   0.008  0.00  0.00    +0.081 A 
ATOM     11 BR   UNL     1      -2.906   4.041   0.050  0.00  0.00    -0.050 Br
BRANCH   5  12
ATOM     12  O   UNL     1       2.365   1.124  -0.015  0.00  0.00    -0.491 OA
BRANCH  12  13
ATOM     13  C   UNL     1       2.312  -0.304  -0.022  0.00  0.00    +0.229 C 
BRANCH  13  15
ATOM     14  C   UNL     1       3.677  -2.396  -0.046  0.00  0.00    +0.007 C 
ATOM     15  C   UNL     1       3.734  -0.867  -0.038  0.00  0.00    +0.038 C 
ENDBRANCH  13  15
ENDBRANCH  12  13
ENDBRANCH   5  12
ENDBRANCH   1  10
BRANCH   3  16
ATOM     16  N   UNL     1       3.587   6.023  -0.002  0.00  0.00    -0.231 N 
ATOM     17  C   UNL     1       3.559   7.370   0.005  0.00  0.00    +0.267 C 
ATOM     18  O   UNL     1       2.496   7.955   0.019  0.00  0.00    -0.271 OA
ATOM     19  H   UNL     1       4.437   5.556  -0.012  0.00  0.00    +0.173 HD
BRANCH  17  20
ATOM     20  C   UNL     1       4.848   8.151  -0.003  0.00  0.00    +0.326 C 
BRANCH  20  21
ATOM     21  O   UNL     1       4.558   9.550   0.007  0.00  0.00    -0.482 OA
BRANCH  21  22
ATOM     22  C   UNL     1       5.618  10.401   0.001  0.00  0.00    +0.135 A 
ATOM     23  C   UNL     1       6.911   9.899  -0.015  0.00  0.00    +0.047 A 
ATOM     24  C   UNL     1       7.987  10.765  -0.021  0.00  0.00    +0.007 A 
ATOM     25  C   UNL     1       7.777  12.132  -0.013  0.00  0.00    -0.046 A 
ATOM     26  C   UNL     1       6.489  12.635   0.002  0.00  0.00    +0.022 A 
ATOM     27  C   UNL     1       5.409  11.773   0.004  0.00  0.00    +0.060 A 
ATOM     28 BR   UNL     1       3.648  12.462   0.017  0.00  0.00    -0.047 Br
BRANCH  25  29
ATOM     29  C   UNL     1       8.953  13.074  -0.021  0.00  0.00    +0.032 C 
ATOM     30  C   UNL     1       9.336  13.399  -1.466  0.00  0.00    +0.009 C 
ENDBRANCH  25  29
ENDBRANCH  21  22
ENDBRANCH  20  21
ENDBRANCH  17  20
ENDBRANCH   3  16
TORSDOF 9
