REMARK  Name = ZINC04929085
REMARK  6 active torsions:
REMARK  status: ('A' for Active; 'I' for Inactive)
REMARK    1  A    between atoms: C_1  and  C_2
REMARK    2  A    between atoms: C_2  and  C_3
REMARK    3  A    between atoms: C_6  and  C_9
REMARK    4  A    between atoms: C_12  and  C_20
REMARK    5  A    between atoms: C_23  and  O_26
REMARK    6  A    between atoms: O_26  and  C_27
REMARK                            x       y       z     vdW  Elec       q    Type
REMARK                         _______ _______ _______ _____ _____    ______ ____
ROOT
ATOM      1  C   UNL     1       0.002  -0.004   0.002  0.00  0.00    +0.138 C 
ATOM      2  C   UNL     1       1.453  -0.401  -0.014  0.00  0.00    +0.035 A 
ATOM      3  C   UNL     1       2.392  -1.438  -0.029  0.00  0.00    +0.099 A 
ATOM      4  N   UNL     1       3.589  -0.886  -0.037  0.00  0.00    -0.173 NA
ATOM      5  N   UNL     1       3.499   0.397  -0.029  0.00  0.00    -0.272 N 
ATOM      6  H   UNL     1       4.276   1.027  -0.033  0.00  0.00    +0.189 HD
ATOM      7  C   UNL     1       2.186   0.771  -0.015  0.00  0.00    +0.126 A 
ATOM      8  C   UNL     1       1.254   1.904   0.000  0.00  0.00    +0.263 C 
ATOM      9  O   UNL     1       1.584   3.074   0.003  0.00  0.00    -0.269 OA
ATOM     10  N   UNL     1      -0.018   1.464   0.010  0.00  0.00    -0.299 N 
ATOM     11  H   UNL     1      -0.812   2.022   0.017  0.00  0.00    +0.150 HD
ENDROOT
BRANCH   1  15
ATOM     12  C   UNL     1      -1.966  -1.481  -3.490  0.00  0.00    -0.048 A 
ATOM     13  C   UNL     1      -2.123  -2.132  -2.280  0.00  0.00    +0.004 A 
ATOM     14  C   UNL     1      -1.486  -1.654  -1.150  0.00  0.00    +0.006 A 
ATOM     15  C   UNL     1      -0.692  -0.525  -1.230  0.00  0.00    -0.023 A 
ATOM     16  C   UNL     1      -0.538   0.128  -2.438  0.00  0.00    +0.006 A 
ATOM     17  C   UNL     1      -1.171  -0.353  -3.570  0.00  0.00    +0.004 A 
BRANCH  12  19
ATOM     18  C   UNL     1      -4.039  -1.352  -4.843  0.00  0.00    +0.009 C 
ATOM     19  C   UNL     1      -2.660  -2.003  -4.722  0.00  0.00    +0.032 C 
ENDBRANCH  12  19
ENDBRANCH   1  15
BRANCH   3  20
ATOM     20  C   UNL     1       2.095  -2.892  -0.033  0.00  0.00    +0.003 A 
ATOM     21  C   UNL     1       0.998  -3.382   0.673  0.00  0.00    +0.013 A 
ATOM     22  C   UNL     1       0.721  -4.734   0.662  0.00  0.00    +0.046 A 
ATOM     23  C   UNL     1       1.541  -5.606  -0.040  0.00  0.00    +0.120 A 
ATOM     24  C   UNL     1       2.638  -5.121  -0.739  0.00  0.00    +0.046 A 
ATOM     25  C   UNL     1       2.916  -3.770  -0.737  0.00  0.00    +0.013 A 
BRANCH  23  26
ATOM     26  O   UNL     1       1.269  -6.938  -0.043  0.00  0.00    -0.495 OA
ATOM     27  C   UNL     1       0.125  -7.368   0.697  0.00  0.00    +0.277 C 
ENDBRANCH  23  26
ENDBRANCH   3  20
TORSDOF 4
