REMARK  Name = ZINC55896681
REMARK  5 active torsions:
REMARK  status: ('A' for Active; 'I' for Inactive)
REMARK    1  A    between atoms: C_4  and  N_14
REMARK    2  A    between atoms: C_6  and  N_7
REMARK    3  A    between atoms: N_14  and  C_15
REMARK    4  A    between atoms: C_15  and  C_16
REMARK    5  A    between atoms: N_21  and  C_22
REMARK                            x       y       z     vdW  Elec       q    Type
REMARK                         _______ _______ _______ _____ _____    ______ ____
ROOT
ATOM      1  N   UNL     1       3.626  -0.646  -0.036  0.00  0.00    -0.333 N 
ATOM      2  H   UNL     1       4.458  -0.147  -0.042  0.00  0.00    +0.147 HD
ENDROOT
BRANCH   1   6
ATOM      3  C   UNL     1      -0.017   1.385   0.010  0.00  0.00    +0.027 A 
ATOM      4  C   UNL     1       1.170   2.094   0.002  0.00  0.00    +0.042 A 
ATOM      5  C   UNL     1       2.379   1.423  -0.013  0.00  0.00    +0.144 A 
ATOM      6  C   UNL     1       2.404   0.032  -0.021  0.00  0.00    +0.065 A 
ATOM      7  C   UNL     1       1.214  -0.681  -0.013  0.00  0.00    +0.050 A 
ATOM      8  C   UNL     1       0.002  -0.004   0.002  0.00  0.00    +0.053 A 
ATOM      9  F   UNL     1       3.537   2.119  -0.021  0.00  0.00    -0.204 F 
BRANCH   8  10
ATOM     10  N   UNL     1      -1.199  -0.720   0.010  0.00  0.00    -0.207 N 
ATOM     11  C   UNL     1      -1.412  -2.091   0.508  0.00  0.00    +0.133 C 
ATOM     12  C   UNL     1      -2.854  -2.269   1.020  0.00  0.00    +0.045 C 
ATOM     13  C   UNL     1      -3.755  -1.621  -0.075  0.00  0.00    +0.190 C 
ATOM     14  S   UNL     1      -2.693  -0.193  -0.538  0.00  0.00    +0.046 S 
ATOM     15  O   UNL     1      -3.006   0.946   0.252  0.00  0.00    -0.155 OA
ATOM     16  O   UNL     1      -2.567  -0.098  -1.950  0.00  0.00    -0.155 OA
ENDBRANCH   8  10
ENDBRANCH   1   6
BRANCH   1  17
ATOM     17  C   UNL     1       3.651  -2.111  -0.044  0.00  0.00    +0.198 C 
BRANCH  17  18
ATOM     18  C   UNL     1       5.080  -2.589  -0.061  0.00  0.00    +0.237 C 
ATOM     19  O   UNL     1       5.988  -1.785  -0.066  0.00  0.00    -0.274 OA
ATOM     20  N   UNL     1       5.349  -3.909  -0.071  0.00  0.00    -0.239 N 
ATOM     21  C   UNL     1       6.627  -4.337  -0.086  0.00  0.00    +0.306 C 
ATOM     22  O   UNL     1       7.537  -3.531  -0.090  0.00  0.00    -0.252 OA
ATOM     23  N   UNL     1       6.896  -5.658  -0.096  0.00  0.00    -0.296 N 
ATOM     24  H   UNL     1       4.623  -4.552  -0.067  0.00  0.00    +0.159 HD
ATOM     25  H   UNL     1       6.170  -6.301  -0.092  0.00  0.00    +0.151 HD
BRANCH  23  26
ATOM     26  C   UNL     1       8.285  -6.122  -0.112  0.00  0.00    +0.074 C 
ATOM     27  C   UNL     1       8.790  -6.230  -1.566  0.00  0.00    +0.022 C 
ATOM     28  C   UNL     1       9.692  -7.489  -1.562  0.00  0.00    +0.002 C 
ATOM     29  C   UNL     1       8.932  -8.453  -0.618  0.00  0.00    +0.002 C 
ATOM     30  C   UNL     1       8.376  -7.535   0.491  0.00  0.00    +0.022 C 
ENDBRANCH  23  26
ENDBRANCH  17  18
ENDBRANCH   1  17
TORSDOF 5
