REMARK  Name = ZINC25011745
REMARK  6 active torsions:
REMARK  status: ('A' for Active; 'I' for Inactive)
REMARK    1  A    between atoms: C_1  and  C_2
REMARK    2  A    between atoms: N_5  and  C_8
REMARK    3  A    between atoms: C_8  and  C_9
REMARK    4  A    between atoms: C_15  and  C_17
REMARK    5  A    between atoms: C_17  and  C_18
REMARK    6  A    between atoms: C_18  and  C_19
REMARK                            x       y       z     vdW  Elec       q    Type
REMARK                         _______ _______ _______ _____ _____    ______ ____
ROOT
ATOM      1  C   UNL     1       4.634   0.918  -0.037  0.00  0.00    +0.034 A 
ATOM      2  C   UNL     1       4.435  -0.422  -0.043  0.00  0.00    +0.070 A 
ATOM      3  S   UNL     1       2.649  -0.492  -0.026  0.00  0.00    -0.060 S 
ATOM      4  C   UNL     1       2.357   1.220  -0.014  0.00  0.00    +0.164 A 
ATOM      5  N   UNL     1       3.580   1.711  -0.028  0.00  0.00    -0.231 NA
ATOM      6  N   UNL     1       1.143   1.898   0.001  0.00  0.00    -0.265 N 
ATOM      7  C   UNL     1      -0.014   1.209   0.009  0.00  0.00    +0.219 C 
ATOM      8  O   UNL     1       0.002  -0.004   0.002  0.00  0.00    -0.275 OA
ATOM      9  H   UNL     1       1.129   2.998   0.007  0.00  0.00    +0.157 HD
ENDROOT
BRANCH   1  10
ATOM     10  C   UNL     1       6.029   1.490  -0.047  0.00  0.00    -0.022 C 
BRANCH  10  15
ATOM     11  C   UNL     1       7.458   3.592  -5.167  0.00  0.00    +0.007 C 
ATOM     12  C   UNL     1       7.034   3.469  -3.702  0.00  0.00    -0.018 C 
ATOM     13  C   UNL     1       8.127   2.742  -2.912  0.00  0.00    -0.016 C 
ATOM     14  C   UNL     1       7.671   2.568  -1.462  0.00  0.00    -0.078 C 
ATOM     15  N   UNL     1       6.423   1.796  -1.429  0.00  0.00    +0.383 N 
ATOM     16  C   UNL     1       5.346   2.496  -2.140  0.00  0.00    -0.078 C 
ATOM     17  C   UNL     1       5.732   2.668  -3.611  0.00  0.00    -0.016 C 
ATOM     18  H   UNL     1       6.604   0.843  -1.949  0.00  0.00    -0.081 HD
ENDBRANCH  10  15
ENDBRANCH   1  10
BRANCH   7  19
ATOM     19  C   UNL     1      -1.330   1.944   0.019  0.00  0.00    +0.104 C 
BRANCH  19  20
ATOM     20  C   UNL     1      -2.479   0.934   0.019  0.00  0.00    +0.083 C 
BRANCH  20  21
ATOM     21  C   UNL     1      -3.794   1.670   0.029  0.00  0.00    +0.111 A 
ATOM     22  N   UNL     1      -4.953   0.963   0.031  0.00  0.00    -0.310 N 
ATOM     23  H   UNL     1      -4.926  -0.137   0.025  0.00  0.00    +0.170 HD
ATOM     24  C   UNL     1      -6.150   1.580   0.040  0.00  0.00    +0.260 A 
ATOM     25  O   UNL     1      -7.182   0.932   0.041  0.00  0.00    -0.267 OA
ATOM     26  C   UNL     1      -6.187   3.012   0.048  0.00  0.00    +0.075 A 
ATOM     27  C   UNL     1      -7.368   3.888   0.058  0.00  0.00    -0.023 A 
ATOM     28  C   UNL     1      -7.141   5.213   0.066  0.00  0.00    -0.004 A 
ATOM     29  S   UNL     1      -5.370   5.376   0.059  0.00  0.00    -0.073 S 
ATOM     30  C   UNL     1      -4.942   3.655   0.046  0.00  0.00    +0.116 A 
ATOM     31  N   UNL     1      -3.797   2.976   0.042  0.00  0.00    -0.227 NA
ATOM     32  C   UNL     1      -8.419   6.008   0.081  0.00  0.00    +0.043 C 
ATOM     33  C   UNL     1      -9.501   4.995   0.515  0.00  0.00    +0.010 C 
ATOM     34  C   UNL     1      -8.882   3.659   0.057  0.00  0.00    +0.037 C 
ENDBRANCH  20  21
ENDBRANCH  19  20
ENDBRANCH   7  19
TORSDOF 5
