REMARK  Name = ZINC60041770
REMARK  11 active torsions:
REMARK  status: ('A' for Active; 'I' for Inactive)
REMARK    1  A    between atoms: C_1  and  C_2
REMARK    2  A    between atoms: C_2  and  C_26
REMARK    3  A    between atoms: N_5  and  N_9
REMARK    4  A    between atoms: C_10  and  C_12
REMARK    5  A    between atoms: C_12  and  N_13
REMARK    6  A    between atoms: N_13  and  C_14
REMARK    7  A    between atoms: N_13  and  C_21
REMARK    8  A    between atoms: C_14  and  C_15
REMARK    9  A    between atoms: C_21  and  C_22
REMARK   10  A    between atoms: C_26  and  C_27
REMARK   11  A    between atoms: C_27  and  C_28
REMARK                            x       y       z     vdW  Elec       q    Type
REMARK                         _______ _______ _______ _____ _____    ______ ____
ROOT
ATOM      1  N   UNL     1       2.974  -2.408  -1.023  0.00  0.00    -0.225 N 
ATOM      2  C   UNL     1       4.103  -1.698  -1.216  0.00  0.00    +0.213 C 
ATOM      3  O   UNL     1       4.238  -0.616  -0.684  0.00  0.00    -0.276 OA
ATOM      4  H   UNL     1       2.867  -3.273  -1.448  0.00  0.00    +0.173 HD
ENDROOT
BRANCH   1   9
ATOM      5  C   UNL     1      -0.242   0.549   0.535  0.00  0.00    +0.041 C 
ATOM      6  C   UNL     1       0.016  -0.959   0.552  0.00  0.00    +0.112 C 
ATOM      7  C   UNL     1       0.801  -1.380  -0.675  0.00  0.00    +0.263 C 
ATOM      8  O   UNL     1       0.462  -1.273  -1.834  0.00  0.00    -0.271 OA
ATOM      9  N   UNL     1       1.955  -1.896  -0.208  0.00  0.00    -0.137 N 
ATOM     10  C   UNL     1       2.008  -1.861   1.128  0.00  0.00    +0.326 C 
ATOM     11  O   UNL     1       2.949  -2.270   1.778  0.00  0.00    -0.251 OA
ATOM     12  N   UNL     1       0.902  -1.321   1.671  0.00  0.00    -0.284 N 
ATOM     13  H   UNL     1       0.723  -1.195   2.616  0.00  0.00    +0.151 HD
BRANCH   6  14
ATOM     14  C   UNL     1      -1.304  -1.728   0.639  0.00  0.00    +0.040 C 
BRANCH  14  15
ATOM     15  C   UNL     1      -2.047  -1.322   1.914  0.00  0.00    +0.038 C 
BRANCH  15  16
ATOM     16  C   UNL     1      -3.347  -2.079   2.001  0.00  0.00    -0.047 A 
ATOM     17  C   UNL     1      -4.493  -1.552   1.435  0.00  0.00    +0.003 A 
ATOM     18  C   UNL     1      -5.686  -2.246   1.514  0.00  0.00    +0.000 A 
ATOM     19  C   UNL     1      -5.732  -3.468   2.159  0.00  0.00    +0.000 A 
ATOM     20  C   UNL     1      -4.586  -3.996   2.723  0.00  0.00    +0.000 A 
ATOM     21  C   UNL     1      -3.393  -3.304   2.640  0.00  0.00    +0.003 A 
ENDBRANCH  15  16
ENDBRANCH  14  15
ENDBRANCH   6  14
ENDBRANCH   1   9
BRANCH   2  22
ATOM     22  C   UNL     1       5.199  -2.248  -2.091  0.00  0.00    +0.021 C 
BRANCH  22  23
ATOM     23  N   UNL     1       6.314  -1.292  -2.140  0.00  0.00    +0.388 N 
ATOM     24  H   UNL     1       5.972  -0.392  -2.441  0.00  0.00    -0.081 HD
BRANCH  23  25
ATOM     25  C   UNL     1       7.330  -1.772  -3.087  0.00  0.00    -0.042 C 
BRANCH  25  26
ATOM     26  C   UNL     1       8.400  -0.724  -3.249  0.00  0.00    -0.064 A 
ATOM     27  C   UNL     1       8.219   0.315  -4.143  0.00  0.00    +0.002 A 
ATOM     28  C   UNL     1       9.201   1.277  -4.292  0.00  0.00    +0.000 A 
ATOM     29  C   UNL     1      10.363   1.200  -3.548  0.00  0.00    +0.000 A 
ATOM     30  C   UNL     1      10.543   0.161  -2.654  0.00  0.00    +0.000 A 
ATOM     31  C   UNL     1       9.559  -0.798  -2.501  0.00  0.00    +0.002 A 
ENDBRANCH  25  26
ENDBRANCH  23  25
BRANCH  23  32
ATOM     32  C   UNL     1       6.910  -1.168  -0.803  0.00  0.00    -0.074 C 
BRANCH  32  33
ATOM     33  C   UNL     1       7.330  -2.551  -0.301  0.00  0.00    -0.028 C 
ATOM     34  C   UNL     1       6.222  -3.289   0.468  0.00  0.00    +0.002 C 
ATOM     35  C   UNL     1       7.319  -3.762   1.437  0.00  0.00    +0.000 C 
ATOM     36  C   UNL     1       8.115  -2.514   1.021  0.00  0.00    +0.002 C 
ENDBRANCH  32  33
ENDBRANCH  23  32
ENDBRANCH  22  23
ENDBRANCH   2  22
TORSDOF 10
