REMARK  Name = ZINC03007313
REMARK  8 active torsions:
REMARK  status: ('A' for Active; 'I' for Inactive)
REMARK    1  A    between atoms: C_1  and  C_2
REMARK    2  A    between atoms: N_5  and  S_11
REMARK    3  A    between atoms: C_7  and  C_10
REMARK    4  A    between atoms: S_11  and  C_14
REMARK    5  A    between atoms: C_17  and  C_20
REMARK    6  A    between atoms: N_22  and  C_23
REMARK    7  A    between atoms: C_24  and  C_35
REMARK    8  A    between atoms: C_32  and  C_34
REMARK                            x       y       z     vdW  Elec       q    Type
REMARK                         _______ _______ _______ _____ _____    ______ ____
ROOT
ATOM      1  C   UNL     1       3.627   2.191  -0.053  0.00  0.00    +0.249 C 
ATOM      2  O   UNL     1       4.683   1.588  -0.072  0.00  0.00    -0.270 OA
ATOM      3  N   UNL     1       3.621   3.538  -0.035  0.00  0.00    -0.275 N 
ATOM      4  H   UNL     1       2.778   4.019  -0.020  0.00  0.00    +0.156 HD
ENDROOT
BRANCH   3   5
ATOM      5  C   UNL     1       4.817   4.237  -0.040  0.00  0.00    +0.085 A 
ATOM      6  C   UNL     1       5.013   5.611  -0.030  0.00  0.00    +0.068 A 
ATOM      7  C   UNL     1       6.384   6.095  -0.035  0.00  0.00    -0.020 A 
ATOM      8  C   UNL     1       7.331   5.131  -0.058  0.00  0.00    +0.013 A 
ATOM      9  S   UNL     1       6.431   3.608  -0.067  0.00  0.00    -0.076 S 
ATOM     10  C   UNL     1       8.817   5.332  -0.068  0.00  0.00    +0.150 C 
ATOM     11  N   UNL     1       9.060   6.772  -0.284  0.00  0.00    -0.297 N 
ATOM     12  C   UNL     1       8.206   7.721   0.445  0.00  0.00    +0.113 C 
ATOM     13  C   UNL     1       6.758   7.572  -0.024  0.00  0.00    +0.056 C 
ATOM     14  C   UNL     1      10.029   7.200  -1.117  0.00  0.00    +0.213 C 
ATOM     15  O   UNL     1      10.145   8.384  -1.355  0.00  0.00    -0.276 OA
ATOM     16  C   UNL     1      10.967   6.208  -1.755  0.00  0.00    +0.109 C 
BRANCH   6  17
ATOM     17  C   UNL     1       3.880   6.540  -0.012  0.00  0.00    +0.244 C 
ATOM     18  O   UNL     1       3.420   6.917   1.050  0.00  0.00    -0.270 OA
ATOM     19  N   UNL     1       3.347   6.977  -1.170  0.00  0.00    -0.325 N 
ATOM     20  H   UNL     1       3.714   6.676  -2.016  0.00  0.00    +0.145 HD
ATOM     21  H   UNL     1       2.597   7.591  -1.158  0.00  0.00    +0.145 HD
ENDBRANCH   6  17
ENDBRANCH   3   5
BRANCH   1  25
ATOM     22  C   UNL     1      -0.040   0.049  -0.040  0.00  0.00    +0.106 A 
ATOM     23  C   UNL     1      -0.050   1.432  -0.022  0.00  0.00    +0.029 A 
ATOM     24  C   UNL     1       1.137   2.134  -0.026  0.00  0.00    +0.015 A 
ATOM     25  C   UNL     1       2.351   1.445  -0.048  0.00  0.00    +0.037 A 
ATOM     26  C   UNL     1       2.355   0.049  -0.066  0.00  0.00    +0.015 A 
ATOM     27  C   UNL     1       1.160  -0.640  -0.061  0.00  0.00    +0.029 A 
BRANCH  22  28
ATOM     28  S   UNL     1      -1.562  -0.840  -0.035  0.00  0.00    +0.061 S 
ATOM     29  O   UNL     1      -1.278  -2.127   0.497  0.00  0.00    -0.153 OA
ATOM     30  O   UNL     1      -2.534   0.023   0.538  0.00  0.00    -0.153 OA
BRANCH  28  34
ATOM     31  C   UNL     1      -0.668  -3.025  -4.564  0.00  0.00    +0.039 C 
ATOM     32  C   UNL     1      -0.952  -1.804  -3.687  0.00  0.00    +0.131 C 
ATOM     33  C   UNL     1      -1.567  -2.260  -2.358  0.00  0.00    +0.140 C 
ATOM     34  N   UNL     1      -2.002  -1.067  -1.615  0.00  0.00    -0.172 NA
ATOM     35  C   UNL     1      -2.844  -0.085  -2.315  0.00  0.00    +0.140 C 
ATOM     36  C   UNL     1      -2.163   0.268  -3.647  0.00  0.00    +0.131 C 
ATOM     37  O   UNL     1      -1.871  -0.938  -4.357  0.00  0.00    -0.371 OA
ATOM     38  C   UNL     1      -0.864   1.029  -3.375  0.00  0.00    +0.039 C 
ENDBRANCH  28  34
ENDBRANCH  22  28
ENDBRANCH   1  25
TORSDOF 5
