REMARK  Name = ZINC06894902
REMARK  3 active torsions:
REMARK  status: ('A' for Active; 'I' for Inactive)
REMARK    1  A    between atoms: C_1  and  N_2
REMARK    2  A    between atoms: C_12  and  C_20
REMARK    3  A    between atoms: N_22  and  C_23
REMARK                            x       y       z     vdW  Elec       q    Type
REMARK                         _______ _______ _______ _____ _____    ______ ____
ROOT
ATOM      1  C   UNL     1      -3.529   7.747  -2.637  0.00  0.00    +0.138 C 
ATOM      2  N   UNL     1      -2.962   6.873  -1.607  0.00  0.00    -0.275 N 
ATOM      3  C   UNL     1      -3.344   5.543  -1.417  0.00  0.00    +0.038 A 
ATOM      4  C   UNL     1      -4.277   4.759  -2.091  0.00  0.00    +0.024 A 
ATOM      5  C   UNL     1      -4.484   3.449  -1.713  0.00  0.00    +0.002 A 
ATOM      6  C   UNL     1      -3.768   2.903  -0.663  0.00  0.00    +0.000 A 
ATOM      7  C   UNL     1      -2.839   3.675   0.011  0.00  0.00    +0.004 A 
ATOM      8  C   UNL     1      -2.629   4.983  -0.364  0.00  0.00    -0.027 A 
ATOM      9  C   UNL     1      -1.717   6.069   0.143  0.00  0.00    +0.052 C 
ATOM     10  C   UNL     1      -2.014   7.259  -0.733  0.00  0.00    +0.214 C 
ATOM     11  O   UNL     1      -1.498   8.355  -0.663  0.00  0.00    -0.276 OA
ATOM     12  C   UNL     1      -0.245   5.649   0.007  0.00  0.00    +0.076 C 
ATOM     13  C   UNL     1       0.412   6.263   1.273  0.00  0.00    -0.003 C 
ATOM     14  C   UNL     1      -0.719   6.114   2.319  0.00  0.00    -0.066 C 
ATOM     15  C   UNL     1      -2.257   7.817   1.724  0.00  0.00    -0.077 C 
ATOM     16  C   UNL     1      -1.839   8.111   3.185  0.00  0.00    -0.020 C 
ATOM     17  C   UNL     1      -0.585   7.227   3.370  0.00  0.00    -0.017 C 
ATOM     18  N   UNL     1      -1.943   6.386   1.571  0.00  0.00    +0.394 N 
ATOM     19  H   UNL     1      -2.715   5.815   1.935  0.00  0.00    -0.079 HD
ENDROOT
BRANCH  12  20
ATOM     20  C   UNL     1      -0.115   4.148   0.013  0.00  0.00    +0.220 C 
ATOM     21  O   UNL     1      -0.155   3.540   1.062  0.00  0.00    -0.275 OA
ATOM     22  N   UNL     1       0.046   3.481  -1.147  0.00  0.00    -0.283 N 
ATOM     23  H   UNL     1       0.138   3.970  -1.979  0.00  0.00    +0.155 HD
BRANCH  22  24
ATOM     24  C   UNL     1       0.080   2.080  -1.150  0.00  0.00    +0.072 A 
ATOM     25  C   UNL     1       0.648   1.396  -0.085  0.00  0.00    +0.064 A 
ATOM     26  C   UNL     1       0.679   0.013  -0.091  0.00  0.00    +0.125 A 
ATOM     27  C   UNL     1       0.144  -0.688  -1.158  0.00  0.00    +0.041 A 
ATOM     28  C   UNL     1      -0.423  -0.009  -2.220  0.00  0.00    +0.043 A 
ATOM     29  C   UNL     1      -0.457   1.373  -2.220  0.00  0.00    +0.145 A 
ATOM     30  F   UNL     1      -1.012   2.036  -3.258  0.00  0.00    -0.204 F 
ATOM     31  F   UNL     1       1.232  -0.654   0.946  0.00  0.00    -0.205 F 
ENDBRANCH  22  24
ENDBRANCH  12  20
TORSDOF 2
