REMARK  Name = ZINC10039337
REMARK  6 active torsions:
REMARK  status: ('A' for Active; 'I' for Inactive)
REMARK    1  A    between atoms: C_3  and  S_21
REMARK    2  A    between atoms: C_6  and  N_7
REMARK    3  A    between atoms: C_8  and  C_10
REMARK    4  A    between atoms: C_11  and  C_12
REMARK    5  A    between atoms: S_21  and  N_24
REMARK    6  A    between atoms: N_24  and  C_25
REMARK                            x       y       z     vdW  Elec       q    Type
REMARK                         _______ _______ _______ _____ _____    ______ ____
ROOT
ATOM      1  C   UNL     1      -4.778  -0.579   0.465  0.00  0.00    +0.025 A 
ATOM      2  C   UNL     1      -5.932  -1.337   0.466  0.00  0.00    +0.030 A 
ATOM      3  C   UNL     1      -7.168  -0.717   0.464  0.00  0.00    +0.109 A 
ATOM      4  C   UNL     1      -7.253   0.663   0.466  0.00  0.00    +0.030 A 
ATOM      5  C   UNL     1      -6.103   1.427   0.470  0.00  0.00    +0.025 A 
ATOM      6  C   UNL     1      -4.859   0.808   0.472  0.00  0.00    +0.034 A 
ENDROOT
BRANCH   6   7
ATOM      7  N   UNL     1      -3.693   1.578   0.476  0.00  0.00    -0.282 N 
ATOM      8  C   UNL     1      -3.657   2.743   1.154  0.00  0.00    +0.241 C 
ATOM      9  O   UNL     1      -4.663   3.166   1.692  0.00  0.00    -0.270 OA
ATOM     10  H   UNL     1      -2.910   1.275  -0.009  0.00  0.00    +0.155 HD
BRANCH   8  11
ATOM     11  C   UNL     1      -2.408   3.498   1.243  0.00  0.00    +0.068 C 
ATOM     12  C   UNL     1      -2.371   4.664   1.922  0.00  0.00    +0.013 C 
BRANCH  12  13
ATOM     13  C   UNL     1      -1.114   5.420   2.017  0.00  0.00    -0.021 A 
ATOM     14  C   UNL     1       0.045   4.936   1.400  0.00  0.00    +0.012 A 
ATOM     15  C   UNL     1       1.221   5.647   1.491  0.00  0.00    +0.050 A 
ATOM     16  C   UNL     1       1.262   6.844   2.194  0.00  0.00    +0.166 A 
ATOM     17  C   UNL     1       0.110   7.333   2.812  0.00  0.00    +0.167 A 
ATOM     18  C   UNL     1      -1.074   6.630   2.721  0.00  0.00    +0.057 A 
ATOM     19  O   UNL     1       0.415   8.512   3.429  0.00  0.00    -0.453 OA
ATOM     20  C   UNL     1       1.656   8.944   2.841  0.00  0.00    +0.466 C 
ATOM     21  O   UNL     1       2.284   7.717   2.426  0.00  0.00    -0.453 OA
ENDBRANCH  12  13
ENDBRANCH   8  11
ENDBRANCH   6   7
BRANCH   3  22
ATOM     22  S   UNL     1      -8.639  -1.688   0.459  0.00  0.00    +0.072 S 
ATOM     23  O   UNL     1      -8.320  -2.910   1.111  0.00  0.00    -0.150 OA
ATOM     24  O   UNL     1      -9.688  -0.839   0.903  0.00  0.00    -0.150 OA
BRANCH  22  25
ATOM     25  N   UNL     1      -8.971  -2.066  -1.119  0.00  0.00    -0.216 N 
ATOM     26  H   UNL     1      -9.787  -1.744  -1.533  0.00  0.00    +0.174 HD
BRANCH  25  27
ATOM     27  C   UNL     1      -8.076  -2.847  -1.853  0.00  0.00    +0.051 A 
ATOM     28  C   UNL     1      -7.270  -2.259  -2.819  0.00  0.00    +0.044 A 
ATOM     29  C   UNL     1      -6.381  -3.034  -3.541  0.00  0.00    +0.044 A 
ATOM     30  C   UNL     1      -6.302  -4.396  -3.309  0.00  0.00    +0.040 A 
ATOM     31  C   UNL     1      -7.108  -4.986  -2.351  0.00  0.00    +0.044 A 
ATOM     32  C   UNL     1      -7.995  -4.215  -1.622  0.00  0.00    +0.044 A 
ATOM     33 CL   UNL     1      -7.006  -6.694  -2.063  0.00  0.00    -0.083 Cl
ATOM     34 CL   UNL     1      -5.369  -2.299  -4.745  0.00  0.00    -0.083 Cl
ENDBRANCH  25  27
ENDBRANCH  22  25
ENDBRANCH   3  22
TORSDOF 6
