REMARK  Name = ZINC39466379
REMARK  7 active torsions:
REMARK  status: ('A' for Active; 'I' for Inactive)
REMARK    1  A    between atoms: C_1  and  N_2
REMARK    2  A    between atoms: N_2  and  C_3
REMARK    3  A    between atoms: N_2  and  C_13
REMARK    4  A    between atoms: C_3  and  C_4
REMARK    5  A    between atoms: C_13  and  C_14
REMARK    6  A    between atoms: N_16  and  C_29
REMARK    7  A    between atoms: C_18  and  C_20
REMARK                            x       y       z     vdW  Elec       q    Type
REMARK                         _______ _______ _______ _____ _____    ______ ____
ROOT
ATOM      1  C   UNL     1      -0.286  -0.163  -2.406  0.00  0.00    -0.018 C 
ATOM      2  C   UNL     1      -0.163   0.884  -3.197  0.00  0.00    +0.096 C 
ATOM      3  N   UNL     1      -1.144   0.907  -4.170  0.00  0.00    -0.242 N 
ATOM      4  N   UNL     1      -1.981  -0.165  -4.049  0.00  0.00    -0.225 NA
ATOM      5  C   UNL     1      -1.485  -0.945  -2.898  0.00  0.00    +0.132 C 
ATOM      6  H   UNL     1      -1.976  -0.724  -4.889  0.00  0.00    +0.146 HD
ENDROOT
BRANCH   5   7
ATOM      7  C   UNL     1      -1.069  -2.327  -3.334  0.00  0.00    -0.021 A 
ATOM      8  C   UNL     1      -0.489  -2.513  -4.575  0.00  0.00    +0.009 A 
ATOM      9  C   UNL     1      -0.106  -3.779  -4.979  0.00  0.00    +0.050 A 
ATOM     10  C   UNL     1      -0.303  -4.864  -4.140  0.00  0.00    +0.166 A 
ATOM     11  C   UNL     1      -0.887  -4.676  -2.890  0.00  0.00    +0.167 A 
ATOM     12  C   UNL     1      -1.264  -3.404  -2.489  0.00  0.00    +0.055 A 
ATOM     13  O   UNL     1      -0.971  -5.885  -2.261  0.00  0.00    -0.453 OA
ATOM     14  C   UNL     1      -0.808  -6.869  -3.299  0.00  0.00    +0.466 C 
ATOM     15  O   UNL     1      -0.021  -6.190  -4.295  0.00  0.00    -0.453 OA
ENDBRANCH   5   7
BRANCH   3  16
ATOM     16  C   UNL     1      -1.264   1.897  -5.148  0.00  0.00    +0.049 A 
ATOM     17  C   UNL     1      -2.291   1.834  -6.081  0.00  0.00    +0.025 A 
ATOM     18  C   UNL     1      -2.407   2.815  -7.046  0.00  0.00    +0.002 A 
ATOM     19  C   UNL     1      -1.501   3.859  -7.086  0.00  0.00    +0.000 A 
ATOM     20  C   UNL     1      -0.476   3.925  -6.159  0.00  0.00    +0.002 A 
ATOM     21  C   UNL     1      -0.359   2.951  -5.187  0.00  0.00    +0.025 A 
ENDBRANCH   3  16
BRANCH   1  22
ATOM     22  C   UNL     1       0.600  -0.516  -1.239  0.00  0.00    +0.118 C 
BRANCH  22  24
ATOM     23  C   UNL     1      -0.018   1.465   0.010  0.00  0.00    +0.105 C 
ATOM     24  N   UNL     1       0.002  -0.004   0.002  0.00  0.00    -0.294 NA
BRANCH  24  25
ATOM     25  C   UNL     1       0.706  -0.527   1.180  0.00  0.00    +0.158 C 
BRANCH  25  26
ATOM     26  C   UNL     1      -0.073  -0.186   2.424  0.00  0.00    +0.122 A 
ATOM     27  N   UNL     1       0.012   0.938   3.072  0.00  0.00    -0.231 NA
ATOM     28  C   UNL     1      -0.824   0.914   4.142  0.00  0.00    +0.089 A 
ATOM     29  C   UNL     1      -1.124   1.831   5.152  0.00  0.00    +0.030 A 
ATOM     30  C   UNL     1      -2.035   1.508   6.117  0.00  0.00    +0.002 A 
ATOM     31  C   UNL     1      -2.669   0.274   6.107  0.00  0.00    +0.002 A 
ATOM     32  C   UNL     1      -2.388  -0.648   5.120  0.00  0.00    +0.028 A 
ATOM     33  C   UNL     1      -1.465  -0.337   4.131  0.00  0.00    +0.066 A 
ATOM     34  N   UNL     1      -0.974  -1.007   3.029  0.00  0.00    -0.341 N 
ATOM     35  H   UNL     1      -1.222  -1.900   2.741  0.00  0.00    +0.167 HD
ENDBRANCH  25  26
ENDBRANCH  24  25
ENDBRANCH  22  24
ENDBRANCH   1  22
TORSDOF 6
