REMARK  Name = ZINC66360602
REMARK  7 active torsions:
REMARK  status: ('A' for Active; 'I' for Inactive)
REMARK    1  A    between atoms: C_1  and  C_2
REMARK    2  A    between atoms: C_5  and  C_8
REMARK    3  A    between atoms: C_8  and  C_10
REMARK    4  A    between atoms: C_8  and  N_18
REMARK    5  A    between atoms: C_13  and  O_16
REMARK    6  A    between atoms: O_16  and  C_17
REMARK    7  A    between atoms: N_21  and  C_22
REMARK                            x       y       z     vdW  Elec       q    Type
REMARK                         _______ _______ _______ _____ _____    ______ ____
ROOT
ATOM      1  C   UNL     1       0.059  -4.275  -0.021  0.00  0.00    +0.135 C 
ENDROOT
BRANCH   1   6
ATOM      2  C   UNL     1      -0.018   1.503   0.010  0.00  0.00    +0.044 C 
ATOM      3  C   UNL     1       0.002  -0.004   0.002  0.00  0.00    -0.050 A 
ATOM      4  C   UNL     1       0.006  -0.689  -1.199  0.00  0.00    +0.004 A 
ATOM      5  C   UNL     1       0.025  -2.071  -1.206  0.00  0.00    +0.006 A 
ATOM      6  C   UNL     1       0.040  -2.768  -0.013  0.00  0.00    -0.023 A 
ATOM      7  C   UNL     1       0.037  -2.084   1.188  0.00  0.00    +0.006 A 
ATOM      8  C   UNL     1       0.023  -0.702   1.195  0.00  0.00    +0.004 A 
ENDBRANCH   1   6
BRANCH   1   9
ATOM      9  C   UNL     1       1.466  -4.761   0.215  0.00  0.00    -0.023 A 
ATOM     10  C   UNL     1       1.976  -4.801   1.499  0.00  0.00    +0.009 A 
ATOM     11  C   UNL     1       3.266  -5.245   1.719  0.00  0.00    +0.046 A 
ATOM     12  C   UNL     1       4.049  -5.652   0.648  0.00  0.00    +0.120 A 
ATOM     13  C   UNL     1       3.535  -5.611  -0.639  0.00  0.00    +0.046 A 
ATOM     14  C   UNL     1       2.243  -5.171  -0.853  0.00  0.00    +0.009 A 
BRANCH  12  15
ATOM     15  O   UNL     1       5.318  -6.089   0.862  0.00  0.00    -0.495 OA
ATOM     16  C   UNL     1       6.067  -6.492  -0.287  0.00  0.00    +0.277 C 
ENDBRANCH  12  15
ENDBRANCH   1   9
BRANCH   1  17
ATOM     17  N   UNL     1      -0.816  -4.781   1.039  0.00  0.00    -0.289 N 
ATOM     18  C   UNL     1      -2.136  -4.925   0.810  0.00  0.00    +0.301 C 
ATOM     19  O   UNL     1      -2.601  -4.636  -0.275  0.00  0.00    -0.253 OA
ATOM     20  N   UNL     1      -2.942  -5.390   1.786  0.00  0.00    -0.288 N 
ATOM     21  H   UNL     1      -0.446  -5.011   1.905  0.00  0.00    +0.151 HD
ATOM     22  H   UNL     1      -2.571  -5.621   2.652  0.00  0.00    +0.151 HD
BRANCH  20  23
ATOM     23  C   UNL     1      -4.377  -5.548   1.538  0.00  0.00    +0.160 C 
ATOM     24  C   UNL     1      -4.950  -6.605   2.484  0.00  0.00    +0.032 C 
ATOM     25  C   UNL     1      -6.206  -7.226   1.900  0.00  0.00    +0.004 C 
ATOM     26  C   UNL     1      -7.374  -6.261   1.795  0.00  0.00    +0.019 C 
ATOM     27  C   UNL     1      -7.086  -5.166   0.767  0.00  0.00    +0.104 C 
ATOM     28  N   UNL     1      -6.358  -4.074   1.433  0.00  0.00    -0.314 N 
ATOM     29  C   UNL     1      -5.085  -4.234   1.795  0.00  0.00    +0.233 C 
ATOM     30  O   UNL     1      -4.493  -3.324   2.336  0.00  0.00    -0.274 OA
ATOM     31  H   UNL     1      -6.807  -3.232   1.608  0.00  0.00    +0.149 HD
ENDBRANCH  20  23
ENDBRANCH   1  17
TORSDOF 5
