REMARK  Name = ZINC08547156
REMARK  4 active torsions:
REMARK  status: ('A' for Active; 'I' for Inactive)
REMARK    1  A    between atoms: C_1  and  C_2
REMARK    2  A    between atoms: C_2  and  C_18
REMARK    3  A    between atoms: N_5  and  C_9
REMARK    4  A    between atoms: C_9  and  C_10
REMARK                            x       y       z     vdW  Elec       q    Type
REMARK                         _______ _______ _______ _____ _____    ______ ____
ROOT
ATOM      1  C   UNL     1      -1.924   5.671  -4.247  0.00  0.00    +0.050 C 
ATOM      2  C   UNL     1      -3.059   5.545  -3.229  0.00  0.00    +0.168 C 
ATOM      3  C   UNL     1      -2.515   5.514  -1.814  0.00  0.00    +0.254 C 
ATOM      4  O   UNL     1      -1.882   6.384  -1.254  0.00  0.00    -0.272 OA
ATOM      5  N   UNL     1      -2.880   4.319  -1.309  0.00  0.00    -0.219 N 
ATOM      6  C   UNL     1      -3.578   3.601  -2.196  0.00  0.00    +0.310 C 
ATOM      7  O   UNL     1      -4.019   2.491  -1.970  0.00  0.00    -0.252 OA
ATOM      8  N   UNL     1      -3.737   4.245  -3.367  0.00  0.00    -0.279 N 
ATOM      9  H   UNL     1      -4.206   3.916  -4.150  0.00  0.00    +0.152 HD
ENDROOT
BRANCH   2  10
ATOM     10  C   UNL     1      -4.043   6.675  -3.390  0.00  0.00    +0.138 A 
ATOM     11  C   UNL     1      -5.130   6.641  -4.172  0.00  0.00    +0.056 A 
ATOM     12  C   UNL     1      -5.787   7.944  -4.018  0.00  0.00    +0.020 A 
ATOM     13  C   UNL     1      -6.937   8.525  -4.550  0.00  0.00    +0.011 A 
ATOM     14  C   UNL     1      -7.278   9.801  -4.195  0.00  0.00    +0.001 A 
ATOM     15  C   UNL     1      -6.487  10.520  -3.310  0.00  0.00    +0.004 A 
ATOM     16  C   UNL     1      -5.346   9.961  -2.774  0.00  0.00    +0.047 A 
ATOM     17  C   UNL     1      -4.981   8.666  -3.121  0.00  0.00    +0.135 A 
ATOM     18  O   UNL     1      -3.953   7.867  -2.774  0.00  0.00    -0.457 OA
ENDBRANCH   2  10
BRANCH   5  19
ATOM     19  C   UNL     1      -2.557   3.865   0.046  0.00  0.00    +0.156 C 
BRANCH  19  20
ATOM     20  C   UNL     1      -1.240   3.132   0.030  0.00  0.00    +0.008 A 
ATOM     21  C   UNL     1      -1.219   1.750   0.017  0.00  0.00    +0.008 A 
ATOM     22  C   UNL     1      -0.013   1.076   0.008  0.00  0.00    +0.003 A 
ATOM     23  C   UNL     1       1.176   1.783   0.000  0.00  0.00    +0.041 A 
ATOM     24  C   UNL     1       1.158   3.166   0.007  0.00  0.00    +0.159 A 
ATOM     25  C   UNL     1      -0.053   3.842   0.022  0.00  0.00    +0.163 A 
ATOM     26  F   UNL     1      -0.073   5.193   0.029  0.00  0.00    -0.202 F 
ATOM     27  F   UNL     1       2.318   3.857  -0.000  0.00  0.00    -0.202 F 
ENDBRANCH  19  20
ENDBRANCH   5  19
TORSDOF 3
