REMARK  Name = ZINC64610804
REMARK  8 active torsions:
REMARK  status: ('A' for Active; 'I' for Inactive)
REMARK    1  A    between atoms: C_1  and  C_2
REMARK    2  A    between atoms: C_7  and  C_12
REMARK    3  A    between atoms: C_12  and  N_13
REMARK    4  A    between atoms: C_14  and  C_16
REMARK    5  A    between atoms: C_19  and  C_21
REMARK    6  A    between atoms: C_24  and  S_27
REMARK    7  A    between atoms: S_27  and  N_30
REMARK    8  A    between atoms: C_33  and  C_36
REMARK                            x       y       z     vdW  Elec       q    Type
REMARK                         _______ _______ _______ _____ _____    ______ ____
ROOT
ATOM      1  C   UNL     1      -4.807  -4.159   1.438  0.00  0.00    +0.304 A 
ATOM      2  N   UNL     1      -4.842  -3.005   0.809  0.00  0.00    -0.102 NA
ATOM      3  N   UNL     1      -6.067  -2.658   0.622  0.00  0.00    -0.107 NA
ATOM      4  C   UNL     1      -6.863  -3.580   1.126  0.00  0.00    +0.249 A 
ATOM      5  O   UNL     1      -6.084  -4.546   1.644  0.00  0.00    -0.412 OA
ENDROOT
BRANCH   4   6
ATOM      6  C   UNL     1      -8.340  -3.560   1.117  0.00  0.00    +0.039 A 
ATOM      7  C   UNL     1      -9.059  -4.607   1.696  0.00  0.00    +0.015 A 
ATOM      8  C   UNL     1     -10.438  -4.582   1.684  0.00  0.00    +0.029 A 
ATOM      9  C   UNL     1     -11.109  -3.521   1.101  0.00  0.00    +0.106 A 
ATOM     10  C   UNL     1     -10.402  -2.480   0.526  0.00  0.00    +0.029 A 
ATOM     11  C   UNL     1      -9.023  -2.490   0.535  0.00  0.00    +0.015 A 
BRANCH   9  12
ATOM     12  S   UNL     1     -12.871  -3.496   1.090  0.00  0.00    +0.061 S 
ATOM     13  O   UNL     1     -13.259  -2.666   0.005  0.00  0.00    -0.153 OA
ATOM     14  O   UNL     1     -13.296  -4.847   1.206  0.00  0.00    -0.153 OA
BRANCH  12  15
ATOM     15  N   UNL     1     -13.358  -2.726   2.473  0.00  0.00    -0.177 NA
ATOM     16  C   UNL     1     -13.591  -3.485   3.710  0.00  0.00    +0.110 C 
ATOM     17  C   UNL     1     -14.999  -3.167   4.225  0.00  0.00    +0.020 C 
ATOM     18  C   UNL     1     -15.151  -1.651   4.378  0.00  0.00    -0.012 C 
ATOM     19  C   UNL     1     -14.972  -0.978   3.015  0.00  0.00    +0.020 C 
ATOM     20  C   UNL     1     -13.559  -1.271   2.488  0.00  0.00    +0.110 C 
ATOM     21  C   UNL     1     -16.544  -1.332   4.925  0.00  0.00    +0.007 C 
ENDBRANCH  12  15
ENDBRANCH   9  12
ENDBRANCH   4   6
BRANCH   1  23
ATOM     22  N   UNL     1      -2.378  -4.389   1.567  0.00  0.00    -0.304 N 
ATOM     23  C   UNL     1      -3.597  -4.897   1.838  0.00  0.00    +0.301 C 
ATOM     24  O   UNL     1      -3.697  -5.964   2.412  0.00  0.00    -0.265 OA
ATOM     25  H   UNL     1      -2.298  -3.538   1.108  0.00  0.00    +0.149 HD
BRANCH  22  26
ATOM     26  C   UNL     1      -1.174  -5.123   1.965  0.00  0.00    +0.151 C 
BRANCH  26  33
ATOM     27  C   UNL     1      -0.018   1.503   0.010  0.00  0.00    +0.044 C 
ATOM     28  C   UNL     1       0.002  -0.004   0.002  0.00  0.00    -0.048 A 
ATOM     29  C   UNL     1       0.005  -0.672  -1.235  0.00  0.00    +0.005 A 
ATOM     30  C   UNL     1       0.022  -2.017  -1.335  0.00  0.00    +0.027 A 
ATOM     31  C   UNL     1       0.040  -2.834  -0.114  0.00  0.00    +0.060 A 
ATOM     32  N   UNL     1       0.057  -4.120   0.090  0.00  0.00    -0.362 N 
ATOM     33  C   UNL     1       0.067  -4.335   1.542  0.00  0.00    +0.191 C 
ATOM     34  N   UNL     1       0.053  -3.002   2.159  0.00  0.00    -0.362 N 
ATOM     35  C   UNL     1       0.037  -2.127   1.195  0.00  0.00    +0.060 A 
ATOM     36  C   UNL     1       0.022  -0.657   1.181  0.00  0.00    +0.030 A 
ATOM     37  H   UNL     1       0.062  -4.809  -0.593  0.00  0.00    +0.162 HD
ATOM     38  H   UNL     1       0.055  -2.810   3.109  0.00  0.00    +0.162 HD
ENDBRANCH  26  33
ENDBRANCH  22  26
ENDBRANCH   1  23
TORSDOF 6
