REMARK  Name = ZINC39911607
REMARK  13 active torsions:
REMARK  status: ('A' for Active; 'I' for Inactive)
REMARK    1  A    between atoms: C_1  and  C_2
REMARK    2  A    between atoms: C_2  and  C_3
REMARK    3  A    between atoms: C_3  and  O_4
REMARK    4  A    between atoms: O_4  and  C_5
REMARK    5  A    between atoms: C_8  and  C_11
REMARK    6  A    between atoms: C_14  and  C_26
REMARK    7  A    between atoms: N_21  and  C_22
REMARK    8  A    between atoms: C_22  and  C_23
REMARK    9  A    between atoms: C_23  and  O_24
REMARK   10  A    between atoms: O_24  and  C_25
REMARK   11  A    between atoms: C_28  and  C_34
REMARK   12  A    between atoms: C_30  and  C_33
REMARK   13  A    between atoms: C_31  and  O_32
REMARK                            x       y       z     vdW  Elec       q    Type
REMARK                         _______ _______ _______ _____ _____    ______ ____
ROOT
ATOM      1  C   UNL     1       2.958  -4.549   5.217  0.00  0.00    +0.141 C 
ATOM      2  C   UNL     1       2.175  -4.904   6.452  0.00  0.00    +0.035 A 
ATOM      3  C   UNL     1       1.366  -4.460   7.503  0.00  0.00    +0.102 A 
ATOM      4  N   UNL     1       1.060  -5.512   8.237  0.00  0.00    -0.173 NA
ATOM      5  N   UNL     1       1.595  -6.575   7.753  0.00  0.00    -0.272 N 
ATOM      6  H   UNL     1       1.505  -7.465   8.129  0.00  0.00    +0.189 HD
ATOM      7  C   UNL     1       2.310  -6.267   6.630  0.00  0.00    +0.126 A 
ATOM      8  C   UNL     1       3.153  -6.798   5.553  0.00  0.00    +0.266 C 
ATOM      9  O   UNL     1       3.462  -7.967   5.426  0.00  0.00    -0.268 OA
ATOM     10  N   UNL     1       3.536  -5.807   4.726  0.00  0.00    -0.283 N 
ENDROOT
BRANCH   3  11
ATOM     11  C   UNL     1       0.932  -3.062   7.748  0.00  0.00    +0.044 A 
ATOM     12  C   UNL     1       1.431  -2.027   6.961  0.00  0.00    +0.017 A 
ATOM     13  C   UNL     1       1.024  -0.728   7.192  0.00  0.00    -0.049 A 
ATOM     14  C   UNL     1       0.124  -0.450   8.205  0.00  0.00    +0.010 A 
ATOM     15  C   UNL     1      -0.376  -1.469   8.993  0.00  0.00    -0.008 A 
ATOM     16  C   UNL     1       0.018  -2.778   8.767  0.00  0.00    +0.129 A 
ATOM     17  C   UNL     1      -1.357  -1.158  10.094  0.00  0.00    +0.047 C 
ATOM     18  C   UNL     1       1.565   0.391   6.340  0.00  0.00    +0.044 C 
BRANCH  16  19
ATOM     19  O   UNL     1      -0.478  -3.782   9.536  0.00  0.00    -0.506 OA
ATOM     20  H   UNL     1       0.046  -3.966  10.328  0.00  0.00    +0.292 HD
ENDBRANCH  16  19
ENDBRANCH   3  11
BRANCH   1  24
ATOM     21  C   UNL     1       0.366  -2.868   2.264  0.00  0.00    +0.121 A 
ATOM     22  C   UNL     1       0.259  -4.210   2.600  0.00  0.00    +0.046 A 
ATOM     23  C   UNL     1       1.098  -4.751   3.555  0.00  0.00    +0.009 A 
ATOM     24  C   UNL     1       2.044  -3.956   4.176  0.00  0.00    -0.022 A 
ATOM     25  C   UNL     1       2.153  -2.619   3.843  0.00  0.00    +0.009 A 
ATOM     26  C   UNL     1       1.320  -2.074   2.884  0.00  0.00    +0.046 A 
BRANCH  21  27
ATOM     27  O   UNL     1      -0.458  -2.333   1.325  0.00  0.00    -0.492 OA
BRANCH  27  28
ATOM     28  C   UNL     1      -1.416  -3.210   0.728  0.00  0.00    +0.229 C 
BRANCH  28  30
ATOM     29  C   UNL     1      -3.273  -3.373  -0.936  0.00  0.00    +0.007 C 
ATOM     30  C   UNL     1      -2.247  -2.435  -0.297  0.00  0.00    +0.038 C 
ENDBRANCH  28  30
ENDBRANCH  27  28
ENDBRANCH  21  27
ENDBRANCH   1  24
BRANCH  10  31
ATOM     31  C   UNL     1       4.382  -5.956   3.539  0.00  0.00    +0.137 C 
BRANCH  31  32
ATOM     32  C   UNL     1       5.850  -5.785   3.935  0.00  0.00    +0.178 C 
BRANCH  32  33
ATOM     33  O   UNL     1       6.235  -6.847   4.810  0.00  0.00    -0.381 OA
ATOM     34  C   UNL     1       7.595  -6.781   5.241  0.00  0.00    +0.194 C 
ENDBRANCH  32  33
ENDBRANCH  31  32
ENDBRANCH  10  31
TORSDOF 9
