REMARK  Name = ZINC17859121
REMARK  6 active torsions:
REMARK  status: ('A' for Active; 'I' for Inactive)
REMARK    1  A    between atoms: C_1  and  C_2
REMARK    2  A    between atoms: C_2  and  C_3
REMARK    3  A    between atoms: C_6  and  C_9
REMARK    4  A    between atoms: N_17  and  C_20
REMARK    5  A    between atoms: N_29  and  C_30
REMARK    6  A    between atoms: C_34  and  N_36
REMARK                            x       y       z     vdW  Elec       q    Type
REMARK                         _______ _______ _______ _____ _____    ______ ____
ROOT
ATOM      1  C   UNL     1       2.415  -2.112  -4.737  0.00  0.00    +0.157 C 
ATOM      2  C   UNL     1       3.010  -3.532  -4.582  0.00  0.00    +0.145 C 
ATOM      3  C   UNL     1       4.497  -3.260  -4.223  0.00  0.00    +0.249 C 
ATOM      4  C   UNL     1       5.247  -3.773  -5.431  0.00  0.00    +0.259 C 
ATOM      5  O   UNL     1       6.451  -3.745  -5.571  0.00  0.00    -0.272 OA
ATOM      6  N   UNL     1       4.376  -4.261  -6.321  0.00  0.00    -0.208 N 
ATOM      7  C   UNL     1       3.075  -4.187  -5.944  0.00  0.00    +0.235 C 
ATOM      8  O   UNL     1       2.119  -4.574  -6.581  0.00  0.00    -0.274 OA
ATOM      9  O   UNL     1       4.621  -1.830  -4.136  0.00  0.00    -0.257 OA
ATOM     10  N   UNL     1       3.611  -1.276  -5.000  0.00  0.00    -0.244 N 
ENDROOT
BRANCH   6  11
ATOM     11  C   UNL     1       4.774  -4.814  -7.547  0.00  0.00    +0.045 A 
ATOM     12  C   UNL     1       4.456  -4.170  -8.736  0.00  0.00    +0.025 A 
ATOM     13  C   UNL     1       4.849  -4.715  -9.942  0.00  0.00    +0.023 A 
ATOM     14  C   UNL     1       5.559  -5.902  -9.968  0.00  0.00    +0.059 A 
ATOM     15  C   UNL     1       5.877  -6.546  -8.784  0.00  0.00    +0.061 A 
ATOM     16  C   UNL     1       5.491  -6.002  -7.574  0.00  0.00    +0.045 A 
ATOM     17 CL   UNL     1       6.769  -8.036  -8.820  0.00  0.00    -0.082 Cl
ATOM     18 CL   UNL     1       6.051  -6.585 -11.486  0.00  0.00    -0.082 Cl
ENDBRANCH   6  11
BRANCH   1  22
ATOM     19  C   UNL     1       0.472  -0.887  -1.135  0.00  0.00    -0.048 A 
ATOM     20  C   UNL     1      -0.278  -1.321  -2.212  0.00  0.00    +0.004 A 
ATOM     21  C   UNL     1       0.350  -1.717  -3.378  0.00  0.00    +0.006 A 
ATOM     22  C   UNL     1       1.729  -1.679  -3.467  0.00  0.00    -0.022 A 
ATOM     23  C   UNL     1       2.480  -1.245  -2.390  0.00  0.00    +0.006 A 
ATOM     24  C   UNL     1       1.851  -0.844  -1.226  0.00  0.00    +0.004 A 
BRANCH  19  26
ATOM     25  C   UNL     1      -0.520   1.043   0.066  0.00  0.00    +0.009 C 
ATOM     26  C   UNL     1      -0.213  -0.455   0.135  0.00  0.00    +0.032 C 
ENDBRANCH  19  26
ENDBRANCH   1  22
BRANCH  10  27
ATOM     27  C   UNL     1       3.724  -0.196  -5.879  0.00  0.00    +0.067 A 
ATOM     28  C   UNL     1       2.626   0.207  -6.629  0.00  0.00    +0.028 A 
ATOM     29  C   UNL     1       2.740   1.276  -7.496  0.00  0.00    +0.004 A 
ATOM     30  C   UNL     1       3.945   1.943  -7.619  0.00  0.00    +0.033 A 
ATOM     31  C   UNL     1       5.040   1.543  -6.874  0.00  0.00    +0.128 A 
ATOM     32  C   UNL     1       4.931   0.479  -6.000  0.00  0.00    +0.060 A 
BRANCH  31  33
ATOM     33  N   UNL     1       6.327   2.260  -7.010  0.00  0.00    +0.056 N 
ATOM     34  O   UNL     1       6.422   3.194  -7.771  0.00  0.00    -0.126 OA
ATOM     35  O   UNL     1       7.285   1.911  -6.359  0.00  0.00    -0.126 OA
ENDBRANCH  31  33
ENDBRANCH  10  27
TORSDOF 5
