REMARK  Name = ZINC15906056
REMARK  8 active torsions:
REMARK  status: ('A' for Active; 'I' for Inactive)
REMARK    1  A    between atoms: C_1  and  C_2
REMARK    2  A    between atoms: C_4  and  N_13
REMARK    3  A    between atoms: N_5  and  C_7
REMARK    4  A    between atoms: N_13  and  P_14
REMARK    5  A    between atoms: C_17  and  N_32
REMARK    6  A    between atoms: C_19  and  C_30
REMARK    7  A    between atoms: C_19  and  C_31
REMARK    8  A    between atoms: N_23  and  C_24
REMARK                            x       y       z     vdW  Elec       q    Type
REMARK                         _______ _______ _______ _____ _____    ______ ____
ROOT
ATOM      1  P   UNL     1       0.470  -3.147  -3.558  0.00  0.00    +0.142 P 
ATOM      2  S   UNL     1       2.128  -2.808  -4.340  0.00  0.00    -0.020 S 
ATOM      3  C   UNL     1      -0.253  -4.704  -4.159  0.00  0.00    +0.057 C 
ATOM      4  C   UNL     1       0.125  -5.966  -4.083  0.00  0.00    +0.020 C 
ATOM      5  C   UNL     1      -0.759  -7.006  -4.742  0.00  0.00    +0.058 C 
ATOM      6  C   UNL     1      -2.221  -6.568  -4.699  0.00  0.00    -0.024 C 
ATOM      7  C   UNL     1      -2.426  -5.246  -5.449  0.00  0.00    +0.064 C 
ATOM      8  C   UNL     1      -1.492  -4.223  -4.819  0.00  0.00    +0.073 C 
ATOM      9  N   UNL     1      -1.634  -2.955  -4.768  0.00  0.00    -0.178 NA
ATOM     10  N   UNL     1      -0.707  -2.118  -4.136  0.00  0.00    -0.177 N 
ATOM     11  C   UNL     1      -2.647  -6.388  -3.240  0.00  0.00    +0.011 C 
ATOM     12  C   UNL     1      -3.089  -7.651  -5.344  0.00  0.00    +0.011 C 
ENDROOT
BRANCH  10  13
ATOM     13  C   UNL     1      -0.757  -0.729  -4.017  0.00  0.00    +0.058 A 
ATOM     14  C   UNL     1       0.301  -0.041  -3.434  0.00  0.00    +0.025 A 
ATOM     15  C   UNL     1       0.248   1.333  -3.318  0.00  0.00    +0.002 A 
ATOM     16  C   UNL     1      -0.856   2.026  -3.781  0.00  0.00    +0.000 A 
ATOM     17  C   UNL     1      -1.911   1.345  -4.361  0.00  0.00    +0.002 A 
ATOM     18  C   UNL     1      -1.862  -0.029  -4.486  0.00  0.00    +0.025 A 
ENDBRANCH  10  13
BRANCH   4  19
ATOM     19  N   UNL     1       1.287  -6.327  -3.426  0.00  0.00    -0.332 N 
ATOM     20  C   UNL     1       1.420  -6.128  -1.977  0.00  0.00    +0.105 C 
ATOM     21  C   UNL     1       1.822  -7.457  -1.331  0.00  0.00    +0.019 C 
ATOM     22  C   UNL     1       3.086  -7.989  -2.011  0.00  0.00    +0.003 C 
ATOM     23  C   UNL     1       2.802  -8.239  -3.494  0.00  0.00    +0.019 C 
ATOM     24  C   UNL     1       2.409  -6.923  -4.163  0.00  0.00    +0.105 C 
ENDBRANCH   4  19
BRANCH   1  25
ATOM     25  N   UNL     1       0.559  -3.110  -1.921  0.00  0.00    -0.285 N 
ATOM     26  H   UNL     1       1.410  -2.947  -1.485  0.00  0.00    +0.154 HD
BRANCH  25  30
ATOM     27  C   UNL     1      -4.189  -3.887  -0.602  0.00  0.00    +0.065 C 
ATOM     28  C   UNL     1      -2.701  -3.661  -0.536  0.00  0.00    +0.033 A 
ATOM     29  C   UNL     1      -1.851  -3.492  -1.632  0.00  0.00    +0.066 A 
ATOM     30  C   UNL     1      -0.587  -3.314  -1.157  0.00  0.00    +0.125 A 
ATOM     31  N   UNL     1      -0.650  -3.371   0.201  0.00  0.00    -0.241 N 
ATOM     32  N   UNL     1      -1.987  -3.585   0.558  0.00  0.00    -0.296 N 
ATOM     33  H   UNL     1      -2.326  -3.664   1.464  0.00  0.00    +0.187 HD
BRANCH  31  34
ATOM     34  C   UNL     1       0.430  -3.236   1.084  0.00  0.00    +0.065 A 
ATOM     35  C   UNL     1       1.623  -3.900   0.831  0.00  0.00    +0.028 A 
ATOM     36  C   UNL     1       2.685  -3.765   1.703  0.00  0.00    +0.002 A 
ATOM     37  C   UNL     1       2.562  -2.970   2.828  0.00  0.00    +0.000 A 
ATOM     38  C   UNL     1       1.375  -2.308   3.083  0.00  0.00    +0.002 A 
ATOM     39  C   UNL     1       0.311  -2.434   2.211  0.00  0.00    +0.028 A 
ENDBRANCH  31  34
ENDBRANCH  25  30
ENDBRANCH   1  25
TORSDOF 5
