REMARK  Name = ZINC11911185
REMARK  9 active torsions:
REMARK  status: ('A' for Active; 'I' for Inactive)
REMARK    1  A    between atoms: C_1  and  C_2
REMARK    2  A    between atoms: C_2  and  C_4
REMARK    3  A    between atoms: C_2  and  N_14
REMARK    4  A    between atoms: C_15  and  C_17
REMARK    5  A    between atoms: C_17  and  C_18
REMARK    6  A    between atoms: C_18  and  C_19
REMARK    7  A    between atoms: C_19  and  C_25
REMARK    8  A    between atoms: C_25  and  C_26
REMARK    9  A    between atoms: C_29  and  C_32
REMARK                            x       y       z     vdW  Elec       q    Type
REMARK                         _______ _______ _______ _____ _____    ______ ____
ROOT
ATOM      1  C   UNL     1      -1.057  12.198  -2.912  0.00  0.00    +0.039 C 
ATOM      2  C   UNL     1      -1.792  13.524  -3.205  0.00  0.00    +0.035 C 
ATOM      3  C   UNL     1      -0.639  14.550  -3.117  0.00  0.00    +0.098 C 
ATOM      4  C   UNL     1       0.382  13.884  -2.221  0.00  0.00    +0.214 C 
ATOM      5  O   UNL     1       1.303  14.454  -1.674  0.00  0.00    -0.276 OA
ATOM      6  N   UNL     1       0.121  12.570  -2.119  0.00  0.00    -0.309 N 
ATOM      7  H   UNL     1       0.644  11.947  -1.590  0.00  0.00    +0.149 HD
ENDROOT
BRANCH   1   8
ATOM      8  C   UNL     1      -1.960  11.258  -2.109  0.00  0.00    +0.035 C 
BRANCH   8   9
ATOM      9  C   UNL     1      -2.331  11.919  -0.780  0.00  0.00    +0.098 C 
BRANCH   9  11
ATOM     10  N   UNL     1      -3.549  11.313   1.285  0.00  0.00    -0.306 N 
ATOM     11  C   UNL     1      -3.113  10.947   0.064  0.00  0.00    +0.214 C 
ATOM     12  O   UNL     1      -3.351   9.834  -0.357  0.00  0.00    -0.276 OA
ATOM     13  H   UNL     1      -3.359  12.203   1.621  0.00  0.00    +0.149 HD
BRANCH  10  15
ATOM     14  C   UNL     1      -5.789  10.432   1.719  0.00  0.00    +0.036 C 
ATOM     15  C   UNL     1      -4.310  10.367   2.105  0.00  0.00    +0.136 C 
BRANCH  15  16
ATOM     16  C   UNL     1      -4.155  10.726   3.561  0.00  0.00    +0.128 A 
ATOM     17  N   UNL     1      -4.290   9.855   4.597  0.00  0.00    -0.340 N 
ATOM     18  H   UNL     1      -4.506   8.881   4.528  0.00  0.00    +0.167 HD
ATOM     19  C   UNL     1      -4.072  10.565   5.761  0.00  0.00    +0.066 A 
ATOM     20  C   UNL     1      -4.068  10.233   7.109  0.00  0.00    +0.028 A 
ATOM     21  C   UNL     1      -3.812  11.207   8.051  0.00  0.00    +0.002 A 
ATOM     22  C   UNL     1      -3.548  12.511   7.659  0.00  0.00    +0.002 A 
ATOM     23  C   UNL     1      -3.542  12.855   6.337  0.00  0.00    +0.030 A 
ATOM     24  C   UNL     1      -3.805  11.886   5.365  0.00  0.00    +0.089 A 
ATOM     25  N   UNL     1      -3.871  11.914   4.009  0.00  0.00    -0.231 NA
ENDBRANCH  15  16
ENDBRANCH  10  15
ENDBRANCH   9  11
ENDBRANCH   8   9
ENDBRANCH   1   8
BRANCH   1  26
ATOM     26  C   UNL     1      -0.626  11.529  -4.219  0.00  0.00    +0.061 C 
BRANCH  26  27
ATOM     27  C   UNL     1       0.191  10.301  -3.909  0.00  0.00    -0.045 A 
ATOM     28  C   UNL     1       1.550  10.418  -3.681  0.00  0.00    +0.004 A 
ATOM     29  C   UNL     1       2.303   9.298  -3.391  0.00  0.00    +0.009 A 
ATOM     30  C   UNL     1       1.693   8.046  -3.340  0.00  0.00    -0.018 A 
ATOM     31  C   UNL     1       0.325   7.934  -3.577  0.00  0.00    +0.009 A 
ATOM     32  C   UNL     1      -0.419   9.061  -3.860  0.00  0.00    +0.004 A 
BRANCH  30  33
ATOM     33  C   UNL     1       2.498   6.838  -3.035  0.00  0.00    -0.018 A 
ATOM     34  C   UNL     1       1.887   5.587  -2.978  0.00  0.00    +0.008 A 
ATOM     35  C   UNL     1       2.642   4.465  -2.699  0.00  0.00    +0.001 A 
ATOM     36  C   UNL     1       4.000   4.583  -2.466  0.00  0.00    +0.000 A 
ATOM     37  C   UNL     1       4.611   5.823  -2.515  0.00  0.00    +0.001 A 
ATOM     38  C   UNL     1       3.867   6.951  -2.799  0.00  0.00    +0.008 A 
ENDBRANCH  30  33
ENDBRANCH  26  27
ENDBRANCH   1  26
TORSDOF 8
