REMARK  Name = ZINC43210567
REMARK  6 active torsions:
REMARK  status: ('A' for Active; 'I' for Inactive)
REMARK    1  A    between atoms: C_3  and  O_32
REMARK    2  A    between atoms: C_4  and  C_8
REMARK    3  A    between atoms: N_16  and  C_19
REMARK    4  A    between atoms: C_25  and  C_27
REMARK    5  A    between atoms: C_25  and  C_29
REMARK    6  A    between atoms: C_27  and  O_28
REMARK                            x       y       z     vdW  Elec       q    Type
REMARK                         _______ _______ _______ _____ _____    ______ ____
ROOT
ATOM      1  C   UNL     1       3.711  -0.716  -0.038  0.00  0.00    -0.023 C 
ATOM      2  C   UNL     1       4.287  -0.822   1.370  0.00  0.00    +0.077 C 
ATOM      3  C   UNL     1       5.301  -1.993   1.079  0.00  0.00    +0.088 C 
ATOM      4  C   UNL     1       6.192  -1.906   2.210  0.00  0.00    +0.225 C 
ATOM      5  O   UNL     1       6.761  -2.816   2.774  0.00  0.00    -0.275 OA
ATOM      6  N   UNL     1       6.257  -0.568   2.509  0.00  0.00    -0.239 N 
ATOM      7  C   UNL     1       5.282   0.175   1.875  0.00  0.00    +0.225 C 
ATOM      8  O   UNL     1       5.236   1.379   1.745  0.00  0.00    -0.275 OA
ATOM      9  C   UNL     1       4.485  -2.981   0.362  0.00  0.00    +0.071 C 
ATOM     10  N   UNL     1       3.509  -2.147  -0.435  0.00  0.00    +0.397 N 
ATOM     11  H   UNL     1       2.567  -2.434  -0.215  0.00  0.00    -0.083 HD
ATOM     12  H   UNL     1       3.678  -2.255  -1.424  0.00  0.00    -0.083 HD
ENDROOT
BRANCH   1  16
ATOM     13  C   UNL     1      -0.017   1.379   0.010  0.00  0.00    +0.019 A 
ATOM     14  C   UNL     1       1.151   2.061  -0.272  0.00  0.00    +0.047 A 
ATOM     15  C   UNL     1       2.362   1.383  -0.288  0.00  0.00    +0.119 A 
ATOM     16  C   UNL     1       2.397   0.022  -0.021  0.00  0.00    -0.018 A 
ATOM     17  C   UNL     1       1.227  -0.655   0.261  0.00  0.00    +0.020 A 
ATOM     18  C   UNL     1       0.020   0.022   0.276  0.00  0.00    +0.018 A 
ATOM     19 BR   UNL     1      -1.580  -0.909   0.661  0.00  0.00    -0.050 Br
BRANCH  15  20
ATOM     20  O   UNL     1       3.512   2.052  -0.566  0.00  0.00    -0.507 OA
ATOM     21  H   UNL     1       3.952   2.418   0.214  0.00  0.00    +0.292 HD
ENDBRANCH  15  20
ENDBRANCH   1  16
BRANCH   6  22
ATOM     22  C   UNL     1       7.249   0.014   3.416  0.00  0.00    +0.084 C 
ATOM     23  C   UNL     1       6.533   0.694   4.586  0.00  0.00    +0.023 C 
ATOM     24  C   UNL     1       7.569   1.301   5.534  0.00  0.00    +0.002 C 
ATOM     25  C   UNL     1       8.407   2.335   4.779  0.00  0.00    +0.000 C 
ATOM     26  C   UNL     1       9.123   1.655   3.609  0.00  0.00    +0.002 C 
ATOM     27  C   UNL     1       8.087   1.048   2.661  0.00  0.00    +0.023 C 
ENDBRANCH   6  22
BRANCH   9  28
ATOM     28  C   UNL     1       3.772  -3.882   1.337  0.00  0.00    +0.348 C 
ATOM     29  O   UNL     1       2.554  -3.931   1.343  0.00  0.00    -0.248 OA
ATOM     30  O   UNL     1       4.413  -4.561   2.121  0.00  0.00    -0.248 OA
ENDBRANCH   9  28
BRANCH   9  31
ATOM     31  C   UNL     1       5.357  -3.805  -0.588  0.00  0.00    +0.155 C 
BRANCH  31  32
ATOM     32  O   UNL     1       4.529  -4.678  -1.358  0.00  0.00    -0.396 OA
ATOM     33  H   UNL     1       5.017  -5.232  -1.983  0.00  0.00    +0.209 HD
ENDBRANCH  31  32
ENDBRANCH   9  31
TORSDOF 6
