REMARK  Name = ZINC20916689
REMARK  9 active torsions:
REMARK  status: ('A' for Active; 'I' for Inactive)
REMARK    1  A    between atoms: C_9  and  O_34
REMARK    2  A    between atoms: C_10  and  C_11
REMARK    3  A    between atoms: N_12  and  N_13
REMARK    4  A    between atoms: C_17  and  S_20
REMARK    5  A    between atoms: N_18  and  N_19
REMARK    6  A    between atoms: S_20  and  C_21
REMARK    7  A    between atoms: C_21  and  C_22
REMARK    8  A    between atoms: C_22  and  C_23
REMARK    9  A    between atoms: N_25  and  C_26
REMARK                            x       y       z     vdW  Elec       q    Type
REMARK                         _______ _______ _______ _____ _____    ______ ____
ROOT
ATOM      1  N   UNL     1      -6.226  11.864  -7.239  0.00  0.00    -0.204 N 
ATOM      2  C   UNL     1      -5.767  12.779  -6.303  0.00  0.00    +0.254 A 
ATOM      3  N   UNL     1      -4.956  13.782  -6.540  0.00  0.00    -0.109 NA
ATOM      4  N   UNL     1      -4.745  14.462  -5.333  0.00  0.00    -0.119 NA
ATOM      5  C   UNL     1      -5.427  13.846  -4.397  0.00  0.00    +0.210 A 
ATOM      6  N   UNL     1      -6.076  12.791  -4.972  0.00  0.00    -0.211 N 
ATOM      7  H   UNL     1      -6.903  11.054  -6.930  0.00  0.00    +0.177 HD
ENDROOT
BRANCH   6   8
ATOM      8  N   UNL     1      -6.891  11.903  -4.329  0.00  0.00    -0.294 N 
ATOM      9  H   UNL     1      -7.073  12.006  -3.249  0.00  0.00    +0.163 HD
ATOM     10  H   UNL     1      -7.367  11.086  -4.891  0.00  0.00    +0.163 HD
ENDBRANCH   6   8
BRANCH   1  12
ATOM     11  C   UNL     1      -6.257  11.112  -9.455  0.00  0.00    +0.142 C 
ATOM     12  N   UNL     1      -5.827  11.970  -8.578  0.00  0.00    -0.187 NA
BRANCH  11  22
ATOM     13  C   UNL     1      -7.175   8.488 -13.797  0.00  0.00    +0.001 A 
ATOM     14  C   UNL     1      -7.598   8.352 -12.477  0.00  0.00    +0.001 A 
ATOM     15  C   UNL     1      -7.175   9.220 -11.514  0.00  0.00    +0.009 A 
ATOM     16  C   UNL     1      -6.312  10.268 -11.858  0.00  0.00    -0.006 A 
ATOM     17  C   UNL     1      -5.885  10.412 -13.200  0.00  0.00    -0.017 A 
ATOM     18  C   UNL     1      -6.337   9.495 -14.166  0.00  0.00    +0.008 A 
ATOM     19  C   UNL     1      -5.019  11.465 -13.543  0.00  0.00    +0.012 A 
ATOM     20  C   UNL     1      -4.588  12.345 -12.601  0.00  0.00    +0.046 A 
ATOM     21  C   UNL     1      -4.980  12.245 -11.268  0.00  0.00    +0.126 A 
ATOM     22  C   UNL     1      -5.838  11.223 -10.859  0.00  0.00    +0.044 A 
BRANCH  21  23
ATOM     23  O   UNL     1      -4.524  13.147 -10.360  0.00  0.00    -0.506 OA
ATOM     24  H   UNL     1      -4.832  13.071  -9.307  0.00  0.00    +0.292 HD
ENDBRANCH  21  23
ENDBRANCH  11  22
ENDBRANCH   1  12
BRANCH   5  25
ATOM     25  S   UNL     1      -5.494  14.302  -2.696  0.00  0.00    -0.084 S 
BRANCH  25  26
ATOM     26  C   UNL     1      -4.428  15.766  -2.591  0.00  0.00    +0.086 C 
BRANCH  26  27
ATOM     27  C   UNL     1      -4.396  16.271  -1.147  0.00  0.00    +0.107 C 
BRANCH  27  28
ATOM     28  C   UNL     1      -3.510  17.487  -1.060  0.00  0.00    +0.218 C 
ATOM     29  O   UNL     1      -2.959  17.908  -2.055  0.00  0.00    -0.275 OA
ATOM     30  N   UNL     1      -3.331  18.107   0.123  0.00  0.00    -0.283 N 
ATOM     31  H   UNL     1      -3.895  17.776   1.008  0.00  0.00    +0.155 HD
BRANCH  30  32
ATOM     32  C   UNL     1      -2.428  19.172   0.226  0.00  0.00    +0.070 A 
ATOM     33  C   UNL     1      -1.094  18.927   0.530  0.00  0.00    +0.064 A 
ATOM     34  C   UNL     1      -0.204  19.980   0.627  0.00  0.00    +0.022 A 
ATOM     35  C   UNL     1      -0.641  21.277   0.430  0.00  0.00    +0.003 A 
ATOM     36  C   UNL     1      -1.969  21.525   0.132  0.00  0.00    +0.022 A 
ATOM     37  C   UNL     1      -2.863  20.476   0.029  0.00  0.00    +0.064 A 
ATOM     38 CL   UNL     1      -4.529  20.789  -0.344  0.00  0.00    -0.082 Cl
ATOM     39 CL   UNL     1      -0.546  17.299   0.783  0.00  0.00    -0.082 Cl
ENDBRANCH  30  32
ENDBRANCH  27  28
ENDBRANCH  26  27
ENDBRANCH  25  26
ENDBRANCH   5  25
TORSDOF 9
