REMARK  Name = ZINC12525983
REMARK  11 active torsions:
REMARK  status: ('A' for Active; 'I' for Inactive)
REMARK    1  A    between atoms: C_1  and  C_2
REMARK    2  A    between atoms: C_3  and  C_26
REMARK    3  A    between atoms: C_4  and  C_25
REMARK    4  A    between atoms: C_5  and  S_10
REMARK    5  A    between atoms: C_6  and  C_9
REMARK    6  A    between atoms: C_7  and  C_8
REMARK    7  A    between atoms: S_10  and  N_13
REMARK    8  A    between atoms: N_13  and  C_14
REMARK    9  A    between atoms: C_18  and  N_20
REMARK   10  A    between atoms: N_20  and  S_21
REMARK   11  A    between atoms: S_21  and  C_24
REMARK                            x       y       z     vdW  Elec       q    Type
REMARK                         _______ _______ _______ _____ _____    ______ ____
ROOT
ATOM      1  S   UNL     1       3.663   1.820  -1.878  0.00  0.00    +0.073 S 
ATOM      2  O   UNL     1       2.310   1.655  -2.281  0.00  0.00    -0.150 OA
ATOM      3  O   UNL     1       4.404   0.780  -1.255  0.00  0.00    -0.150 OA
ENDROOT
BRANCH   1   8
ATOM      4  C   UNL     1       3.775   6.522   1.901  0.00  0.00    +0.044 C 
ATOM      5  C   UNL     1       3.747   5.347   0.957  0.00  0.00    -0.044 A 
ATOM      6  C   UNL     1       4.434   4.190   1.273  0.00  0.00    -0.043 A 
ATOM      7  C   UNL     1       4.408   3.113   0.407  0.00  0.00    -0.020 A 
ATOM      8  C   UNL     1       3.695   3.193  -0.774  0.00  0.00    +0.115 A 
ATOM      9  C   UNL     1       3.013   4.352  -1.093  0.00  0.00    -0.020 A 
ATOM     10  C   UNL     1       3.035   5.428  -0.225  0.00  0.00    -0.043 A 
ATOM     11  C   UNL     1       2.286   6.689  -0.569  0.00  0.00    +0.044 C 
ATOM     12  C   UNL     1       2.241   4.441  -2.384  0.00  0.00    +0.046 C 
ATOM     13  C   UNL     1       5.157   1.851   0.752  0.00  0.00    +0.046 C 
ATOM     14  C   UNL     1       5.210   4.102   2.562  0.00  0.00    +0.044 C 
ENDBRANCH   1   8
BRANCH   1  15
ATOM     15  N   UNL     1       4.509   2.259  -3.232  0.00  0.00    -0.216 N 
ATOM     16  H   UNL     1       4.049   2.364  -4.079  0.00  0.00    +0.174 HD
BRANCH  15  17
ATOM     17  C   UNL     1       5.886   2.479  -3.153  0.00  0.00    +0.050 A 
ATOM     18  C   UNL     1       6.410   3.249  -2.121  0.00  0.00    +0.024 A 
ATOM     19  C   UNL     1       7.772   3.467  -2.042  0.00  0.00    +0.004 A 
ATOM     20  C   UNL     1       8.617   2.922  -2.989  0.00  0.00    +0.024 A 
ATOM     21  C   UNL     1       8.101   2.146  -4.020  0.00  0.00    +0.049 A 
ATOM     22  C   UNL     1       6.733   1.930  -4.106  0.00  0.00    +0.049 A 
BRANCH  21  23
ATOM     23  N   UNL     1       8.957   1.590  -4.974  0.00  0.00    -0.221 N 
ATOM     24  H   UNL     1       8.857   0.661  -5.233  0.00  0.00    +0.173 HD
BRANCH  23  25
ATOM     25  S   UNL     1      10.144   2.518  -5.661  0.00  0.00    +0.040 S 
ATOM     26  O   UNL     1      10.886   3.030  -4.563  0.00  0.00    -0.155 OA
ATOM     27  O   UNL     1      10.761   1.667  -6.618  0.00  0.00    -0.155 OA
ATOM     28  C   UNL     1       9.259   3.861  -6.499  0.00  0.00    +0.218 C 
ENDBRANCH  23  25
ENDBRANCH  21  23
ENDBRANCH  15  17
ENDBRANCH   1  15
TORSDOF 5
