REMARK  Name = ZINC32561761
REMARK  11 active torsions:
REMARK  status: ('A' for Active; 'I' for Inactive)
REMARK    1  A    between atoms: C_1  and  C_2
REMARK    2  A    between atoms: C_2  and  C_3
REMARK    3  A    between atoms: C_2  and  C_4
REMARK    4  A    between atoms: C_4  and  N_5
REMARK    5  A    between atoms: C_7  and  N_26
REMARK    6  A    between atoms: C_10  and  C_12
REMARK    7  A    between atoms: N_14  and  C_15
REMARK    8  A    between atoms: C_15  and  C_16
REMARK    9  A    between atoms: C_16  and  C_17
REMARK   10  A    between atoms: N_26  and  C_27
REMARK   11  A    between atoms: C_27  and  C_28
REMARK                            x       y       z     vdW  Elec       q    Type
REMARK                         _______ _______ _______ _____ _____    ______ ____
ROOT
ATOM      1  N   UNL     1       2.171  -0.304  -1.095  0.00  0.00    +0.389 N 
ATOM      2  C   UNL     1       2.373   1.160  -1.104  0.00  0.00    -0.059 C 
ATOM      3  C   UNL     1       3.688   1.374  -1.894  0.00  0.00    +0.036 C 
ATOM      4  C   UNL     1       3.576   0.280  -2.989  0.00  0.00    +0.010 C 
ATOM      5  C   UNL     1       2.883  -0.883  -2.249  0.00  0.00    +0.021 C 
ATOM      6  H   UNL     1       2.540  -0.691  -0.239  0.00  0.00    -0.081 HD
ENDROOT
BRANCH   5   7
ATOM      7  C   UNL     1       3.914  -1.873  -1.771  0.00  0.00    +0.200 C 
ATOM      8  O   UNL     1       4.049  -2.083  -0.584  0.00  0.00    -0.278 OA
ATOM      9  N   UNL     1       4.686  -2.526  -2.662  0.00  0.00    -0.316 N 
ATOM     10  H   UNL     1       4.578  -2.358  -3.611  0.00  0.00    +0.149 HD
BRANCH   9  11
ATOM     11  C   UNL     1       5.688  -3.488  -2.197  0.00  0.00    +0.109 C 
BRANCH  11  12
ATOM     12  C   UNL     1       6.421  -4.083  -3.401  0.00  0.00    +0.054 C 
BRANCH  12  13
ATOM     13  C   UNL     1       7.452  -5.072  -2.923  0.00  0.00    -0.042 A 
ATOM     14  C   UNL     1       8.736  -4.647  -2.637  0.00  0.00    +0.007 A 
ATOM     15  C   UNL     1       9.685  -5.551  -2.197  0.00  0.00    +0.050 A 
ATOM     16  C   UNL     1       9.351  -6.887  -2.043  0.00  0.00    +0.166 A 
ATOM     17  C   UNL     1       8.058  -7.316  -2.332  0.00  0.00    +0.166 A 
ATOM     18  C   UNL     1       7.111  -6.403  -2.767  0.00  0.00    +0.053 A 
ATOM     19  O   UNL     1       7.982  -8.659  -2.104  0.00  0.00    -0.453 OA
ATOM     20  C   UNL     1       9.346  -9.120  -2.065  0.00  0.00    +0.466 C 
ATOM     21  O   UNL     1      10.086  -7.962  -1.634  0.00  0.00    -0.453 OA
ENDBRANCH  12  13
ENDBRANCH  11  12
ENDBRANCH   9  11
ENDBRANCH   5   7
BRANCH   3  22
ATOM     22  N   UNL     1       3.730   2.715  -2.492  0.00  0.00    -0.311 NA
ATOM     23  H   UNL     1       3.201   2.746  -3.350  0.00  0.00    +0.122 HD
BRANCH  22  24
ATOM     24  C   UNL     1       5.116   3.149  -2.712  0.00  0.00    +0.119 C 
BRANCH  24  25
ATOM     25  C   UNL     1       5.120   4.526  -3.325  0.00  0.00    +0.002 A 
ATOM     26  C   UNL     1       5.303   4.676  -4.687  0.00  0.00    +0.010 A 
ATOM     27  C   UNL     1       5.306   5.938  -5.250  0.00  0.00    +0.039 A 
ATOM     28  C   UNL     1       5.127   7.054  -4.450  0.00  0.00    +0.126 A 
ATOM     29  C   UNL     1       4.944   6.905  -3.087  0.00  0.00    +0.077 A 
ATOM     30  C   UNL     1       4.935   5.640  -2.524  0.00  0.00    +0.130 A 
ATOM     31  F   UNL     1       4.751   5.493  -1.194  0.00  0.00    -0.205 F 
ATOM     32  F   UNL     1       5.131   8.287  -5.001  0.00  0.00    -0.205 F 
ENDBRANCH  24  25
ENDBRANCH  22  24
ENDBRANCH   3  22
BRANCH   1  33
ATOM     33  C   UNL     1       0.737  -0.607  -1.197  0.00  0.00    -0.075 C 
BRANCH  33  35
ATOM     34  C   UNL     1      -1.487  -0.307  -0.099  0.00  0.00    +0.005 C 
ATOM     35  C   UNL     1       0.023  -0.123   0.067  0.00  0.00    -0.034 C 
ATOM     36  C   UNL     1       0.506  -0.937   1.269  0.00  0.00    +0.005 C 
ENDBRANCH  33  35
ENDBRANCH   1  33
TORSDOF 9
