REMARK  Name = ZINC02060657
REMARK  5 active torsions:
REMARK  status: ('A' for Active; 'I' for Inactive)
REMARK    1  A    between atoms: C_1  and  C_2
REMARK    2  A    between atoms: C_2  and  O_3
REMARK    3  A    between atoms: O_3  and  C_4
REMARK    4  A    between atoms: C_7  and  C_10
REMARK    5  A    between atoms: C_21  and  O_22
REMARK                            x       y       z     vdW  Elec       q    Type
REMARK                         _______ _______ _______ _____ _____    ______ ____
ROOT
ATOM      1  C   UNL     1       1.145  -6.061   1.765  0.00  0.00    +0.147 C 
ATOM      2  C   UNL     1       2.505  -6.456   1.256  0.00  0.00    +0.067 C 
ATOM      3  C   UNL     1       3.448  -6.926   2.194  0.00  0.00    +0.007 C 
ATOM      4  C   UNL     1       4.853  -6.913   1.765  0.00  0.00    +0.026 A 
ATOM      5  C   UNL     1       5.911  -6.913   2.672  0.00  0.00    +0.012 A 
ATOM      6  C   UNL     1       7.208  -6.924   2.213  0.00  0.00    +0.001 A 
ATOM      7  C   UNL     1       7.473  -6.893   0.852  0.00  0.00    +0.004 A 
ATOM      8  C   UNL     1       6.439  -6.832  -0.058  0.00  0.00    +0.047 A 
ATOM      9  C   UNL     1       5.126  -6.827   0.389  0.00  0.00    +0.140 A 
ATOM     10  O   UNL     1       4.093  -6.719  -0.476  0.00  0.00    -0.425 OA
ATOM     11  C   UNL     1       2.860  -6.390  -0.048  0.00  0.00    +0.291 C 
ATOM     12  C   UNL     1       2.999  -7.378   3.441  0.00  0.00    +0.014 A 
ATOM     13  C   UNL     1       3.773  -8.316   4.255  0.00  0.00    -0.008 A 
ATOM     14  C   UNL     1       4.847  -9.037   3.722  0.00  0.00    +0.009 A 
ATOM     15  C   UNL     1       5.600  -9.837   4.531  0.00  0.00    +0.001 A 
ATOM     16  C   UNL     1       5.293  -9.980   5.875  0.00  0.00    +0.001 A 
ATOM     17  C   UNL     1       4.207  -9.349   6.410  0.00  0.00    +0.008 A 
ATOM     18  C   UNL     1       3.400  -8.536   5.601  0.00  0.00    -0.017 A 
ATOM     19  C   UNL     1       2.211  -7.971   6.119  0.00  0.00    +0.010 A 
ATOM     20  C   UNL     1       1.399  -7.232   5.338  0.00  0.00    +0.026 A 
ATOM     21  C   UNL     1       1.731  -6.968   3.937  0.00  0.00    +0.044 A 
ATOM     22  N   UNL     1       0.843  -6.354   3.173  0.00  0.00    -0.373 N 
ATOM     23  H   UNL     1      -0.008  -6.087   3.549  0.00  0.00    +0.161 HD
ENDROOT
BRANCH   1  27
ATOM     24  C   UNL     1       0.802  -1.824   1.306  0.00  0.00    +0.121 A 
ATOM     25  C   UNL     1       0.260  -2.673   0.351  0.00  0.00    +0.046 A 
ATOM     26  C   UNL     1       0.372  -4.041   0.502  0.00  0.00    +0.009 A 
ATOM     27  C   UNL     1       1.024  -4.566   1.603  0.00  0.00    -0.020 A 
ATOM     28  C   UNL     1       1.565  -3.722   2.555  0.00  0.00    +0.009 A 
ATOM     29  C   UNL     1       1.460  -2.353   2.406  0.00  0.00    +0.046 A 
BRANCH  24  30
ATOM     30  O   UNL     1       0.693  -0.477   1.160  0.00  0.00    -0.492 OA
BRANCH  30  32
ATOM     31  C   UNL     1      -0.019   1.526   0.010  0.00  0.00    +0.048 C 
ATOM     32  C   UNL     1       0.002  -0.004   0.002  0.00  0.00    +0.225 C 
ENDBRANCH  30  32
ENDBRANCH  24  30
ENDBRANCH   1  27
BRANCH  11  33
ATOM     33  O   UNL     1       1.956  -5.999  -0.967  0.00  0.00    -0.480 OA
ATOM     34  H   UNL     1       2.296  -5.982  -1.872  0.00  0.00    +0.295 HD
ENDBRANCH  11  33
TORSDOF 4
