REMARK  Name = ZINC36784838
REMARK  6 active torsions:
REMARK  status: ('A' for Active; 'I' for Inactive)
REMARK    1  A    between atoms: C_1  and  C_2
REMARK    2  A    between atoms: C_5  and  N_8
REMARK    3  A    between atoms: C_9  and  C_11
REMARK    4  A    between atoms: C_11  and  C_12
REMARK    5  A    between atoms: C_14  and  C_17
REMARK    6  A    between atoms: C_17  and  N_18
REMARK                            x       y       z     vdW  Elec       q    Type
REMARK                         _______ _______ _______ _____ _____    ______ ____
ROOT
ATOM      1  C   UNL     1       0.423  -6.859   2.535  0.00  0.00    +0.087 A 
ATOM      2  N   UNL     1      -0.536  -7.230   3.346  0.00  0.00    -0.247 NA
ATOM      3  C   UNL     1      -0.276  -7.658   4.565  0.00  0.00    +0.068 A 
ATOM      4  C   UNL     1       1.028  -7.694   4.940  0.00  0.00    +0.072 A 
ATOM      5  S   UNL     1       1.814  -7.096   3.452  0.00  0.00    -0.080 S 
ENDROOT
BRANCH   1   6
ATOM      6  C   UNL     1       0.309  -6.349   1.121  0.00  0.00    +0.159 C 
BRANCH   6   8
ATOM      7  N   UNL     1       0.059  -4.170  -0.021  0.00  0.00    -0.285 N 
ATOM      8  C   UNL     1       0.175  -4.848   1.138  0.00  0.00    +0.224 C 
ATOM      9  O   UNL     1       0.173  -4.251   2.193  0.00  0.00    -0.275 OA
ATOM     10  H   UNL     1      -0.017  -4.651  -0.860  0.00  0.00    +0.155 HD
BRANCH   7  15
ATOM     11  C   UNL     1       0.008   1.503   0.007  0.00  0.00    +0.044 C 
ATOM     12  C   UNL     1       0.022  -0.004  -0.001  0.00  0.00    -0.050 A 
ATOM     13  C   UNL     1       0.777  -0.692   0.931  0.00  0.00    +0.005 A 
ATOM     14  C   UNL     1       0.791  -2.073   0.927  0.00  0.00    +0.023 A 
ATOM     15  C   UNL     1       0.046  -2.771  -0.014  0.00  0.00    +0.033 A 
ATOM     16  C   UNL     1      -0.712  -2.077  -0.948  0.00  0.00    +0.023 A 
ATOM     17  C   UNL     1      -0.726  -0.696  -0.936  0.00  0.00    +0.005 A 
ENDBRANCH   7  15
ENDBRANCH   6   8
ENDBRANCH   1   6
BRANCH   3  18
ATOM     18  C   UNL     1      -1.377  -8.085   5.502  0.00  0.00    +0.182 C 
BRANCH  18  19
ATOM     19  N   UNL     1      -1.915  -6.910   6.192  0.00  0.00    -0.290 N 
ATOM     20  C   UNL     1      -1.369  -6.513   7.368  0.00  0.00    +0.203 A 
ATOM     21  N   UNL     1      -1.815  -5.473   8.016  0.00  0.00    -0.233 NA
ATOM     22  C   UNL     1      -2.841  -4.748   7.543  0.00  0.00    +0.124 A 
ATOM     23  C   UNL     1      -3.561  -3.557   8.017  0.00  0.00    +0.046 A 
ATOM     24  C   UNL     1      -3.444  -2.735   9.136  0.00  0.00    +0.014 A 
ATOM     25  C   UNL     1      -4.299  -1.665   9.290  0.00  0.00    +0.001 A 
ATOM     26  C   UNL     1      -5.272  -1.407   8.336  0.00  0.00    +0.004 A 
ATOM     27  C   UNL     1      -5.398  -2.212   7.225  0.00  0.00    +0.047 A 
ATOM     28  C   UNL     1      -4.545  -3.297   7.050  0.00  0.00    +0.138 A 
ATOM     29  O   UNL     1      -4.444  -4.230   6.080  0.00  0.00    -0.448 OA
ATOM     30  C   UNL     1      -3.447  -5.102   6.341  0.00  0.00    +0.219 A 
ATOM     31  C   UNL     1      -2.947  -6.229   5.650  0.00  0.00    +0.297 A 
ATOM     32  O   UNL     1      -3.438  -6.580   4.591  0.00  0.00    -0.264 OA
ENDBRANCH  18  19
ENDBRANCH   3  18
TORSDOF 5
