REMARK  Name = ZINC10698113
REMARK  10 active torsions:
REMARK  status: ('A' for Active; 'I' for Inactive)
REMARK    1  A    between atoms: C_1  and  C_2
REMARK    2  A    between atoms: C_5  and  C_8
REMARK    3  A    between atoms: C_8  and  C_9
REMARK    4  A    between atoms: C_9  and  N_11
REMARK    5  A    between atoms: N_13  and  C_25
REMARK    6  A    between atoms: C_17  and  S_21
REMARK    7  A    between atoms: S_21  and  N_24
REMARK    8  A    between atoms: C_25  and  C_26
REMARK    9  A    between atoms: C_26  and  O_27
REMARK   10  A    between atoms: O_27  and  C_28
REMARK                            x       y       z     vdW  Elec       q    Type
REMARK                         _______ _______ _______ _____ _____    ______ ____
ROOT
ATOM      1  N   UNL     1      -2.923   2.942   1.717  0.00  0.00    -0.156 NA
ATOM      2  C   UNL     1      -3.292   3.190   2.972  0.00  0.00    +0.166 A 
ATOM      3  N   UNL     1      -4.400   3.845   3.410  0.00  0.00    -0.319 N 
ATOM      4  C   UNL     1      -4.621   4.004   4.765  0.00  0.00    +0.058 A 
ATOM      5  C   UNL     1      -5.698   4.640   5.404  0.00  0.00    +0.029 A 
ATOM      6  C   UNL     1      -5.757   4.714   6.775  0.00  0.00    +0.030 A 
ATOM      7  C   UNL     1      -4.761   4.167   7.567  0.00  0.00    +0.106 A 
ATOM      8  C   UNL     1      -3.689   3.535   6.965  0.00  0.00    +0.045 A 
ATOM      9  C   UNL     1      -3.628   3.460   5.593  0.00  0.00    +0.041 A 
ATOM     10  S   UNL     1      -2.473   2.764   4.439  0.00  0.00    -0.052 S 
ENDROOT
BRANCH   7  11
ATOM     11  S   UNL     1      -4.860   4.275   9.323  0.00  0.00    +0.056 S 
ATOM     12  O   UNL     1      -3.531   4.163   9.813  0.00  0.00    -0.153 OA
ATOM     13  O   UNL     1      -5.688   5.393   9.616  0.00  0.00    -0.153 OA
BRANCH  11  14
ATOM     14  N   UNL     1      -5.673   2.933   9.851  0.00  0.00    -0.204 NA
ATOM     15  H   UNL     1      -5.990   2.275   9.213  0.00  0.00    +0.144 HD
ATOM     16  H   UNL     1      -5.833   2.804  10.800  0.00  0.00    +0.144 HD
ENDBRANCH  11  14
ENDBRANCH   7  11
BRANCH   1  17
ATOM     17  C   UNL     1      -1.792   2.286   1.476  0.00  0.00    +0.243 C 
ATOM     18  O   UNL     1      -1.095   1.914   2.400  0.00  0.00    -0.273 OA
BRANCH  17  19
ATOM     19  C   UNL     1      -1.374   2.005   0.056  0.00  0.00    +0.133 C 
BRANCH  19  24
ATOM     20  C   UNL     1       3.639  -0.870   0.040  0.00  0.00    +0.044 C 
ATOM     21  C   UNL     1       2.332  -0.120   0.046  0.00  0.00    -0.050 A 
ATOM     22  C   UNL     1       1.137  -0.815   0.083  0.00  0.00    +0.003 A 
ATOM     23  C   UNL     1      -0.062  -0.127   0.087  0.00  0.00    +0.004 A 
ATOM     24  C   UNL     1      -0.066   1.255   0.057  0.00  0.00    -0.039 A 
ATOM     25  C   UNL     1       1.129   1.949   0.021  0.00  0.00    +0.004 A 
ATOM     26  C   UNL     1       2.328   1.262   0.014  0.00  0.00    +0.003 A 
ENDBRANCH  19  24
ENDBRANCH  17  19
ENDBRANCH   1  17
BRANCH   3  27
ATOM     27  C   UNL     1      -5.364   4.378   2.444  0.00  0.00    +0.152 C 
BRANCH  27  28
ATOM     28  C   UNL     1      -4.618   4.912   1.220  0.00  0.00    +0.181 C 
BRANCH  28  29
ATOM     29  O   UNL     1      -5.544   5.553   0.340  0.00  0.00    -0.381 OA
ATOM     30  C   UNL     1      -4.946   6.090  -0.841  0.00  0.00    +0.194 C 
ENDBRANCH  28  29
ENDBRANCH  27  28
ENDBRANCH   3  27
TORSDOF 8
