REMARK  Name = ZINC36004511
REMARK  14 active torsions:
REMARK  status: ('A' for Active; 'I' for Inactive)
REMARK    1  A    between atoms: C_1  and  C_2
REMARK    2  A    between atoms: C_2  and  N_3
REMARK    3  A    between atoms: N_3  and  C_4
REMARK    4  A    between atoms: N_3  and  S_22
REMARK    5  A    between atoms: C_4  and  C_6
REMARK    6  A    between atoms: C_4  and  C_7
REMARK    7  A    between atoms: C_7  and  C_9
REMARK    8  A    between atoms: C_10  and  C_21
REMARK    9  A    between atoms: C_11  and  C_16
REMARK   10  A    between atoms: C_14  and  C_15
REMARK   11  A    between atoms: C_16  and  O_18
REMARK   12  A    between atoms: O_18  and  C_19
REMARK   13  A    between atoms: C_19  and  C_20
REMARK   14  A    between atoms: S_22  and  C_25
REMARK                            x       y       z     vdW  Elec       q    Type
REMARK                         _______ _______ _______ _____ _____    ______ ____
ROOT
ATOM      1  C   UNL     1      -2.605   1.038  -1.250  0.00  0.00    +0.183 C 
ATOM      2  O   UNL     1      -1.846   1.952  -1.002  0.00  0.00    -0.290 OA
ENDROOT
BRANCH   1   3
ATOM      3  C   UNL     1      -3.699   1.233  -2.206  0.00  0.00    +0.043 A 
ATOM      4  C   UNL     1      -3.942   2.390  -2.984  0.00  0.00    -0.008 A 
ATOM      5  C   UNL     1      -5.054   2.141  -3.731  0.00  0.00    +0.128 A 
ATOM      6  N   UNL     1      -5.500   0.870  -3.437  0.00  0.00    -0.352 N 
ATOM      7  H   UNL     1      -6.277   0.443  -3.831  0.00  0.00    +0.166 HD
ATOM      8  C   UNL     1      -4.688   0.315  -2.525  0.00  0.00    +0.024 A 
ATOM      9  C   UNL     1      -4.829  -1.068  -1.944  0.00  0.00    +0.064 C 
ATOM     10  C   UNL     1      -3.126   3.657  -2.985  0.00  0.00    +0.047 C 
BRANCH   5  11
ATOM     11  C   UNL     1      -5.672   3.068  -4.686  0.00  0.00    +0.356 C 
ATOM     12  O   UNL     1      -5.188   4.169  -4.864  0.00  0.00    -0.243 OA
BRANCH  11  13
ATOM     13  O   UNL     1      -6.777   2.698  -5.366  0.00  0.00    -0.460 OA
BRANCH  13  14
ATOM     14  C   UNL     1      -7.325   3.651  -6.279  0.00  0.00    +0.229 C 
ATOM     15  C   UNL     1      -8.565   3.058  -6.951  0.00  0.00    +0.048 C 
ENDBRANCH  13  14
ENDBRANCH  11  13
ENDBRANCH   5  11
ENDBRANCH   1   3
BRANCH   1  16
ATOM     16  C   UNL     1      -2.423  -0.296  -0.574  0.00  0.00    +0.148 C 
ATOM     17  C   UNL     1      -1.577  -1.208  -1.465  0.00  0.00    +0.034 C 
BRANCH  16  18
ATOM     18  N   UNL     1      -1.746  -0.105   0.711  0.00  0.00    -0.167 NA
BRANCH  18  19
ATOM     19  S   UNL     1      -2.582   0.502   2.005  0.00  0.00    +0.061 S 
ATOM     20  O   UNL     1      -3.954   0.215   1.773  0.00  0.00    -0.153 OA
ATOM     21  O   UNL     1      -1.899   0.064   3.172  0.00  0.00    -0.153 OA
BRANCH  19  22
ATOM     22  C   UNL     1      -2.418   2.256   1.955  0.00  0.00    +0.105 A 
ATOM     23  C   UNL     1      -1.363   2.870   2.603  0.00  0.00    +0.028 A 
ATOM     24  C   UNL     1      -1.235   4.246   2.563  0.00  0.00    +0.002 A 
ATOM     25  C   UNL     1      -2.161   5.007   1.875  0.00  0.00    +0.000 A 
ATOM     26  C   UNL     1      -3.216   4.393   1.227  0.00  0.00    +0.002 A 
ATOM     27  C   UNL     1      -3.342   3.017   1.263  0.00  0.00    +0.028 A 
ENDBRANCH  19  22
ENDBRANCH  18  19
BRANCH  18  29
ATOM     28  C   UNL     1       0.531   0.704   0.334  0.00  0.00    +0.022 C 
ATOM     29  C   UNL     1      -0.329  -0.451   0.851  0.00  0.00    +0.107 C 
ENDBRANCH  18  29
ENDBRANCH  16  18
ENDBRANCH   1  16
TORSDOF 9
