REMARK  Name = ZINC36366182
REMARK  5 active torsions:
REMARK  status: ('A' for Active; 'I' for Inactive)
REMARK    1  A    between atoms: C_1  and  O_2
REMARK    2  A    between atoms: O_2  and  C_3
REMARK    3  A    between atoms: C_6  and  N_9
REMARK    4  A    between atoms: C_15  and  O_26
REMARK    5  A    between atoms: C_17  and  C_19
REMARK                            x       y       z     vdW  Elec       q    Type
REMARK                         _______ _______ _______ _____ _____    ______ ____
ROOT
ATOM      1  N   UNL     1       2.459  -2.458  -4.303  0.00  0.00    -0.283 N 
ATOM      2  C   UNL     1       2.246  -2.189  -5.625  0.00  0.00    +0.206 A 
ATOM      3  N   UNL     1       3.007  -2.973  -6.347  0.00  0.00    -0.237 NA
ATOM      4  C   UNL     1       3.719  -3.756  -5.547  0.00  0.00    +0.094 A 
ATOM      5  C   UNL     1       3.399  -3.446  -4.250  0.00  0.00    +0.165 A 
ATOM      6  N   UNL     1       3.984  -4.077  -3.192  0.00  0.00    -0.197 NA
ATOM      7  C   UNL     1       4.615  -5.195  -3.396  0.00  0.00    +0.190 C 
ATOM      8  C   UNL     1       4.706  -5.856  -4.741  0.00  0.00    +0.110 C 
ATOM      9  C   UNL     1       4.728  -4.829  -5.873  0.00  0.00    +0.080 C 
ENDROOT
BRANCH   9  10
ATOM     10  C   UNL     1       6.105  -4.223  -5.968  0.00  0.00    -0.038 A 
ATOM     11  C   UNL     1       6.654  -3.582  -4.873  0.00  0.00    +0.006 A 
ATOM     12  C   UNL     1       7.917  -3.026  -4.959  0.00  0.00    +0.020 A 
ATOM     13  C   UNL     1       8.630  -3.111  -6.142  0.00  0.00    +0.041 A 
ATOM     14  C   UNL     1       8.080  -3.752  -7.237  0.00  0.00    +0.020 A 
ATOM     15  C   UNL     1       6.820  -4.312  -7.148  0.00  0.00    +0.006 A 
ATOM     16 CL   UNL     1      10.216  -2.412  -6.251  0.00  0.00    -0.084 Cl
ENDBRANCH   9  10
BRANCH   1  20
ATOM     17  C   UNL     1       0.606  -0.607  -1.056  0.00  0.00    +0.120 A 
ATOM     18  C   UNL     1       1.173   0.162  -2.062  0.00  0.00    +0.047 A 
ATOM     19  C   UNL     1       1.786  -0.451  -3.137  0.00  0.00    +0.030 A 
ATOM     20  C   UNL     1       1.836  -1.836  -3.211  0.00  0.00    +0.050 A 
ATOM     21  C   UNL     1       1.269  -2.605  -2.204  0.00  0.00    +0.030 A 
ATOM     22  C   UNL     1       0.660  -1.992  -1.127  0.00  0.00    +0.047 A 
BRANCH  17  24
ATOM     23  C   UNL     1      -0.017   1.425   0.010  0.00  0.00    +0.277 C 
ATOM     24  O   UNL     1       0.002  -0.004   0.002  0.00  0.00    -0.495 OA
ENDBRANCH  17  24
ENDBRANCH   1  20
BRANCH   7  25
ATOM     25  O   UNL     1       5.220  -5.792  -2.347  0.00  0.00    -0.495 OA
ATOM     26  H   UNL     1       5.122  -5.313  -1.513  0.00  0.00    +0.293 HD
ENDBRANCH   7  25
TORSDOF 4
