REMARK  Name = ZINC13899537
REMARK  8 active torsions:
REMARK  status: ('A' for Active; 'I' for Inactive)
REMARK    1  A    between atoms: C_4  and  C_7
REMARK    2  A    between atoms: C_7  and  N_8
REMARK    3  A    between atoms: N_8  and  C_9
REMARK    4  A    between atoms: C_9  and  N_11
REMARK    5  A    between atoms: N_11  and  N_12
REMARK    6  A    between atoms: C_13  and  C_14
REMARK    7  A    between atoms: C_17  and  C_19
REMARK    8  A    between atoms: C_22  and  N_26
REMARK                            x       y       z     vdW  Elec       q    Type
REMARK                         _______ _______ _______ _____ _____    ______ ____
ROOT
ATOM      1  N   UNL     1      -2.328  -0.325   0.022  0.00  0.00    -0.185 NA
ATOM      2  C   UNL     1      -1.104  -0.842   0.008  0.00  0.00    +0.176 C 
ENDROOT
BRANCH   2   3
ATOM      3  C   UNL     1       0.002  -0.004   0.002  0.00  0.00    +0.148 A 
ATOM      4  C   UNL     1       1.411  -0.422  -0.014  0.00  0.00    +0.051 A 
ATOM      5  C   UNL     1       2.147   0.720  -0.015  0.00  0.00    +0.050 A 
ATOM      6  C   UNL     1       1.245   1.809  -0.000  0.00  0.00    +0.137 A 
ATOM      7  O   UNL     1      -0.016   1.347   0.009  0.00  0.00    -0.454 OA
BRANCH   6   8
ATOM      8  C   UNL     1       1.615   3.178   0.003  0.00  0.00    +0.031 A 
ATOM      9  C   UNL     1       2.560   3.655   0.932  0.00  0.00    +0.015 A 
ATOM     10  C   UNL     1       2.914   4.973   0.925  0.00  0.00    +0.033 A 
ATOM     11  C   UNL     1       2.341   5.850   0.015  0.00  0.00    +0.127 A 
ATOM     12  C   UNL     1       1.406   5.400  -0.903  0.00  0.00    +0.048 A 
ATOM     13  C   UNL     1       1.036   4.072  -0.919  0.00  0.00    +0.031 A 
ATOM     14 BR   UNL     1      -0.239   3.454  -2.171  0.00  0.00    -0.049 Br
BRANCH  11  15
ATOM     15  N   UNL     1       2.731   7.278   0.026  0.00  0.00    +0.056 N 
ATOM     16  O   UNL     1       2.190   8.115  -0.835  0.00  0.00    -0.126 OA
ATOM     17  O   UNL     1       3.619   7.712   0.896  0.00  0.00    -0.126 OA
ENDBRANCH  11  15
ENDBRANCH   6   8
ENDBRANCH   2   3
BRANCH   1  18
ATOM     18  N   UNL     1      -3.357  -1.104   0.027  0.00  0.00    -0.218 N 
ATOM     19  H   UNL     1      -3.236  -2.067   0.021  0.00  0.00    +0.176 HD
BRANCH  18  20
ATOM     20  C   UNL     1      -4.598  -0.580   0.042  0.00  0.00    +0.150 C 
ATOM     21  S   UNL     1      -5.963  -1.614   0.049  0.00  0.00    -0.017 S 
BRANCH  20  22
ATOM     22  N   UNL     1      -4.766   0.757   0.051  0.00  0.00    -0.321 N 
ATOM     23  H   UNL     1      -3.993   1.343   0.047  0.00  0.00    +0.148 HD
BRANCH  22  24
ATOM     24  C   UNL     1      -6.115   1.326   0.067  0.00  0.00    +0.138 C 
BRANCH  24  28
ATOM     25  C   UNL     1      -5.863   5.590   0.089  0.00  0.00    +0.000 A 
ATOM     26  C   UNL     1      -5.915   4.907  -1.111  0.00  0.00    +0.000 A 
ATOM     27  C   UNL     1      -5.997   3.527  -1.118  0.00  0.00    +0.005 A 
ATOM     28  C   UNL     1      -6.026   2.831   0.075  0.00  0.00    -0.030 A 
ATOM     29  C   UNL     1      -5.980   3.514   1.276  0.00  0.00    +0.005 A 
ATOM     30  C   UNL     1      -5.893   4.894   1.283  0.00  0.00    +0.000 A 
ENDBRANCH  24  28
ENDBRANCH  22  24
ENDBRANCH  20  22
ENDBRANCH  18  20
ENDBRANCH   1  18
TORSDOF 8
