REMARK  Name = ZINC65587708
REMARK  3 active torsions:
REMARK  status: ('A' for Active; 'I' for Inactive)
REMARK    1  A    between atoms: C_8  and  C_25
REMARK    2  A    between atoms: C_12  and  C_14
REMARK    3  A    between atoms: C_15  and  C_16
REMARK                            x       y       z     vdW  Elec       q    Type
REMARK                         _______ _______ _______ _____ _____    ______ ____
ROOT
ATOM      1  C   UNL     1      -0.005   1.398  -0.083  0.00  0.00    +0.000 A 
ATOM      2  C   UNL     1       1.185   2.101  -0.100  0.00  0.00    +0.002 A 
ATOM      3  C   UNL     1       2.387   1.422  -0.080  0.00  0.00    +0.024 A 
ATOM      4  C   UNL     1       2.399   0.032  -0.043  0.00  0.00    +0.040 A 
ATOM      5  C   UNL     1       1.206  -0.673  -0.030  0.00  0.00    -0.025 A 
ATOM      6  C   UNL     1       0.005   0.017  -0.048  0.00  0.00    +0.005 A 
ATOM      7  C   UNL     1       1.181  -2.178  -0.002  0.00  0.00    +0.051 C 
ATOM      8  C   UNL     1       2.511  -2.726   0.514  0.00  0.00    +0.097 C 
ATOM      9  C   UNL     1       3.654  -2.084  -0.282  0.00  0.00    +0.127 C 
ATOM     10  N   UNL     1       3.628  -0.639  -0.019  0.00  0.00    -0.267 N 
ATOM     11  C   UNL     1       4.769   0.031   0.243  0.00  0.00    +0.244 C 
ATOM     12  O   UNL     1       4.744   1.237   0.399  0.00  0.00    -0.270 OA
ENDROOT
BRANCH   8  13
ATOM     13  C   UNL     1       2.545  -4.222   0.334  0.00  0.00    +0.215 C 
ATOM     14  O   UNL     1       1.597  -4.795  -0.159  0.00  0.00    -0.276 OA
ATOM     15  N   UNL     1       3.629  -4.923   0.722  0.00  0.00    -0.329 N 
ATOM     16  H   UNL     1       4.387  -4.465   1.117  0.00  0.00    +0.145 HD
ATOM     17  H   UNL     1       3.650  -5.886   0.606  0.00  0.00    +0.145 HD
ENDBRANCH   8  13
BRANCH  11  18
ATOM     18  C   UNL     1       6.040  -0.695   0.338  0.00  0.00    +0.073 C 
ATOM     19  C   UNL     1       7.162  -0.044   0.707  0.00  0.00    +0.073 C 
BRANCH  19  20
ATOM     20  C   UNL     1       8.434  -0.770   0.803  0.00  0.00    +0.221 A 
ATOM     21  N   UNL     1       8.593  -2.047   0.548  0.00  0.00    -0.209 NA
ATOM     22  C   UNL     1       9.887  -2.372   0.737  0.00  0.00    +0.110 A 
ATOM     23  C   UNL     1      10.611  -3.564   0.616  0.00  0.00    +0.031 A 
ATOM     24  C   UNL     1      11.950  -3.576   0.885  0.00  0.00    +0.002 A 
ATOM     25  C   UNL     1      12.602  -2.416   1.279  0.00  0.00    +0.004 A 
ATOM     26  C   UNL     1      11.909  -1.230   1.405  0.00  0.00    +0.048 A 
ATOM     27  C   UNL     1      10.549  -1.196   1.136  0.00  0.00    +0.156 A 
ATOM     28  O   UNL     1       9.613  -0.223   1.160  0.00  0.00    -0.436 OA
ENDBRANCH  19  20
ENDBRANCH  11  18
TORSDOF 3
