REMARK  Name = ZINC41585935
REMARK  4 active torsions:
REMARK  status: ('A' for Active; 'I' for Inactive)
REMARK    1  A    between atoms: N_10  and  C_13
REMARK    2  A    between atoms: C_13  and  C_14
REMARK    3  A    between atoms: C_15  and  O_37
REMARK    4  A    between atoms: C_24  and  C_25
REMARK                            x       y       z     vdW  Elec       q    Type
REMARK                         _______ _______ _______ _____ _____    ______ ____
ROOT
ATOM      1  C   UNL     1       0.108  -6.738  -1.565  0.00  0.00    +0.051 A 
ATOM      2  C   UNL     1       0.429  -7.791  -0.723  0.00  0.00    +0.125 A 
ATOM      3  C   UNL     1      -0.548  -8.700  -0.324  0.00  0.00    +0.046 A 
ATOM      4  C   UNL     1      -1.836  -8.566  -0.759  0.00  0.00    +0.016 A 
ATOM      5  C   UNL     1      -2.175  -7.511  -1.608  0.00  0.00    +0.026 A 
ATOM      6  C   UNL     1      -1.197  -6.586  -2.010  0.00  0.00    +0.148 A 
ATOM      7  O   UNL     1      -1.530  -5.563  -2.827  0.00  0.00    -0.422 OA
ATOM      8  C   UNL     1      -2.784  -5.390  -3.274  0.00  0.00    +0.338 A 
ATOM      9  O   UNL     1      -3.025  -4.448  -4.010  0.00  0.00    -0.245 OA
ATOM     10  C   UNL     1      -3.823  -6.262  -2.919  0.00  0.00    +0.101 A 
ATOM     11  C   UNL     1      -3.556  -7.342  -2.094  0.00  0.00    +0.006 A 
ENDROOT
BRANCH  11  12
ATOM     12  C   UNL     1      -4.623  -8.280  -1.698  0.00  0.00    +0.068 A 
ATOM     13  C   UNL     1      -5.316  -9.023  -2.642  0.00  0.00    +0.027 A 
ATOM     14  C   UNL     1      -6.350  -9.882  -2.188  0.00  0.00    +0.020 A 
ATOM     15  C   UNL     1      -6.947 -10.801  -3.063  0.00  0.00    +0.031 A 
ATOM     16  C   UNL     1      -7.919 -11.655  -2.596  0.00  0.00    +0.042 A 
ATOM     17  C   UNL     1      -8.317 -11.606  -1.266  0.00  0.00    +0.023 A 
ATOM     18  C   UNL     1      -7.754 -10.695  -0.397  0.00  0.00    +0.048 A 
ATOM     19  C   UNL     1      -6.776  -9.819  -0.849  0.00  0.00    +0.139 A 
ATOM     20  O   UNL     1      -6.249  -8.892  -0.012  0.00  0.00    -0.422 OA
ATOM     21  C   UNL     1      -4.990  -8.471  -0.283  0.00  0.00    +0.345 A 
ATOM     22  O   UNL     1      -4.192  -8.253   0.609  0.00  0.00    -0.245 OA
ATOM     23 CL   UNL     1      -8.653 -12.800  -3.674  0.00  0.00    -0.084 Cl
ENDBRANCH  11  12
BRANCH   2  24
ATOM     24  O   UNL     1       1.705  -7.936  -0.283  0.00  0.00    -0.506 OA
ATOM     25  H   UNL     1       1.891  -7.474   0.546  0.00  0.00    +0.292 HD
ENDBRANCH   2  24
BRANCH   1  26
ATOM     26  C   UNL     1       1.171  -5.759  -1.990  0.00  0.00    +0.127 C 
BRANCH  26  36
ATOM     27  C   UNL     1      -0.017   1.379  -0.013  0.00  0.00    +0.005 A 
ATOM     28  C   UNL     1       1.195   2.058   0.002  0.00  0.00    +0.018 A 
ATOM     29  C   UNL     1       2.373   1.339   0.009  0.00  0.00    +0.084 A 
ATOM     30  N   UNL     1       2.361   0.020   0.001  0.00  0.00    -0.350 N 
ATOM     31  C   UNL     1       1.227  -0.664  -0.014  0.00  0.00    +0.099 A 
ATOM     32  C   UNL     1       0.002  -0.004  -0.021  0.00  0.00    +0.042 A 
ATOM     33  N   UNL     1       1.260  -2.054  -0.022  0.00  0.00    -0.314 N 
ATOM     34  C   UNL     1       2.535  -2.777  -0.142  0.00  0.00    +0.122 C 
ATOM     35  C   UNL     1       2.407  -3.805  -1.271  0.00  0.00    +0.103 C 
ATOM     36  N   UNL     1       1.232  -4.653  -1.026  0.00  0.00    -0.295 NA
ATOM     37  C   UNL     1      -0.007  -3.865  -1.049  0.00  0.00    +0.103 C 
ATOM     38  C   UNL     1       0.023  -2.839   0.095  0.00  0.00    +0.122 C 
ATOM     39  H   UNL     1       3.203  -0.461   0.006  0.00  0.00    +0.166 HD
ENDBRANCH  26  36
ENDBRANCH   1  26
TORSDOF 4
