REMARK  Name = ZINC11694535
REMARK  7 active torsions:
REMARK  status: ('A' for Active; 'I' for Inactive)
REMARK    1  A    between atoms: C_4  and  C_7
REMARK    2  A    between atoms: C_13  and  O_16
REMARK    3  A    between atoms: O_16  and  C_17
REMARK    4  A    between atoms: C_17  and  C_18
REMARK    5  A    between atoms: C_18  and  N_19
REMARK    6  A    between atoms: N_19  and  S_20
REMARK    7  A    between atoms: S_20  and  C_23
REMARK                            x       y       z     vdW  Elec       q    Type
REMARK                         _______ _______ _______ _____ _____    ______ ____
ROOT
ATOM      1  C   UNL     1      -1.622   3.491  -3.009  0.00  0.00    +0.247 C 
ENDROOT
BRANCH   1   2
ATOM      2  O   UNL     1      -2.901   2.871  -3.152  0.00  0.00    -0.474 OA
BRANCH   2   9
ATOM      3  C   UNL     1      -3.073   4.204  -7.801  0.00  0.00    +0.185 A 
ATOM      4  N   UNL     1      -4.035   3.972  -8.675  0.00  0.00    -0.127 NA
ATOM      5  N   UNL     1      -4.987   3.308  -8.118  0.00  0.00    -0.128 NA
ATOM      6  C   UNL     1      -4.684   3.077  -6.848  0.00  0.00    +0.179 A 
ATOM      7  N   UNL     1      -3.455   3.644  -6.618  0.00  0.00    -0.189 N 
ATOM      8  N   UNL     1      -2.871   3.560  -5.353  0.00  0.00    -0.125 NA
ATOM      9  C   UNL     1      -3.487   2.941  -4.375  0.00  0.00    +0.233 A 
ATOM     10  C   UNL     1      -4.744   2.345  -4.578  0.00  0.00    +0.072 A 
ATOM     11  C   UNL     1      -5.344   2.413  -5.797  0.00  0.00    +0.055 A 
BRANCH   3  15
ATOM     12  C   UNL     1       0.541   6.308  -8.539  0.00  0.00    +0.000 A 
ATOM     13  C   UNL     1      -0.229   5.869  -9.601  0.00  0.00    +0.001 A 
ATOM     14  C   UNL     1      -1.404   5.185  -9.368  0.00  0.00    +0.011 A 
ATOM     15  C   UNL     1      -1.815   4.936  -8.058  0.00  0.00    +0.021 A 
ATOM     16  C   UNL     1      -1.036   5.386  -6.991  0.00  0.00    +0.011 A 
ATOM     17  C   UNL     1       0.140   6.064  -7.237  0.00  0.00    +0.001 A 
ENDBRANCH   3  15
ENDBRANCH   2   9
ENDBRANCH   1   2
BRANCH   1  18
ATOM     18  C   UNL     1      -1.125   3.309  -1.574  0.00  0.00    +0.147 C 
BRANCH  18  19
ATOM     19  N   UNL     1      -0.897   1.885  -1.312  0.00  0.00    -0.187 NA
ATOM     20  H   UNL     1      -1.263   1.218  -1.913  0.00  0.00    +0.148 HD
BRANCH  19  21
ATOM     21  S   UNL     1      -0.017   1.417   0.010  0.00  0.00    +0.059 S 
ATOM     22  O   UNL     1       0.002  -0.004   0.002  0.00  0.00    -0.153 OA
ATOM     23  O   UNL     1       1.172   2.195   0.003  0.00  0.00    -0.153 OA
BRANCH  21  24
ATOM     24  C   UNL     1      -0.927   1.900   1.439  0.00  0.00    +0.106 A 
ATOM     25  C   UNL     1      -0.707   3.157   2.000  0.00  0.00    +0.029 A 
ATOM     26  C   UNL     1      -1.397   3.564   3.101  0.00  0.00    +0.010 A 
ATOM     27  C   UNL     1      -2.337   2.701   3.690  0.00  0.00    -0.018 A 
ATOM     28  C   UNL     1      -3.063   3.083   4.831  0.00  0.00    +0.008 A 
ATOM     29  C   UNL     1      -3.965   2.221   5.375  0.00  0.00    +0.001 A 
ATOM     30  C   UNL     1      -4.181   0.962   4.817  0.00  0.00    +0.001 A 
ATOM     31  C   UNL     1      -3.495   0.558   3.713  0.00  0.00    +0.008 A 
ATOM     32  C   UNL     1      -2.556   1.421   3.123  0.00  0.00    -0.016 A 
ATOM     33  C   UNL     1      -1.829   1.038   1.983  0.00  0.00    +0.037 A 
ENDBRANCH  21  24
ENDBRANCH  19  21
ENDBRANCH  18  19
ENDBRANCH   1  18
TORSDOF 7
