REMARK  Name = ZINC05055648
REMARK  6 active torsions:
REMARK  status: ('A' for Active; 'I' for Inactive)
REMARK    1  A    between atoms: C_1  and  C_2
REMARK    2  A    between atoms: C_9  and  N_15
REMARK    3  A    between atoms: C_10  and  C_11
REMARK    4  A    between atoms: N_13  and  C_14
REMARK    5  A    between atoms: C_16  and  C_18
REMARK    6  A    between atoms: C_20  and  N_25
REMARK                            x       y       z     vdW  Elec       q    Type
REMARK                         _______ _______ _______ _____ _____    ______ ____
ROOT
ATOM      1  C   UNL     1      -0.758   1.595  -1.227  0.00  0.00    +0.008 C 
ATOM      2  C   UNL     1      -0.013   1.086   0.008  0.00  0.00    -0.009 C 
ATOM      3  C   UNL     1      -0.714   1.583   1.276  0.00  0.00    +0.008 C 
ATOM      4  C   UNL     1      -0.129   0.881   2.503  0.00  0.00    +0.037 C 
ATOM      5  C   UNL     1       1.387   1.034   2.479  0.00  0.00    -0.023 A 
ATOM      6  C   UNL     1       2.035   1.365   1.342  0.00  0.00    -0.004 A 
ATOM      7  S   UNL     1       3.745   1.427   1.797  0.00  0.00    -0.077 S 
ATOM      8  C   UNL     1       3.603   1.019   3.475  0.00  0.00    +0.085 A 
ATOM      9  C   UNL     1       2.236   0.845   3.643  0.00  0.00    +0.069 A 
ATOM     10  C   UNL     1       1.427   1.620  -0.003  0.00  0.00    +0.046 C 
ENDROOT
BRANCH   9  11
ATOM     11  C   UNL     1       1.670   0.482   4.946  0.00  0.00    +0.246 C 
ATOM     12  O   UNL     1       1.335   1.353   5.727  0.00  0.00    -0.270 OA
ATOM     13  N   UNL     1       1.522  -0.815   5.280  0.00  0.00    -0.314 N 
ATOM     14  C   UNL     1       0.957  -1.177   6.582  0.00  0.00    +0.128 C 
ATOM     15  H   UNL     1       1.790  -1.509   4.657  0.00  0.00    +0.149 HD
ENDBRANCH   9  11
BRANCH   8  16
ATOM     16  N   UNL     1       4.609   0.896   4.419  0.00  0.00    -0.275 N 
ATOM     17  C   UNL     1       5.893   1.105   4.067  0.00  0.00    +0.250 C 
ATOM     18  O   UNL     1       6.168   1.402   2.921  0.00  0.00    -0.270 OA
ATOM     19  H   UNL     1       4.389   0.659   5.334  0.00  0.00    +0.156 HD
BRANCH  17  20
ATOM     20  C   UNL     1       6.966   0.974   5.074  0.00  0.00    +0.057 A 
ATOM     21  C   UNL     1       6.653   0.634   6.392  0.00  0.00    +0.047 A 
ATOM     22  C   UNL     1       7.660   0.513   7.326  0.00  0.00    +0.127 A 
ATOM     23  C   UNL     1       8.978   0.728   6.962  0.00  0.00    +0.034 A 
ATOM     24  C   UNL     1       9.296   1.066   5.659  0.00  0.00    +0.023 A 
ATOM     25  C   UNL     1       8.298   1.185   4.711  0.00  0.00    +0.053 A 
ATOM     26 CL   UNL     1       8.699   1.601   3.074  0.00  0.00    -0.083 Cl
BRANCH  22  27
ATOM     27  N   UNL     1       7.330   0.151   8.723  0.00  0.00    +0.056 N 
ATOM     28  O   UNL     1       6.171  -0.039   9.046  0.00  0.00    -0.126 OA
ATOM     29  O   UNL     1       8.217   0.044   9.550  0.00  0.00    -0.126 OA
ENDBRANCH  22  27
ENDBRANCH  17  20
ENDBRANCH   8  16
TORSDOF 4
