REMARK  Name = ZINC40548120
REMARK  5 active torsions:
REMARK  status: ('A' for Active; 'I' for Inactive)
REMARK    1  A    between atoms: C_1  and  C_2
REMARK    2  A    between atoms: C_5  and  C_8
REMARK    3  A    between atoms: C_11  and  C_27
REMARK    4  A    between atoms: N_18  and  C_19
REMARK    5  A    between atoms: C_32  and  O_33
REMARK                            x       y       z     vdW  Elec       q    Type
REMARK                         _______ _______ _______ _____ _____    ______ ____
ROOT
ATOM      1  C   UNL     1       0.052  -4.237   0.005  0.00  0.00    +0.142 C 
ATOM      2  C   UNL     1      -1.283  -4.796   0.415  0.00  0.00    +0.035 A 
ATOM      3  C   UNL     1      -2.653  -4.890   0.152  0.00  0.00    +0.102 A 
ATOM      4  N   UNL     1      -3.184  -5.653   1.088  0.00  0.00    -0.173 NA
ATOM      5  N   UNL     1      -2.284  -6.050   1.916  0.00  0.00    -0.272 N 
ATOM      6  H   UNL     1      -2.446  -6.620   2.683  0.00  0.00    +0.189 HD
ATOM      7  C   UNL     1      -1.065  -5.549   1.553  0.00  0.00    +0.126 A 
ATOM      8  C   UNL     1       0.362  -5.492   1.885  0.00  0.00    +0.266 C 
ATOM      9  O   UNL     1       0.878  -6.051   2.834  0.00  0.00    -0.268 OA
ATOM     10  N   UNL     1       1.022  -4.731   0.991  0.00  0.00    -0.280 N 
ENDROOT
BRANCH   1  15
ATOM     11  C   UNL     1      -0.097   1.539   0.086  0.00  0.00    +0.044 C 
ATOM     12  C   UNL     1      -0.058   0.032   0.065  0.00  0.00    -0.050 A 
ATOM     13  C   UNL     1      -0.122  -0.677   1.249  0.00  0.00    +0.004 A 
ATOM     14  C   UNL     1      -0.086  -2.059   1.230  0.00  0.00    +0.006 A 
ATOM     15  C   UNL     1       0.012  -2.731   0.026  0.00  0.00    -0.022 A 
ATOM     16  C   UNL     1       0.075  -2.021  -1.159  0.00  0.00    +0.006 A 
ATOM     17  C   UNL     1       0.035  -0.640  -1.140  0.00  0.00    +0.004 A 
ENDBRANCH   1  15
BRANCH  10  18
ATOM     18  C   UNL     1       2.459  -4.446   0.999  0.00  0.00    +0.100 C 
ATOM     19  C   UNL     1       2.833  -3.746   2.315  0.00  0.00    +0.047 C 
ATOM     20  C   UNL     1       4.384  -3.738   2.436  0.00  0.00    +0.168 C 
ATOM     21  S   UNL     1       4.778  -5.431   1.824  0.00  0.00    -0.029 S 
ATOM     22  O   UNL     1       4.837  -6.321   2.930  0.00  0.00    -0.174 OA
ATOM     23  O   UNL     1       5.879  -5.354   0.929  0.00  0.00    -0.174 OA
ATOM     24  C   UNL     1       3.247  -5.771   0.865  0.00  0.00    +0.188 C 
ENDBRANCH  10  18
BRANCH   3  25
ATOM     25  C   UNL     1      -3.378  -4.249  -0.974  0.00  0.00    +0.045 A 
ATOM     26  C   UNL     1      -2.671  -3.574  -1.966  0.00  0.00    +0.033 A 
ATOM     27  C   UNL     1      -3.350  -2.979  -3.011  0.00  0.00    +0.042 A 
ATOM     28  C   UNL     1      -4.731  -3.051  -3.076  0.00  0.00    +0.023 A 
ATOM     29  C   UNL     1      -5.441  -3.718  -2.096  0.00  0.00    +0.047 A 
ATOM     30  C   UNL     1      -4.771  -4.325  -1.045  0.00  0.00    +0.126 A 
ATOM     31 CL   UNL     1      -2.468  -2.137  -4.247  0.00  0.00    -0.084 Cl
BRANCH  30  32
ATOM     32  O   UNL     1      -5.468  -4.986  -0.084  0.00  0.00    -0.506 OA
ATOM     33  H   UNL     1      -5.734  -4.431   0.661  0.00  0.00    +0.292 HD
ENDBRANCH  30  32
ENDBRANCH   3  25
TORSDOF 4
