REMARK  Name = ZINC66134947
REMARK  8 active torsions:
REMARK  status: ('A' for Active; 'I' for Inactive)
REMARK    1  A    between atoms: C_1  and  C_2
REMARK    2  A    between atoms: C_3  and  C_19
REMARK    3  A    between atoms: C_4  and  C_8
REMARK    4  A    between atoms: C_11  and  O_15
REMARK    5  A    between atoms: O_15  and  C_16
REMARK    6  A    between atoms: C_16  and  C_17
REMARK    7  A    between atoms: C_16  and  C_18
REMARK    8  A    between atoms: N_21  and  N_22
REMARK                            x       y       z     vdW  Elec       q    Type
REMARK                         _______ _______ _______ _____ _____    ______ ____
ROOT
ATOM      1  C   UNL     1      -0.297   1.481   0.038  0.00  0.00    +0.068 C 
ATOM      2  C   UNL     1      -0.120  -0.015   0.017  0.00  0.00    +0.072 A 
ATOM      3  C   UNL     1      -0.199  -0.840  -1.126  0.00  0.00    +0.086 A 
ATOM      4  C   UNL     1       0.026  -2.149  -0.700  0.00  0.00    +0.078 A 
ATOM      5  N   UNL     1       0.229  -2.102   0.635  0.00  0.00    -0.276 N 
ATOM      6  H   UNL     1       0.411  -2.863   1.209  0.00  0.00    +0.189 HD
ATOM      7  N   UNL     1       0.138  -0.769   1.049  0.00  0.00    -0.178 NA
ENDROOT
BRANCH   4   8
ATOM      8  C   UNL     1       0.039  -3.358  -1.548  0.00  0.00    +0.002 A 
ATOM      9  C   UNL     1      -0.956  -3.549  -2.510  0.00  0.00    +0.013 A 
ATOM     10  C   UNL     1      -0.941  -4.678  -3.300  0.00  0.00    +0.047 A 
ATOM     11  C   UNL     1       0.062  -5.626  -3.140  0.00  0.00    +0.135 A 
ATOM     12  C   UNL     1       1.054  -5.440  -2.185  0.00  0.00    +0.060 A 
ATOM     13  C   UNL     1       1.049  -4.310  -1.395  0.00  0.00    +0.029 A 
ATOM     14 BR   UNL     1       2.416  -6.734  -1.973  0.00  0.00    -0.046 Br
BRANCH  11  15
ATOM     15  O   UNL     1       0.073  -6.738  -3.920  0.00  0.00    -0.488 OA
BRANCH  15  16
ATOM     16  C   UNL     1      -0.903  -6.811  -4.961  0.00  0.00    +0.167 C 
ATOM     17  C   UNL     1      -0.397  -7.733  -6.072  0.00  0.00    +0.051 C 
ATOM     18  C   UNL     1      -2.212  -7.365  -4.395  0.00  0.00    +0.051 C 
ENDBRANCH  15  16
ENDBRANCH  11  15
ENDBRANCH   4   8
BRANCH   3  19
ATOM     19  C   UNL     1      -0.468  -0.402  -2.504  0.00  0.00    +0.261 C 
ATOM     20  O   UNL     1       0.455  -0.096  -3.236  0.00  0.00    -0.269 OA
ATOM     21  N   UNL     1      -1.736  -0.339  -2.956  0.00  0.00    -0.249 N 
ATOM     22  H   UNL     1      -2.471  -0.583  -2.373  0.00  0.00    +0.169 HD
BRANCH  21  23
ATOM     23  N   UNL     1      -1.986   0.067  -4.236  0.00  0.00    -0.254 NA
ATOM     24  H   UNL     1      -2.976   0.064  -4.430  0.00  0.00    +0.140 HD
ATOM     25  H   UNL     1      -1.586   0.978  -4.411  0.00  0.00    +0.140 HD
ENDBRANCH  21  23
ENDBRANCH   3  19
TORSDOF 5
