REMARK  Name = ZINC08845797
REMARK  5 active torsions:
REMARK  status: ('A' for Active; 'I' for Inactive)
REMARK    1  A    between atoms: C_1  and  C_2
REMARK    2  A    between atoms: C_2  and  N_3
REMARK    3  A    between atoms: C_4  and  C_21
REMARK    4  A    between atoms: C_7  and  C_14
REMARK    5  A    between atoms: C_19  and  O_20
REMARK                            x       y       z     vdW  Elec       q    Type
REMARK                         _______ _______ _______ _____ _____    ______ ____
ROOT
ATOM      1  N   UNL     1       0.431  -0.240  -1.159  0.00  0.00    -0.285 N 
ATOM      2  C   UNL     1       0.110  -0.469  -2.574  0.00  0.00    +0.141 C 
ATOM      3  C   UNL     1       1.397  -0.888  -3.230  0.00  0.00    +0.035 A 
ATOM      4  C   UNL     1       2.049  -1.279  -4.404  0.00  0.00    +0.102 A 
ATOM      5  N   UNL     1       3.315  -1.491  -4.101  0.00  0.00    -0.173 NA
ATOM      6  N   UNL     1       3.526  -1.273  -2.851  0.00  0.00    -0.272 N 
ATOM      7  H   UNL     1       4.383  -1.365  -2.407  0.00  0.00    +0.189 HD
ATOM      8  C   UNL     1       2.364  -0.890  -2.243  0.00  0.00    +0.126 A 
ATOM      9  C   UNL     1       1.742  -0.482  -0.979  0.00  0.00    +0.265 C 
ATOM     10  O   UNL     1       2.328  -0.379   0.082  0.00  0.00    -0.268 OA
ENDROOT
BRANCH   2  11
ATOM     11  C   UNL     1      -0.404   0.801  -3.201  0.00  0.00    -0.021 A 
ATOM     12  C   UNL     1       0.283   1.987  -3.023  0.00  0.00    +0.006 A 
ATOM     13  C   UNL     1      -0.188   3.152  -3.599  0.00  0.00    +0.002 A 
ATOM     14  C   UNL     1      -1.347   3.132  -4.352  0.00  0.00    +0.020 A 
ATOM     15  C   UNL     1      -2.034   1.945  -4.530  0.00  0.00    +0.041 A 
ATOM     16  C   UNL     1      -1.559   0.778  -3.959  0.00  0.00    +0.025 A 
ATOM     17 CL   UNL     1      -3.490   1.919  -5.477  0.00  0.00    -0.084 Cl
ENDBRANCH   2  11
BRANCH   4  18
ATOM     18  C   UNL     1       1.431  -1.429  -5.745  0.00  0.00    +0.044 A 
ATOM     19  C   UNL     1       0.222  -2.106  -5.885  0.00  0.00    +0.014 A 
ATOM     20  C   UNL     1      -0.350  -2.243  -7.134  0.00  0.00    +0.001 A 
ATOM     21  C   UNL     1       0.274  -1.709  -8.248  0.00  0.00    +0.004 A 
ATOM     22  C   UNL     1       1.473  -1.035  -8.119  0.00  0.00    +0.046 A 
ATOM     23  C   UNL     1       2.055  -0.886  -6.871  0.00  0.00    +0.126 A 
BRANCH  23  24
ATOM     24  O   UNL     1       3.232  -0.219  -6.742  0.00  0.00    -0.506 OA
ATOM     25  H   UNL     1       4.014  -0.782  -6.825  0.00  0.00    +0.292 HD
ENDBRANCH  23  24
ENDBRANCH   4  18
BRANCH   1  27
ATOM     26  C   UNL     1      -0.545   1.714  -0.059  0.00  0.00    +0.024 C 
ATOM     27  C   UNL     1      -0.513   0.186  -0.123  0.00  0.00    +0.106 C 
ENDBRANCH   1  27
TORSDOF 4
