REMARK  Name = ZINC02659530
REMARK  9 active torsions:
REMARK  status: ('A' for Active; 'I' for Inactive)
REMARK    1  A    between atoms: C_1  and  O_2
REMARK    2  A    between atoms: O_2  and  C_3
REMARK    3  A    between atoms: C_8  and  N_9
REMARK    4  A    between atoms: N_9  and  S_10
REMARK    5  A    between atoms: S_10  and  C_13
REMARK    6  A    between atoms: C_16  and  N_19
REMARK    7  A    between atoms: C_20  and  C_22
REMARK    8  A    between atoms: C_22  and  C_23
REMARK    9  A    between atoms: C_28  and  N_29
REMARK                            x       y       z     vdW  Elec       q    Type
REMARK                         _______ _______ _______ _____ _____    ______ ____
ROOT
ATOM      1  C   UNL     1      -0.201   3.452  -3.345  0.00  0.00    +0.109 A 
ATOM      2  C   UNL     1       0.297   4.668  -3.777  0.00  0.00    +0.030 A 
ATOM      3  C   UNL     1       0.083   5.080  -5.077  0.00  0.00    +0.025 A 
ATOM      4  C   UNL     1      -0.641   4.277  -5.949  0.00  0.00    +0.034 A 
ATOM      5  C   UNL     1      -1.143   3.059  -5.510  0.00  0.00    +0.025 A 
ATOM      6  C   UNL     1      -0.922   2.650  -4.210  0.00  0.00    +0.030 A 
ENDROOT
BRANCH   4   7
ATOM      7  N   UNL     1      -0.864   4.694  -7.266  0.00  0.00    -0.285 N 
ATOM      8  C   UNL     1      -2.031   4.407  -7.875  0.00  0.00    +0.222 C 
ATOM      9  O   UNL     1      -2.854   3.715  -7.314  0.00  0.00    -0.275 OA
ATOM     10  H   UNL     1      -0.178   5.190  -7.740  0.00  0.00    +0.155 HD
BRANCH   8  11
ATOM     11  C   UNL     1      -2.314   4.946  -9.254  0.00  0.00    +0.133 C 
BRANCH  11  12
ATOM     12  C   UNL     1      -3.675   4.482  -9.705  0.00  0.00    -0.008 A 
ATOM     13  C   UNL     1      -3.796   3.345 -10.482  0.00  0.00    +0.006 A 
ATOM     14  C   UNL     1      -5.045   2.917 -10.891  0.00  0.00    +0.000 A 
ATOM     15  C   UNL     1      -6.172   3.632 -10.533  0.00  0.00    +0.002 A 
ATOM     16  C   UNL     1      -6.051   4.772  -9.760  0.00  0.00    +0.033 A 
ATOM     17  C   UNL     1      -4.803   5.197  -9.346  0.00  0.00    +0.130 A 
BRANCH  17  18
ATOM     18  N   UNL     1      -4.673   6.418  -8.520  0.00  0.00    +0.057 N 
ATOM     19  O   UNL     1      -3.852   6.461  -7.620  0.00  0.00    -0.126 OA
ATOM     20  O   UNL     1      -5.386   7.381  -8.739  0.00  0.00    -0.126 OA
ENDBRANCH  17  18
ENDBRANCH  11  12
ENDBRANCH   8  11
ENDBRANCH   4   7
BRANCH   1  21
ATOM     21  S   UNL     1       0.079   2.927  -1.686  0.00  0.00    +0.072 S 
ATOM     22  O   UNL     1      -0.957   2.007  -1.371  0.00  0.00    -0.150 OA
ATOM     23  O   UNL     1       0.314   4.102  -0.922  0.00  0.00    -0.150 OA
BRANCH  21  24
ATOM     24  N   UNL     1       1.494   2.066  -1.677  0.00  0.00    -0.213 N 
ATOM     25  H   UNL     1       1.494   1.135  -1.404  0.00  0.00    +0.174 HD
BRANCH  24  31
ATOM     26  C   UNL     1       3.652   1.953  -2.766  0.00  0.00    +0.142 A 
ATOM     27  C   UNL     1       4.833   2.566  -3.151  0.00  0.00    +0.047 A 
ATOM     28  C   UNL     1       5.054   3.896  -2.845  0.00  0.00    +0.004 A 
ATOM     29  C   UNL     1       4.099   4.618  -2.154  0.00  0.00    +0.002 A 
ATOM     30  C   UNL     1       2.916   4.016  -1.770  0.00  0.00    +0.028 A 
ATOM     31  C   UNL     1       2.689   2.680  -2.069  0.00  0.00    +0.090 A 
BRANCH  26  33
ATOM     32  C   UNL     1       4.464  -0.037  -3.784  0.00  0.00    +0.277 C 
ATOM     33  O   UNL     1       3.433   0.645  -3.068  0.00  0.00    -0.493 OA
ENDBRANCH  26  33
ENDBRANCH  24  31
ENDBRANCH  21  24
ENDBRANCH   1  21
TORSDOF 8
