REMARK  Name = ZINC63209329
REMARK  8 active torsions:
REMARK  status: ('A' for Active; 'I' for Inactive)
REMARK    1  A    between atoms: C_7  and  C_10
REMARK    2  A    between atoms: C_10  and  C_11
REMARK    3  A    between atoms: N_13  and  N_14
REMARK    4  A    between atoms: C_15  and  C_17
REMARK    5  A    between atoms: C_17  and  O_18
REMARK    6  A    between atoms: O_18  and  C_19
REMARK    7  A    between atoms: C_22  and  C_25
REMARK    8  A    between atoms: C_28  and  C_31
REMARK                            x       y       z     vdW  Elec       q    Type
REMARK                         _______ _______ _______ _____ _____    ______ ____
ROOT
ATOM      1  N   UNL     1      -0.567  -5.122  -3.001  0.00  0.00    -0.232 N 
ATOM      2  C   UNL     1      -1.380  -6.168  -3.245  0.00  0.00    +0.267 C 
ATOM      3  O   UNL     1      -1.926  -6.740  -2.325  0.00  0.00    -0.271 OA
ATOM      4  H   UNL     1      -0.131  -4.665  -3.737  0.00  0.00    +0.173 HD
ENDROOT
BRANCH   1   7
ATOM      5  C   UNL     1       0.460  -3.646  -1.440  0.00  0.00    +0.233 C 
ATOM      6  O   UNL     1       1.006  -3.075  -2.360  0.00  0.00    -0.274 OA
ATOM      7  N   UNL     1      -0.353  -4.693  -1.684  0.00  0.00    -0.234 N 
ATOM      8  H   UNL     1      -0.790  -5.150  -0.948  0.00  0.00    +0.173 HD
BRANCH   5   9
ATOM      9  C   UNL     1       0.691  -3.186  -0.024  0.00  0.00    +0.130 C 
BRANCH   9  16
ATOM     10  C   UNL     1      -0.016   1.348   0.009  0.00  0.00    +0.001 A 
ATOM     11  C   UNL     1       1.166   2.101   0.002  0.00  0.00    +0.002 A 
ATOM     12  C   UNL     1       2.391   1.535  -0.013  0.00  0.00    +0.026 A 
ATOM     13  C   UNL     1       2.529   0.120  -0.022  0.00  0.00    +0.043 A 
ATOM     14  N   UNL     1       3.587  -0.654  -0.037  0.00  0.00    -0.380 N 
ATOM     15  C   UNL     1       3.143  -2.053  -0.041  0.00  0.00    +0.145 C 
ATOM     16  C   UNL     1       1.631  -2.008  -0.025  0.00  0.00    -0.033 C 
ATOM     17  C   UNL     1       1.295  -0.698  -0.014  0.00  0.00    -0.001 A 
ATOM     18  C   UNL     1       0.002  -0.004   0.002  0.00  0.00    +0.010 A 
ATOM     19  H   UNL     1       4.509  -0.353  -0.045  0.00  0.00    +0.160 HD
ENDBRANCH   9  16
ENDBRANCH   5   9
ENDBRANCH   1   7
BRANCH   2  20
ATOM     20  C   UNL     1      -1.611  -6.629  -4.661  0.00  0.00    +0.326 C 
BRANCH  20  21
ATOM     21  O   UNL     1      -2.503  -7.745  -4.660  0.00  0.00    -0.483 OA
BRANCH  21  22
ATOM     22  C   UNL     1      -2.817  -8.285  -5.866  0.00  0.00    +0.121 A 
ATOM     23  C   UNL     1      -2.272  -7.753  -7.027  0.00  0.00    +0.046 A 
ATOM     24  C   UNL     1      -2.588  -8.299  -8.252  0.00  0.00    +0.012 A 
ATOM     25  C   UNL     1      -3.457  -9.387  -8.326  0.00  0.00    -0.018 A 
ATOM     26  C   UNL     1      -4.004  -9.919  -7.158  0.00  0.00    +0.012 A 
ATOM     27  C   UNL     1      -3.679  -9.372  -5.935  0.00  0.00    +0.046 A 
BRANCH  25  28
ATOM     28  C   UNL     1      -3.800  -9.976  -9.642  0.00  0.00    -0.018 A 
ATOM     29  C   UNL     1      -3.248  -9.446 -10.808  0.00  0.00    +0.010 A 
ATOM     30  C   UNL     1      -3.566  -9.992 -12.031  0.00  0.00    +0.019 A 
ATOM     31  C   UNL     1      -4.442 -11.078 -12.104  0.00  0.00    +0.052 A 
ATOM     32  C   UNL     1      -4.994 -11.610 -10.935  0.00  0.00    +0.019 A 
ATOM     33  C   UNL     1      -4.670 -11.065  -9.713  0.00  0.00    +0.010 A 
BRANCH  31  34
ATOM     34  C   UNL     1      -4.774 -11.647 -13.376  0.00  0.00    +0.099 C 
ATOM     35  N   UNL     1      -5.037 -12.098 -14.384  0.00  0.00    -0.191 NA
ENDBRANCH  31  34
ENDBRANCH  25  28
ENDBRANCH  21  22
ENDBRANCH  20  21
ENDBRANCH   2  20
TORSDOF 8
