REMARK  Name = ZINC14021549
REMARK  12 active torsions:
REMARK  status: ('A' for Active; 'I' for Inactive)
REMARK    1  A    between atoms: C_1  and  C_2
REMARK    2  A    between atoms: C_2  and  O_3
REMARK    3  A    between atoms: O_3  and  C_4
REMARK    4  A    between atoms: C_4  and  C_6
REMARK    5  A    between atoms: C_7  and  C_34
REMARK    6  A    between atoms: C_8  and  S_31
REMARK    7  A    between atoms: C_9  and  N_11
REMARK    8  A    between atoms: C_12  and  C_14
REMARK    9  A    between atoms: N_19  and  S_21
REMARK   10  A    between atoms: S_21  and  C_24
REMARK   11  A    between atoms: C_27  and  C_30
REMARK   12  A    between atoms: S_31  and  C_32
REMARK                            x       y       z     vdW  Elec       q    Type
REMARK                         _______ _______ _______ _____ _____    ______ ____
ROOT
ATOM      1  N   UNL     1      -0.031  -0.211  -2.494  0.00  0.00    -0.279 N 
ATOM      2  C   UNL     1      -0.034  -1.064  -3.538  0.00  0.00    +0.222 C 
ATOM      3  O   UNL     1      -0.015  -2.261  -3.344  0.00  0.00    -0.275 OA
ATOM      4  H   UNL     1      -0.046   0.746  -2.649  0.00  0.00    +0.155 HD
ENDROOT
BRANCH   1   8
ATOM      5  C   UNL     1       0.041  -2.097   1.119  0.00  0.00    +0.102 A 
ATOM      6  C   UNL     1       0.023  -0.709   1.177  0.00  0.00    -0.013 A 
ATOM      7  C   UNL     1       0.002  -0.004   0.002  0.00  0.00    +0.055 A 
ATOM      8  C   UNL     1      -0.005  -0.705  -1.194  0.00  0.00    +0.087 A 
ATOM      9  S   UNL     1       0.029  -2.401  -0.640  0.00  0.00    -0.066 S 
ATOM     10  C   UNL     1       0.026   0.006   2.503  0.00  0.00    +0.046 C 
BRANCH   5  11
ATOM     11  C   UNL     1       0.063  -3.031   2.182  0.00  0.00    +0.346 C 
ATOM     12  O   UNL     1       0.068  -2.641   3.335  0.00  0.00    -0.244 OA
BRANCH  11  13
ATOM     13  O   UNL     1       0.079  -4.355   1.918  0.00  0.00    -0.461 OA
BRANCH  13  15
ATOM     14  C   UNL     1       0.116  -6.688   2.546  0.00  0.00    +0.048 C 
ATOM     15  C   UNL     1       0.101  -5.240   3.039  0.00  0.00    +0.229 C 
ENDBRANCH  13  15
ENDBRANCH  11  13
ENDBRANCH   5  11
BRANCH   7  16
ATOM     16  S   UNL     1      -0.022   1.758   0.012  0.00  0.00    -0.008 S 
BRANCH  16  17
ATOM     17  C   UNL     1       1.756   2.096  -0.004  0.00  0.00    +0.138 C 
ATOM     18  N   UNL     1       2.872   2.309  -0.013  0.00  0.00    -0.183 NA
ENDBRANCH  16  17
ENDBRANCH   7  16
ENDBRANCH   1   8
BRANCH   2  19
ATOM     19  C   UNL     1      -0.062  -0.529  -4.947  0.00  0.00    +0.091 C 
ATOM     20  C   UNL     1       1.172   0.343  -5.186  0.00  0.00    +0.015 C 
ATOM     21  C   UNL     1       1.129   0.913  -6.606  0.00  0.00    +0.018 C 
ATOM     22  C   UNL     1       1.148  -0.239  -7.615  0.00  0.00    +0.109 C 
ATOM     23  N   UNL     1       0.048  -1.161  -7.301  0.00  0.00    -0.176 NA
ATOM     24  C   UNL     1      -0.056  -1.698  -5.937  0.00  0.00    +0.122 C 
BRANCH  23  25
ATOM     25  S   UNL     1      -1.052  -1.589  -8.462  0.00  0.00    +0.061 S 
ATOM     26  O   UNL     1      -2.232  -1.985  -7.777  0.00  0.00    -0.153 OA
ATOM     27  O   UNL     1      -1.046  -0.548  -9.430  0.00  0.00    -0.153 OA
BRANCH  25  28
ATOM     28  C   UNL     1      -0.430  -3.028  -9.266  0.00  0.00    +0.105 A 
ATOM     29  C   UNL     1       0.380  -2.902 -10.379  0.00  0.00    +0.029 A 
ATOM     30  C   UNL     1       0.873  -4.031 -11.007  0.00  0.00    +0.005 A 
ATOM     31  C   UNL     1       0.547  -5.286 -10.528  0.00  0.00    -0.050 A 
ATOM     32  C   UNL     1      -0.267  -5.412  -9.418  0.00  0.00    +0.005 A 
ATOM     33  C   UNL     1      -0.755  -4.283  -8.787  0.00  0.00    +0.029 A 
ATOM     34  C   UNL     1       1.079  -6.516 -11.216  0.00  0.00    +0.044 C 
ENDBRANCH  25  28
ENDBRANCH  23  25
ENDBRANCH   2  19
TORSDOF 9
