REMARK  Name = ZINC59219714
REMARK  13 active torsions:
REMARK  status: ('A' for Active; 'I' for Inactive)
REMARK    1  A    between atoms: C_1  and  C_2
REMARK    2  A    between atoms: C_2  and  O_3
REMARK    3  A    between atoms: O_3  and  C_4
REMARK    4  A    between atoms: C_8  and  C_10
REMARK    5  A    between atoms: C_12  and  C_33
REMARK    6  A    between atoms: C_13  and  C_32
REMARK    7  A    between atoms: C_17  and  C_21
REMARK    8  A    between atoms: C_21  and  S_22
REMARK    9  A    between atoms: S_22  and  C_25
REMARK   10  A    between atoms: C_28  and  C_31
REMARK   11  A    between atoms: C_33  and  O_35
REMARK   12  A    between atoms: O_35  and  C_36
REMARK   13  A    between atoms: C_36  and  C_37
REMARK                            x       y       z     vdW  Elec       q    Type
REMARK                         _______ _______ _______ _____ _____    ______ ____
ROOT
ATOM      1  C   UNL     1       1.741  -4.070  -3.424  0.00  0.00    +0.145 C 
ATOM      2  C   UNL     1       3.234  -4.032  -3.236  0.00  0.00    +0.082 C 
ATOM      3  C   UNL     1       3.993  -5.157  -3.210  0.00  0.00    +0.053 C 
ATOM      4  N   UNL     1       3.473  -6.366  -3.454  0.00  0.00    -0.230 NA
ATOM      5  C   UNL     1       2.233  -6.439  -3.885  0.00  0.00    +0.158 C 
ATOM      6  N   UNL     1       1.372  -5.370  -4.041  0.00  0.00    -0.293 N 
ATOM      7  C   UNL     1       0.137  -5.584  -4.783  0.00  0.00    +0.108 C 
ATOM      8  C   UNL     1       0.002  -7.012  -5.358  0.00  0.00    +0.101 C 
ATOM      9  S   UNL     1       1.309  -7.876  -4.365  0.00  0.00    -0.088 S 
ATOM     10  C   UNL     1       5.463  -5.042  -2.899  0.00  0.00    +0.066 C 
ENDROOT
BRANCH   1  15
ATOM     11  C   UNL     1      -0.211  -2.627  -0.528  0.00  0.00    +0.121 A 
ATOM     12  C   UNL     1      -0.193  -3.684   0.369  0.00  0.00    +0.045 A 
ATOM     13  C   UNL     1       0.450  -4.861   0.036  0.00  0.00    +0.004 A 
ATOM     14  C   UNL     1       1.075  -4.984  -1.192  0.00  0.00    +0.006 A 
ATOM     15  C   UNL     1       1.058  -3.932  -2.087  0.00  0.00    -0.019 A 
ATOM     16  C   UNL     1       0.412  -2.755  -1.761  0.00  0.00    +0.051 A 
BRANCH  11  17
ATOM     17  O   UNL     1      -0.843  -1.468  -0.203  0.00  0.00    -0.492 OA
BRANCH  17  19
ATOM     18  C   UNL     1      -2.119  -0.037   1.269  0.00  0.00    +0.048 C 
ATOM     19  C   UNL     1      -1.463  -1.407   1.084  0.00  0.00    +0.225 C 
ENDBRANCH  17  19
ENDBRANCH  11  17
ENDBRANCH   1  15
BRANCH   2  20
ATOM     20  C   UNL     1       3.865  -2.787  -3.081  0.00  0.00    +0.339 C 
ATOM     21  O   UNL     1       4.066  -2.081  -4.054  0.00  0.00    -0.245 OA
BRANCH  20  22
ATOM     22  O   UNL     1       4.250  -2.372  -1.855  0.00  0.00    -0.462 OA
BRANCH  22  23
ATOM     23  C   UNL     1       4.886  -1.095  -1.772  0.00  0.00    +0.229 C 
ATOM     24  C   UNL     1       5.247  -0.799  -0.314  0.00  0.00    +0.048 C 
ENDBRANCH  22  23
ENDBRANCH  20  22
ENDBRANCH   2  20
BRANCH   7  25
ATOM     25  C   UNL     1      -1.047  -5.321  -3.851  0.00  0.00    +0.195 C 
BRANCH  25  26
ATOM     26  S   UNL     1      -2.596  -5.478  -4.781  0.00  0.00    -0.001 S 
ATOM     27  O   UNL     1      -2.640  -4.514  -5.824  0.00  0.00    -0.169 OA
ATOM     28  O   UNL     1      -2.871  -6.846  -5.047  0.00  0.00    -0.169 OA
BRANCH  26  29
ATOM     29  C   UNL     1      -3.854  -4.978  -3.654  0.00  0.00    +0.088 A 
ATOM     30  C   UNL     1      -4.385  -5.890  -2.761  0.00  0.00    +0.027 A 
ATOM     31  C   UNL     1      -5.372  -5.498  -1.876  0.00  0.00    +0.005 A 
ATOM     32  C   UNL     1      -5.828  -4.193  -1.884  0.00  0.00    -0.050 A 
ATOM     33  C   UNL     1      -5.297  -3.280  -2.776  0.00  0.00    +0.005 A 
ATOM     34  C   UNL     1      -4.307  -3.671  -3.658  0.00  0.00    +0.027 A 
ATOM     35  C   UNL     1      -6.905  -3.766  -0.920  0.00  0.00    +0.044 C 
ENDBRANCH  26  29
ENDBRANCH  25  26
ENDBRANCH   7  25
TORSDOF 9
