REMARK  Name = ZINC22852107
REMARK  5 active torsions:
REMARK  status: ('A' for Active; 'I' for Inactive)
REMARK    1  A    between atoms: C_1  and  C_2
REMARK    2  A    between atoms: N_5  and  C_8
REMARK    3  A    between atoms: C_8  and  C_10
REMARK    4  A    between atoms: C_8  and  C_17
REMARK    5  A    between atoms: C_23  and  C_25
REMARK                            x       y       z     vdW  Elec       q    Type
REMARK                         _______ _______ _______ _____ _____    ______ ____
ROOT
ATOM      1  C   UNL     1      -2.519   1.253   0.021  0.00  0.00    +0.008 C 
ENDROOT
BRANCH   1   2
ATOM      2  C   UNL     1      -2.881   0.882   1.437  0.00  0.00    +0.050 A 
ATOM      3  C   UNL     1      -2.795  -0.306   2.046  0.00  0.00    +0.282 A 
ATOM      4  N   UNL     1      -3.176  -0.450   3.358  0.00  0.00    -0.169 N 
ATOM      5  C   UNL     1      -3.640   0.666   3.999  0.00  0.00    +0.200 A 
ATOM      6  S   UNL     1      -3.528   1.917   2.741  0.00  0.00    -0.050 S 
ATOM      7  N   UNL     1      -3.958   0.368   5.227  0.00  0.00    -0.197 NA
ATOM      8  C   UNL     1      -3.721  -0.933   5.443  0.00  0.00    +0.218 A 
ATOM      9  N   UNL     1      -3.247  -1.472   4.340  0.00  0.00    -0.138 NA
ATOM     10  O   UNL     1      -2.326  -1.382   1.359  0.00  0.00    -0.265 OA
BRANCH   8  11
ATOM     11  C   UNL     1      -3.956  -1.648   6.715  0.00  0.00    +0.173 A 
ATOM     12  C   UNL     1      -4.446  -1.101   7.859  0.00  0.00    +0.053 A 
ATOM     13  C   UNL     1      -4.504  -2.138   8.812  0.00  0.00    +0.042 A 
ATOM     14  C   UNL     1      -4.051  -3.255   8.209  0.00  0.00    +0.196 A 
ATOM     15  O   UNL     1      -3.726  -2.956   6.940  0.00  0.00    -0.460 OA
ENDBRANCH   8  11
ENDBRANCH   1   2
BRANCH   1  20
ATOM     16  C   UNL     1      -6.664   3.854  -2.933  0.00  0.00    +0.007 C 
ATOM     17  C   UNL     1      -5.575   2.874  -2.492  0.00  0.00    -0.018 C 
ATOM     18  C   UNL     1      -5.956   2.259  -1.142  0.00  0.00    -0.015 C 
ATOM     19  C   UNL     1      -4.836   1.326  -0.678  0.00  0.00    -0.077 C 
ATOM     20  N   UNL     1      -3.585   2.084  -0.554  0.00  0.00    +0.388 N 
ATOM     21  C   UNL     1      -3.174   2.645  -1.848  0.00  0.00    -0.077 C 
ATOM     22  C   UNL     1      -4.245   3.617  -2.348  0.00  0.00    -0.015 C 
ATOM     23  H   UNL     1      -3.768   2.924   0.132  0.00  0.00    -0.080 HD
ENDBRANCH   1  20
BRANCH   1  24
ATOM     24  C   UNL     1      -1.224   2.023   0.019  0.00  0.00    -0.021 A 
ATOM     25  C   UNL     1      -1.242   3.405   0.031  0.00  0.00    +0.005 A 
ATOM     26  C   UNL     1      -0.054   4.112   0.024  0.00  0.00    +0.000 A 
ATOM     27  C   UNL     1       1.153   3.438   0.009  0.00  0.00    +0.003 A 
ATOM     28  C   UNL     1       1.173   2.056   0.002  0.00  0.00    +0.038 A 
ATOM     29  C   UNL     1      -0.016   1.347   0.009  0.00  0.00    +0.125 A 
ATOM     30  F   UNL     1       0.002  -0.004   0.002  0.00  0.00    -0.205 F 
ENDBRANCH   1  24
TORSDOF 4
