REMARK  Name = ZINC06492554
REMARK  9 active torsions:
REMARK  status: ('A' for Active; 'I' for Inactive)
REMARK    1  A    between atoms: C_1  and  C_2
REMARK    2  A    between atoms: C_2  and  C_3
REMARK    3  A    between atoms: C_2  and  C_4
REMARK    4  A    between atoms: C_11  and  N_31
REMARK    5  A    between atoms: C_12  and  C_29
REMARK    6  A    between atoms: C_13  and  C_15
REMARK    7  A    between atoms: C_18  and  O_21
REMARK    8  A    between atoms: O_21  and  C_22
REMARK    9  A    between atoms: C_22  and  C_24
REMARK                            x       y       z     vdW  Elec       q    Type
REMARK                         _______ _______ _______ _____ _____    ______ ____
ROOT
ATOM      1  C   UNL     1      -1.687  -0.527  -0.023  0.00  0.00    +0.073 A 
ATOM      2  C   UNL     1      -2.160  -1.366  -1.023  0.00  0.00    +0.050 A 
ATOM      3  C   UNL     1      -3.459  -1.678  -0.735  0.00  0.00    +0.222 A 
ATOM      4  N   UNL     1      -3.783  -1.052   0.408  0.00  0.00    -0.246 N 
ATOM      5  H   UNL     1      -4.643  -1.089   0.855  0.00  0.00    +0.192 HD
ATOM      6  N   UNL     1      -2.655  -0.339   0.842  0.00  0.00    -0.175 NA
ATOM      7  O   UNL     1      -4.210  -2.488  -1.522  0.00  0.00    -0.423 OA
ATOM      8  C   UNL     1      -3.570  -3.211  -2.465  0.00  0.00    +0.200 C 
ATOM      9  C   UNL     1      -2.292  -2.989  -2.844  0.00  0.00    +0.098 C 
ATOM     10  C   UNL     1      -1.449  -1.891  -2.244  0.00  0.00    +0.101 C 
ENDROOT
BRANCH  10  11
ATOM     11  C   UNL     1      -1.271  -0.780  -3.246  0.00  0.00    -0.034 A 
ATOM     12  C   UNL     1      -2.377  -0.128  -3.757  0.00  0.00    +0.008 A 
ATOM     13  C   UNL     1      -2.217   0.890  -4.677  0.00  0.00    +0.047 A 
ATOM     14  C   UNL     1      -0.944   1.259  -5.087  0.00  0.00    +0.132 A 
ATOM     15  C   UNL     1       0.165   0.603  -4.572  0.00  0.00    +0.047 A 
ATOM     16  C   UNL     1      -0.000  -0.411  -3.649  0.00  0.00    +0.008 A 
BRANCH  14  17
ATOM     17  O   UNL     1      -0.783   2.260  -5.992  0.00  0.00    -0.420 OA
BRANCH  17  18
ATOM     18  C   UNL     1      -1.073   3.518  -5.602  0.00  0.00    +0.380 C 
ATOM     19  O   UNL     1      -1.364   3.744  -4.442  0.00  0.00    -0.241 OA
BRANCH  18  20
ATOM     20  C   UNL     1      -1.037   4.613  -6.574  0.00  0.00    +0.212 A 
ATOM     21  C   UNL     1      -1.302   5.928  -6.313  0.00  0.00    +0.056 A 
ATOM     22  C   UNL     1      -1.150   6.618  -7.526  0.00  0.00    +0.042 A 
ATOM     23  C   UNL     1      -0.804   5.707  -8.462  0.00  0.00    +0.196 A 
ATOM     24  O   UNL     1      -0.731   4.501  -7.884  0.00  0.00    -0.456 OA
ENDBRANCH  18  20
ENDBRANCH  17  18
ENDBRANCH  14  17
ENDBRANCH  10  11
BRANCH   1  26
ATOM     25  C   UNL     1      -0.393   1.587   0.053  0.00  0.00    +0.014 C 
ATOM     26  C   UNL     1      -0.301   0.060   0.058  0.00  0.00    +0.034 C 
ATOM     27  C   UNL     1       0.376  -0.407   1.348  0.00  0.00    +0.014 C 
ENDBRANCH   1  26
BRANCH   8  28
ATOM     28  N   UNL     1      -4.257  -4.231  -3.074  0.00  0.00    -0.328 N 
ATOM     29  H   UNL     1      -5.176  -4.415  -2.823  0.00  0.00    +0.145 HD
ATOM     30  H   UNL     1      -3.824  -4.768  -3.755  0.00  0.00    +0.145 HD
ENDBRANCH   8  28
BRANCH   9  31
ATOM     31  C   UNL     1      -1.717  -3.826  -3.853  0.00  0.00    +0.101 C 
ATOM     32  N   UNL     1      -1.261  -4.490  -4.654  0.00  0.00    -0.191 NA
ENDBRANCH   9  31
TORSDOF 7
