REMARK  Name = ZINC32542247
REMARK  12 active torsions:
REMARK  status: ('A' for Active; 'I' for Inactive)
REMARK    1  A    between atoms: C_1  and  C_2
REMARK    2  A    between atoms: C_2  and  C_4
REMARK    3  A    between atoms: C_2  and  N_14
REMARK    4  A    between atoms: C_7  and  S_10
REMARK    5  A    between atoms: S_10  and  N_13
REMARK    6  A    between atoms: N_14  and  C_15
REMARK    7  A    between atoms: N_14  and  C_16
REMARK    8  A    between atoms: C_16  and  C_17
REMARK    9  A    between atoms: N_19  and  C_20
REMARK   10  A    between atoms: C_21  and  C_30
REMARK   11  A    between atoms: C_30  and  O_32
REMARK   12  A    between atoms: O_32  and  C_33
REMARK                            x       y       z     vdW  Elec       q    Type
REMARK                         _______ _______ _______ _____ _____    ______ ____
ROOT
ATOM      1  C   UNL     1      -2.974   4.224   7.029  0.00  0.00    +0.019 C 
ENDROOT
BRANCH   1   2
ATOM      2  C   UNL     1      -2.117   5.172   7.827  0.00  0.00    +0.201 C 
ATOM      3  O   UNL     1      -1.010   5.469   7.430  0.00  0.00    -0.278 OA
ATOM      4  N   UNL     1      -2.580   5.691   8.982  0.00  0.00    -0.281 N 
ATOM      5  H   UNL     1      -3.584   5.421   9.342  0.00  0.00    +0.155 HD
BRANCH   4   6
ATOM      6  C   UNL     1      -1.792   6.563   9.715  0.00  0.00    +0.086 A 
ATOM      7  C   UNL     1      -2.091   7.198  10.912  0.00  0.00    +0.091 A 
ATOM      8  C   UNL     1      -1.077   8.071  11.488  0.00  0.00    -0.021 A 
ATOM      9  C   UNL     1       0.059   8.177  10.766  0.00  0.00    -0.004 A 
ATOM     10  S   UNL     1      -0.196   7.132   9.357  0.00  0.00    -0.077 S 
ATOM     11  C   UNL     1       1.266   9.007  11.075  0.00  0.00    +0.043 C 
ATOM     12  C   UNL     1       1.684   8.770  12.532  0.00  0.00    +0.005 C 
ATOM     13  C   UNL     1       0.949   9.773  13.415  0.00  0.00    +0.001 C 
ATOM     14  C   UNL     1      -0.432  10.072  12.834  0.00  0.00    +0.005 C 
ATOM     15  C   UNL     1      -1.283   8.807  12.806  0.00  0.00    +0.037 C 
BRANCH   7  16
ATOM     16  C   UNL     1      -3.381   6.995  11.575  0.00  0.00    +0.342 C 
ATOM     17  O   UNL     1      -3.515   6.096  12.383  0.00  0.00    -0.245 OA
BRANCH  16  18
ATOM     18  O   UNL     1      -4.421   7.805  11.288  0.00  0.00    -0.464 OA
ATOM     19  C   UNL     1      -5.669   7.545  11.983  0.00  0.00    +0.280 C 
ENDBRANCH  16  18
ENDBRANCH   7  16
ENDBRANCH   4   6
ENDBRANCH   1   2
BRANCH   1  20
ATOM     20  N   UNL     1      -2.248   3.804   5.823  0.00  0.00    +0.388 N 
ATOM     21  C   UNL     1      -1.069   3.000   6.172  0.00  0.00    -0.095 C 
ATOM     22  H   UNL     1      -1.899   4.710   5.306  0.00  0.00    -0.081 HD
BRANCH  20  24
ATOM     23  C   UNL     1      -4.295   3.975   4.489  0.00  0.00    -0.008 C 
ATOM     24  C   UNL     1      -3.132   3.072   4.905  0.00  0.00    -0.041 C 
BRANCH  24  25
ATOM     25  C   UNL     1      -2.354   2.659   3.683  0.00  0.00    -0.061 A 
ATOM     26  C   UNL     1      -2.559   1.412   3.122  0.00  0.00    +0.004 A 
ATOM     27  C   UNL     1      -1.846   1.033   2.000  0.00  0.00    +0.029 A 
ATOM     28  C   UNL     1      -0.927   1.900   1.439  0.00  0.00    +0.105 A 
ATOM     29  C   UNL     1      -0.717   3.145   2.004  0.00  0.00    +0.029 A 
ATOM     30  C   UNL     1      -1.434   3.526   3.123  0.00  0.00    +0.004 A 
BRANCH  28  31
ATOM     31  S   UNL     1      -0.017   1.417   0.010  0.00  0.00    +0.056 S 
ATOM     32  O   UNL     1       0.002  -0.004   0.002  0.00  0.00    -0.153 OA
ATOM     33  O   UNL     1       1.172   2.195   0.003  0.00  0.00    -0.153 OA
BRANCH  31  34
ATOM     34  N   UNL     1      -0.897   1.885  -1.312  0.00  0.00    -0.204 NA
ATOM     35  H   UNL     1      -0.361   1.601  -2.229  0.00  0.00    +0.144 HD
ATOM     36  H   UNL     1      -1.036   2.977  -1.292  0.00  0.00    +0.144 HD
ENDBRANCH  31  34
ENDBRANCH  28  31
ENDBRANCH  24  25
ENDBRANCH  20  24
ENDBRANCH   1  20
TORSDOF 9
