REMARK  Name = ZINC14471930
REMARK  6 active torsions:
REMARK  status: ('A' for Active; 'I' for Inactive)
REMARK    1  A    between atoms: C_1  and  C_2
REMARK    2  A    between atoms: C_2  and  C_4
REMARK    3  A    between atoms: C_2  and  N_10
REMARK    4  A    between atoms: C_11  and  C_13
REMARK    5  A    between atoms: C_20  and  C_29
REMARK    6  A    between atoms: C_33  and  N_35
REMARK                            x       y       z     vdW  Elec       q    Type
REMARK                         _______ _______ _______ _____ _____    ______ ____
ROOT
ATOM      1  C   UNL     1       1.153  -0.054   0.145  0.00  0.00    +0.058 A 
ATOM      2  C   UNL     1       0.076   0.825   0.234  0.00  0.00    +0.015 A 
ATOM      3  C   UNL     1       0.295   2.184   0.283  0.00  0.00    +0.001 A 
ATOM      4  C   UNL     1       1.590   2.675   0.239  0.00  0.00    +0.006 A 
ATOM      5  C   UNL     1       2.667   1.821   0.144  0.00  0.00    -0.019 A 
ATOM      6  C   UNL     1       2.475   0.437   0.101  0.00  0.00    +0.044 A 
ATOM      7  N   UNL     1       3.501  -0.490   0.033  0.00  0.00    -0.336 N 
ATOM      8  C   UNL     1       4.869   0.039  -0.090  0.00  0.00    +0.105 C 
ATOM      9  C   UNL     1       4.951   1.268   0.791  0.00  0.00    +0.029 C 
ATOM     10  C   UNL     1       4.056   2.326   0.073  0.00  0.00    +0.049 C 
ATOM     11  C   UNL     1       4.476   3.602   0.703  0.00  0.00    -0.023 C 
ATOM     12  C   UNL     1       5.740   3.484   1.095  0.00  0.00    -0.030 C 
ATOM     13  C   UNL     1       6.253   2.076   0.782  0.00  0.00    +0.033 C 
ATOM     14  H   UNL     1       3.316  -1.182  -0.677  0.00  0.00    +0.147 HD
ENDROOT
BRANCH   8  15
ATOM     15  C   UNL     1       5.147   0.414  -1.523  0.00  0.00    -0.025 A 
ATOM     16  C   UNL     1       4.101   0.723  -2.373  0.00  0.00    +0.005 A 
ATOM     17  C   UNL     1       4.358   1.072  -3.685  0.00  0.00    +0.003 A 
ATOM     18  C   UNL     1       5.659   1.102  -4.151  0.00  0.00    +0.033 A 
ATOM     19  C   UNL     1       6.704   0.788  -3.303  0.00  0.00    +0.127 A 
ATOM     20  C   UNL     1       6.448   0.444  -1.989  0.00  0.00    +0.038 A 
BRANCH  19  21
ATOM     21  N   UNL     1       8.097   0.820  -3.802  0.00  0.00    +0.056 N 
ATOM     22  O   UNL     1       9.018   0.543  -3.055  0.00  0.00    -0.126 OA
ATOM     23  O   UNL     1       8.323   1.123  -4.960  0.00  0.00    -0.126 OA
ENDBRANCH  19  21
ENDBRANCH   8  15
BRANCH   1  25
ATOM     24  N   UNL     1      -0.350  -1.982   0.141  0.00  0.00    -0.305 N 
ATOM     25  C   UNL     1       0.911  -1.507   0.099  0.00  0.00    +0.246 C 
ATOM     26  O   UNL     1       1.848  -2.278   0.021  0.00  0.00    -0.270 OA
ATOM     27  H   UNL     1      -1.098  -1.367   0.203  0.00  0.00    +0.150 HD
BRANCH  24  29
ATOM     28  C   UNL     1      -0.481  -4.007   1.506  0.00  0.00    +0.033 C 
ATOM     29  C   UNL     1      -0.592  -3.426   0.095  0.00  0.00    +0.100 C 
BRANCH  29  30
ATOM     30  C   UNL     1      -1.972  -3.687  -0.450  0.00  0.00    -0.027 A 
ATOM     31  C   UNL     1      -3.030  -2.883  -0.068  0.00  0.00    +0.005 A 
ATOM     32  C   UNL     1      -4.295  -3.120  -0.571  0.00  0.00    +0.000 A 
ATOM     33  C   UNL     1      -4.505  -4.167  -1.449  0.00  0.00    +0.000 A 
ATOM     34  C   UNL     1      -3.449  -4.974  -1.827  0.00  0.00    +0.000 A 
ATOM     35  C   UNL     1      -2.182  -4.734  -1.327  0.00  0.00    +0.005 A 
ENDBRANCH  29  30
ENDBRANCH  24  29
ENDBRANCH   1  25
TORSDOF 5
