REMARK  Name = ZINC00893291
REMARK  7 active torsions:
REMARK  status: ('A' for Active; 'I' for Inactive)
REMARK    1  A    between atoms: C_1  and  C_2
REMARK    2  A    between atoms: C_2  and  C_3
REMARK    3  A    between atoms: C_10  and  C_15
REMARK    4  A    between atoms: C_15  and  C_17
REMARK    5  A    between atoms: C_15  and  N_63
REMARK    6  A    between atoms: N_21  and  C_22
REMARK    7  A    between atoms: C_29  and  C_32
REMARK                            x       y       z     vdW  Elec       q    Type
REMARK                         _______ _______ _______ _____ _____    ______ ____
ROOT
ATOM      1  C   UNL     1      -1.332   7.432   0.057  0.00  0.00    +0.039 C 
ENDROOT
BRANCH   1   9
ATOM      2  C   UNL     1       1.627   2.010   0.420  0.00  0.00    -0.047 A 
ATOM      3  C   UNL     1       0.490   1.213   0.439  0.00  0.00    +0.005 A 
ATOM      4  C   UNL     1      -0.765   1.777   0.375  0.00  0.00    +0.026 A 
ATOM      5  C   UNL     1      -0.897   3.160   0.301  0.00  0.00    +0.049 A 
ATOM      6  C   UNL     1       0.258   3.965   0.282  0.00  0.00    -0.001 A 
ATOM      7  C   UNL     1       1.522   3.369   0.343  0.00  0.00    +0.013 A 
ATOM      8  C   UNL     1       0.108   5.419   0.199  0.00  0.00    +0.017 A 
ATOM      9  C   UNL     1      -1.143   5.939   0.143  0.00  0.00    +0.011 A 
ATOM     10  C   UNL     1      -2.268   5.088   0.165  0.00  0.00    +0.251 A 
ATOM     11  O   UNL     1      -3.384   5.577   0.114  0.00  0.00    -0.268 OA
ATOM     12  N   UNL     1      -2.141   3.752   0.242  0.00  0.00    -0.322 N 
ATOM     13  H   UNL     1      -2.961   3.179   0.256  0.00  0.00    +0.169 HD
BRANCH   2  15
ATOM     14  C   UNL     1       3.482   1.072  -0.932  0.00  0.00    +0.009 C 
ATOM     15  C   UNL     1       2.990   1.369   0.485  0.00  0.00    +0.032 C 
ENDBRANCH   2  15
ENDBRANCH   1   9
BRANCH   1  22
ATOM     16  C   UNL     1      -2.497   9.315   1.034  0.00  0.00    -0.077 C 
ATOM     17  C   UNL     1      -3.549   9.713   2.072  0.00  0.00    -0.015 C 
ATOM     18  C   UNL     1      -3.036   9.361   3.471  0.00  0.00    -0.018 C 
ATOM     19  C   UNL     1      -2.723   7.863   3.530  0.00  0.00    -0.015 C 
ATOM     20  C   UNL     1      -1.695   7.519   2.449  0.00  0.00    -0.077 C 
ATOM     21  C   UNL     1      -4.108   9.700   4.509  0.00  0.00    +0.007 C 
ATOM     22  N   UNL     1      -2.259   7.859   1.125  0.00  0.00    +0.389 N 
ATOM     23  H   UNL     1      -3.152   7.367   1.008  0.00  0.00    -0.080 HD
ENDBRANCH   1  22
BRANCH   1  24
ATOM     24  C   UNL     1      -1.930   7.786  -1.280  0.00  0.00    +0.143 A 
ATOM     25  N   UNL     1      -3.173   7.606  -1.653  0.00  0.00    -0.115 NA
ATOM     26  N   UNL     1      -3.292   8.037  -2.861  0.00  0.00    -0.023 NA
ATOM     27  N   UNL     1      -2.155   8.481  -3.271  0.00  0.00    -0.044 NA
ATOM     28  N   UNL     1      -1.290   8.343  -2.325  0.00  0.00    -0.227 N 
BRANCH  28  29
ATOM     29  C   UNL     1       0.125   8.721  -2.377  0.00  0.00    +0.111 C 
ATOM     30  C   UNL     1       0.258  10.225  -2.696  0.00  0.00    +0.027 C 
ATOM     31  C   UNL     1       1.502  10.308  -3.617  0.00  0.00    +0.002 C 
ATOM     32  C   UNL     1       1.369   9.035  -4.489  0.00  0.00    +0.002 C 
ATOM     33  C   UNL     1       0.831   7.965  -3.516  0.00  0.00    +0.027 C 
ENDBRANCH  28  29
ENDBRANCH   1  24
TORSDOF 5
