REMARK  Name = ZINC41584547
REMARK  15 active torsions:
REMARK  status: ('A' for Active; 'I' for Inactive)
REMARK    1  A    between atoms: C_1  and  C_2
REMARK    2  A    between atoms: C_2  and  C_3
REMARK    3  A    between atoms: C_3  and  N_4
REMARK    4  A    between atoms: N_4  and  C_5
REMARK    5  A    between atoms: N_4  and  C_8
REMARK    6  A    between atoms: C_5  and  C_6
REMARK    7  A    between atoms: C_6  and  C_7
REMARK    8  A    between atoms: C_8  and  C_9
REMARK    9  A    between atoms: C_10  and  O_35
REMARK   10  A    between atoms: C_16  and  C_31
REMARK   11  A    between atoms: C_17  and  O_20
REMARK   12  A    between atoms: O_20  and  C_21
REMARK   13  A    between atoms: C_24  and  C_27
REMARK   14  A    between atoms: C_27  and  O_29
REMARK   15  A    between atoms: O_29  and  C_30
REMARK                            x       y       z     vdW  Elec       q    Type
REMARK                         _______ _______ _______ _____ _____    ______ ____
ROOT
ATOM      1  C   UNL     1      -3.338  -1.902  -1.866  0.00  0.00    +0.020 A 
ATOM      2  C   UNL     1      -4.045  -0.717  -1.984  0.00  0.00    +0.122 A 
ATOM      3  C   UNL     1      -4.429  -0.241  -3.236  0.00  0.00    +0.046 A 
ATOM      4  C   UNL     1      -4.112  -0.939  -4.367  0.00  0.00    +0.019 A 
ATOM      5  C   UNL     1      -3.400  -2.135  -4.265  0.00  0.00    +0.068 A 
ATOM      6  C   UNL     1      -3.003  -2.619  -3.006  0.00  0.00    +0.144 A 
ATOM      7  O   UNL     1      -2.311  -3.773  -2.920  0.00  0.00    -0.447 OA
ATOM      8  C   UNL     1      -1.973  -4.489  -4.000  0.00  0.00    +0.254 A 
ATOM      9  C   UNL     1      -2.296  -4.115  -5.254  0.00  0.00    +0.222 A 
ATOM     10  C   UNL     1      -3.039  -2.917  -5.460  0.00  0.00    +0.235 A 
ATOM     11  O   UNL     1      -3.349  -2.547  -6.580  0.00  0.00    -0.283 OA
ENDROOT
BRANCH   8  12
ATOM     12  C   UNL     1      -1.198  -5.767  -3.805  0.00  0.00    +0.454 C 
ATOM     13  F   UNL     1      -0.839  -6.289  -5.052  0.00  0.00    -0.163 F 
ATOM     14  F   UNL     1      -0.044  -5.504  -3.059  0.00  0.00    -0.163 F 
ATOM     15  F   UNL     1      -1.993  -6.695  -3.123  0.00  0.00    -0.163 F 
ENDBRANCH   8  12
BRANCH   2  16
ATOM     16  O   UNL     1      -4.368  -0.012  -0.869  0.00  0.00    -0.506 OA
ATOM     17  H   UNL     1      -3.702   0.639  -0.609  0.00  0.00    +0.292 HD
ENDBRANCH   2  16
BRANCH   1  18
ATOM     18  C   UNL     1      -2.929  -2.407  -0.507  0.00  0.00    -0.036 C 
BRANCH  18  19
ATOM     19  N   UNL     1      -1.609  -1.865  -0.160  0.00  0.00    +0.383 N 
ATOM     20  H   UNL     1      -0.950  -2.093  -0.889  0.00  0.00    -0.081 HD
BRANCH  19  21
ATOM     21  C   UNL     1      -1.699  -0.405  -0.021  0.00  0.00    -0.079 C 
BRANCH  21  23
ATOM     22  C   UNL     1      -0.378   1.697   0.257  0.00  0.00    +0.002 C 
ATOM     23  C   UNL     1      -0.306   0.169   0.245  0.00  0.00    -0.022 C 
ENDBRANCH  21  23
ENDBRANCH  19  21
BRANCH  19  24
ATOM     24  C   UNL     1      -1.157  -2.450   1.109  0.00  0.00    -0.079 C 
BRANCH  24  25
ATOM     25  C   UNL     1      -0.933  -3.953   0.927  0.00  0.00    -0.022 C 
ATOM     26  C   UNL     1      -0.337  -4.539   2.208  0.00  0.00    +0.002 C 
ENDBRANCH  24  25
ENDBRANCH  19  24
ENDBRANCH  18  19
ENDBRANCH   1  18
BRANCH   9  27
ATOM     27  O   UNL     1      -1.924  -4.882  -6.315  0.00  0.00    -0.448 OA
BRANCH  27  28
ATOM     28  C   UNL     1      -1.015  -4.371  -7.183  0.00  0.00    +0.129 A 
ATOM     29  C   UNL     1      -0.401  -3.155  -6.907  0.00  0.00    +0.047 A 
ATOM     30  C   UNL     1       0.522  -2.633  -7.785  0.00  0.00    +0.018 A 
ATOM     31  C   UNL     1       0.842  -3.328  -8.956  0.00  0.00    +0.059 A 
ATOM     32  C   UNL     1       0.222  -4.551  -9.229  0.00  0.00    +0.018 A 
ATOM     33  C   UNL     1      -0.696  -5.069  -8.343  0.00  0.00    +0.047 A 
BRANCH  31  34
ATOM     34  C   UNL     1       1.830  -2.773  -9.899  0.00  0.00    +0.339 C 
ATOM     35  O   UNL     1       2.367  -1.710  -9.660  0.00  0.00    -0.245 OA
BRANCH  34  36
ATOM     36  O   UNL     1       2.136  -3.445 -11.026  0.00  0.00    -0.464 OA
ATOM     37  C   UNL     1       3.102  -2.848 -11.895  0.00  0.00    +0.280 C 
ENDBRANCH  34  36
ENDBRANCH  31  34
ENDBRANCH  27  28
ENDBRANCH   9  27
TORSDOF 12
