REMARK  Name = ZINC12760142
REMARK  11 active torsions:
REMARK  status: ('A' for Active; 'I' for Inactive)
REMARK    1  A    between atoms: C_1  and  C_2
REMARK    2  A    between atoms: C_3  and  C_4
REMARK    3  A    between atoms: C_6  and  C_14
REMARK    4  A    between atoms: C_8  and  O_12
REMARK    5  A    between atoms: C_9  and  O_10
REMARK    6  A    between atoms: O_10  and  C_11
REMARK    7  A    between atoms: O_12  and  C_13
REMARK    8  A    between atoms: N_16  and  C_17
REMARK    9  A    between atoms: N_16  and  C_18
REMARK   10  A    between atoms: C_18  and  C_19
REMARK   11  A    between atoms: C_32  and  C_34
REMARK                            x       y       z     vdW  Elec       q    Type
REMARK                         _______ _______ _______ _____ _____    ______ ____
ROOT
ATOM      1  C   UNL     1       5.776  -1.320  -0.371  0.00  0.00    +0.247 C 
ATOM      2  O   UNL     1       4.779  -1.943  -0.062  0.00  0.00    -0.270 OA
ATOM      3  N   UNL     1       5.677  -0.249  -1.182  0.00  0.00    -0.292 N 
ATOM      4  C   UNL     1       6.863   0.561  -1.475  0.00  0.00    +0.133 C 
ENDROOT
BRANCH   1   7
ATOM      5  C   UNL     1       8.674  -3.480   0.676  0.00  0.00    +0.021 A 
ATOM      6  C   UNL     1       7.427  -3.091   0.197  0.00  0.00    +0.024 A 
ATOM      7  C   UNL     1       7.096  -1.737   0.143  0.00  0.00    +0.041 A 
ATOM      8  C   UNL     1       8.011  -0.776   0.582  0.00  0.00    +0.062 A 
ATOM      9  C   UNL     1       9.247  -1.163   1.064  0.00  0.00    +0.163 A 
ATOM     10  C   UNL     1       9.586  -2.512   1.114  0.00  0.00    +0.169 A 
BRANCH   5  13
ATOM     11  C   UNL     1       8.533  -7.289   0.369  0.00  0.00    +0.035 C 
ATOM     12  C   UNL     1       8.168  -5.828   0.315  0.00  0.00    -0.029 C 
ATOM     13  C   UNL     1       9.032  -4.913   0.730  0.00  0.00    +0.007 C 
ENDBRANCH   5  13
BRANCH  10  14
ATOM     14  O   UNL     1      10.801  -2.889   1.589  0.00  0.00    -0.491 OA
ATOM     15  C   UNL     1      10.898  -3.147   2.991  0.00  0.00    +0.277 C 
ENDBRANCH  10  14
BRANCH   9  16
ATOM     16  O   UNL     1      10.134  -0.224   1.490  0.00  0.00    -0.491 OA
ATOM     17  C   UNL     1       9.720   1.142   1.411  0.00  0.00    +0.277 C 
ENDBRANCH   9  16
ENDBRANCH   1   7
BRANCH   3  18
ATOM     18  C   UNL     1       4.384   0.107  -1.772  0.00  0.00    +0.204 C 
BRANCH  18  19
ATOM     19  C   UNL     1       3.655   1.052  -0.852  0.00  0.00    +0.237 C 
ATOM     20  O   UNL     1       4.166   1.395   0.193  0.00  0.00    -0.274 OA
ATOM     21  N   UNL     1       2.436   1.516  -1.191  0.00  0.00    -0.265 N 
ATOM     22  C   UNL     1       1.833   1.129  -2.395  0.00  0.00    +0.058 A 
ATOM     23  C   UNL     1       2.292   1.625  -3.605  0.00  0.00    +0.025 A 
ATOM     24  C   UNL     1       1.659   1.263  -4.780  0.00  0.00    +0.002 A 
ATOM     25  C   UNL     1       0.572   0.409  -4.754  0.00  0.00    +0.002 A 
ATOM     26  C   UNL     1       0.116  -0.100  -3.551  0.00  0.00    +0.025 A 
ATOM     27  C   UNL     1       0.750   0.249  -2.371  0.00  0.00    +0.055 A 
ATOM     28  N   UNL     1       0.325  -0.273  -1.144  0.00  0.00    -0.284 N 
ATOM     29  C   UNL     1       0.115   0.543  -0.086  0.00  0.00    +0.219 C 
ATOM     30  O   UNL     1      -0.177   0.068   0.991  0.00  0.00    -0.275 OA
ATOM     31  C   UNL     1       0.241   2.036  -0.236  0.00  0.00    +0.118 C 
ATOM     32  C   UNL     1       1.716   2.435  -0.308  0.00  0.00    +0.087 C 
ATOM     33  C   UNL     1       1.831   3.860  -0.855  0.00  0.00    +0.029 C 
ATOM     34  H   UNL     1       0.181  -1.227  -1.051  0.00  0.00    +0.155 HD
ENDBRANCH  18  19
ENDBRANCH   3  18
TORSDOF 6
