REMARK  Name = ZINC20817807
REMARK  12 active torsions:
REMARK  status: ('A' for Active; 'I' for Inactive)
REMARK    1  A    between atoms: C_1  and  C_2
REMARK    2  A    between atoms: C_2  and  O_3
REMARK    3  A    between atoms: O_3  and  C_4
REMARK    4  A    between atoms: C_4  and  C_6
REMARK    5  A    between atoms: C_10  and  N_11
REMARK    6  A    between atoms: C_12  and  C_14
REMARK    7  A    between atoms: C_14  and  C_16
REMARK    8  A    between atoms: C_14  and  S_17
REMARK    9  A    between atoms: S_17  and  C_18
REMARK   10  A    between atoms: C_21  and  C_24
REMARK   11  A    between atoms: N_22  and  N_23
REMARK   12  A    between atoms: C_29  and  C_33
REMARK                            x       y       z     vdW  Elec       q    Type
REMARK                         _______ _______ _______ _____ _____    ______ ____
ROOT
ATOM      1  N   UNL     1      -3.531   4.464   7.372  0.00  0.00    -0.278 N 
ATOM      2  C   UNL     1      -3.572   4.677   6.042  0.00  0.00    +0.231 C 
ATOM      3  O   UNL     1      -4.079   5.688   5.605  0.00  0.00    -0.274 OA
ATOM      4  H   UNL     1      -3.072   3.547   7.768  0.00  0.00    +0.155 HD
ENDROOT
BRANCH   1   9
ATOM      5  C   UNL     1      -4.125   5.359   9.628  0.00  0.00    +0.091 A 
ATOM      6  C   UNL     1      -4.745   6.484  10.308  0.00  0.00    -0.021 A 
ATOM      7  C   UNL     1      -5.214   7.458   9.499  0.00  0.00    -0.004 A 
ATOM      8  S   UNL     1      -4.837   6.906   7.860  0.00  0.00    -0.077 S 
ATOM      9  C   UNL     1      -4.068   5.401   8.241  0.00  0.00    +0.086 A 
ATOM     10  C   UNL     1      -5.900   8.723   9.913  0.00  0.00    +0.046 C 
ATOM     11  C   UNL     1      -6.332   8.582  11.380  0.00  0.00    -0.009 C 
ATOM     12  C   UNL     1      -5.149   8.048  12.193  0.00  0.00    +0.008 C 
ATOM     13  C   UNL     1      -4.880   6.589  11.822  0.00  0.00    +0.037 C 
ATOM     14  C   UNL     1      -6.757   9.948  11.923  0.00  0.00    +0.008 C 
BRANCH   5  15
ATOM     15  C   UNL     1      -3.579   4.226  10.377  0.00  0.00    +0.342 C 
ATOM     16  O   UNL     1      -2.418   4.241  10.742  0.00  0.00    -0.245 OA
BRANCH  15  17
ATOM     17  O   UNL     1      -4.361   3.165  10.662  0.00  0.00    -0.461 OA
BRANCH  17  19
ATOM     18  C   UNL     1      -4.786   0.973  11.634  0.00  0.00    +0.048 C 
ATOM     19  C   UNL     1      -3.752   2.078  11.407  0.00  0.00    +0.229 C 
ENDBRANCH  17  19
ENDBRANCH  15  17
ENDBRANCH   5  15
ENDBRANCH   1   9
BRANCH   2  20
ATOM     20  C   UNL     1      -2.989   3.658   5.097  0.00  0.00    +0.137 C 
ATOM     21  C   UNL     1      -4.030   2.575   4.808  0.00  0.00    +0.029 C 
BRANCH  20  22
ATOM     22  S   UNL     1      -2.518   4.470   3.550  0.00  0.00    -0.072 S 
BRANCH  22  23
ATOM     23  C   UNL     1      -1.749   3.120   2.718  0.00  0.00    +0.209 A 
ATOM     24  N   UNL     1      -1.606   1.899   3.178  0.00  0.00    -0.121 NA
ATOM     25  N   UNL     1      -1.005   1.171   2.305  0.00  0.00    -0.123 NA
ATOM     26  C   UNL     1      -0.722   1.881   1.250  0.00  0.00    +0.255 A 
ATOM     27  N   UNL     1      -1.189   3.147   1.473  0.00  0.00    -0.220 N 
BRANCH  26  28
ATOM     28  C   UNL     1      -0.017   1.395   0.010  0.00  0.00    +0.454 C 
ATOM     29  F   UNL     1       0.002  -0.004   0.002  0.00  0.00    -0.163 F 
ATOM     30  F   UNL     1       1.296   1.879  -0.000  0.00  0.00    -0.163 F 
ATOM     31  F   UNL     1      -0.694   1.858  -1.124  0.00  0.00    -0.163 F 
ENDBRANCH  26  28
BRANCH  27  32
ATOM     32  N   UNL     1      -1.111   4.216   0.626  0.00  0.00    -0.295 N 
ATOM     33  H   UNL     1      -0.631   4.105  -0.357  0.00  0.00    +0.163 HD
ATOM     34  H   UNL     1      -1.528   5.188   0.928  0.00  0.00    +0.163 HD
ENDBRANCH  27  32
ENDBRANCH  22  23
ENDBRANCH  20  22
ENDBRANCH   2  20
TORSDOF 9
