REMARK  Name = ZINC09973405
REMARK  17 active torsions:
REMARK  status: ('A' for Active; 'I' for Inactive)
REMARK    1  A    between atoms: C_1  and  C_2
REMARK    2  A    between atoms: C_2  and  O_3
REMARK    3  A    between atoms: O_3  and  C_4
REMARK    4  A    between atoms: C_6  and  C_20
REMARK    5  A    between atoms: C_9  and  O_10
REMARK    6  A    between atoms: O_10  and  C_11
REMARK    7  A    between atoms: C_11  and  C_12
REMARK    8  A    between atoms: C_17  and  C_18
REMARK    9  A    between atoms: N_21  and  N_22
REMARK   10  A    between atoms: C_23  and  C_25
REMARK   11  A    between atoms: C_25  and  C_27
REMARK   12  A    between atoms: C_25  and  N_30
REMARK   13  A    between atoms: C_27  and  C_28
REMARK   14  A    between atoms: C_27  and  C_29
REMARK   15  A    between atoms: C_31  and  C_33
REMARK   16  A    between atoms: C_36  and  O_39
REMARK   17  A    between atoms: O_39  and  C_40
REMARK                            x       y       z     vdW  Elec       q    Type
REMARK                         _______ _______ _______ _____ _____    ______ ____
ROOT
ATOM      1  C   UNL     1       2.426   0.895  -4.407  0.00  0.00    +0.138 C 
ATOM      2  N   UNL     1       1.192   0.830  -4.011  0.00  0.00    -0.188 NA
ENDROOT
BRANCH   1   5
ATOM      3  C   UNL     1       4.565  -0.420  -7.200  0.00  0.00    +0.163 A 
ATOM      4  C   UNL     1       4.175   0.251  -6.055  0.00  0.00    +0.059 A 
ATOM      5  C   UNL     1       2.847   0.182  -5.627  0.00  0.00    -0.002 A 
ATOM      6  C   UNL     1       1.920  -0.568  -6.355  0.00  0.00    +0.013 A 
ATOM      7  C   UNL     1       2.315  -1.230  -7.499  0.00  0.00    +0.050 A 
ATOM      8  C   UNL     1       3.634  -1.161  -7.924  0.00  0.00    +0.162 A 
BRANCH   3   9
ATOM      9  O   UNL     1       5.857  -0.355  -7.619  0.00  0.00    -0.489 OA
BRANCH   9  11
ATOM     10  C   UNL     1       8.154   0.377  -7.451  0.00  0.00    +0.048 C 
ATOM     11  C   UNL     1       6.758   0.423  -6.828  0.00  0.00    +0.226 C 
ENDBRANCH   9  11
ENDBRANCH   3   9
BRANCH   8  12
ATOM     12  O   UNL     1       4.019  -1.819  -9.049  0.00  0.00    -0.484 OA
BRANCH  12  13
ATOM     13  C   UNL     1       3.013  -2.561  -9.743  0.00  0.00    +0.266 C 
BRANCH  13  14
ATOM     14  C   UNL     1       3.621  -3.218 -10.956  0.00  0.00    +0.007 A 
ATOM     15  C   UNL     1       4.959  -3.042 -11.240  0.00  0.00    +0.008 A 
ATOM     16  C   UNL     1       5.520  -3.648 -12.350  0.00  0.00    +0.000 A 
ATOM     17  C   UNL     1       4.741  -4.427 -13.188  0.00  0.00    +0.001 A 
ATOM     18  C   UNL     1       3.400  -4.606 -12.919  0.00  0.00    +0.019 A 
ATOM     19  C   UNL     1       2.829  -4.002 -11.797  0.00  0.00    +0.058 A 
BRANCH  19  20
ATOM     20  C   UNL     1       1.438  -4.184 -11.512  0.00  0.00    +0.100 C 
ATOM     21  N   UNL     1       0.334  -4.328 -11.286  0.00  0.00    -0.191 NA
ENDBRANCH  19  20
ENDBRANCH  13  14
ENDBRANCH  12  13
ENDBRANCH   8  12
ENDBRANCH   1   5
BRANCH   2  22
ATOM     22  N   UNL     1       0.791   1.507  -2.852  0.00  0.00    -0.205 N 
ATOM     23  C   UNL     1      -0.490   1.440  -2.441  0.00  0.00    +0.253 C 
ATOM     24  O   UNL     1      -1.315   0.864  -3.119  0.00  0.00    -0.272 OA
ATOM     25  H   UNL     1       1.437   2.025  -2.346  0.00  0.00    +0.177 HD
BRANCH  23  26
ATOM     26  C   UNL     1      -0.899   2.081  -1.140  0.00  0.00    +0.163 C 
BRANCH  26  27
ATOM     27  N   UNL     1      -2.333   2.378  -1.171  0.00  0.00    -0.300 N 
ATOM     28  C   UNL     1      -2.834   3.362  -0.397  0.00  0.00    +0.245 C 
ATOM     29  O   UNL     1      -2.096   4.002   0.326  0.00  0.00    -0.270 OA
ATOM     30  H   UNL     1      -2.922   1.867  -1.748  0.00  0.00    +0.150 HD
BRANCH  28  31
ATOM     31  C   UNL     1      -4.279   3.661  -0.428  0.00  0.00    +0.037 A 
ATOM     32  C   UNL     1      -5.128   2.930  -1.264  0.00  0.00    +0.016 A 
ATOM     33  C   UNL     1      -6.476   3.210  -1.287  0.00  0.00    +0.046 A 
ATOM     34  C   UNL     1      -6.991   4.224  -0.488  0.00  0.00    +0.120 A 
ATOM     35  C   UNL     1      -6.149   4.957   0.340  0.00  0.00    +0.046 A 
ATOM     36  C   UNL     1      -4.801   4.680   0.373  0.00  0.00    +0.016 A 
BRANCH  34  37
ATOM     37  O   UNL     1      -8.320   4.500  -0.517  0.00  0.00    -0.495 OA
ATOM     38  C   UNL     1      -9.128   3.709  -1.391  0.00  0.00    +0.277 C 
ENDBRANCH  34  37
ENDBRANCH  28  31
ENDBRANCH  26  27
BRANCH  26  39
ATOM     39  C   UNL     1      -0.601   1.123   0.016  0.00  0.00    +0.012 C 
ATOM     40  C   UNL     1      -0.888   1.824   1.345  0.00  0.00    +0.009 C 
ATOM     41  C   UNL     1      -1.488  -0.117  -0.109  0.00  0.00    +0.009 C 
ENDBRANCH  26  39
ENDBRANCH  23  26
ENDBRANCH   2  22
TORSDOF 13
