REMARK  Name = ZINC63637683
REMARK  8 active torsions:
REMARK  status: ('A' for Active; 'I' for Inactive)
REMARK    1  A    between atoms: C_1  and  O_2
REMARK    2  A    between atoms: O_2  and  C_3
REMARK    3  A    between atoms: C_5  and  C_13
REMARK    4  A    between atoms: C_7  and  O_11
REMARK    5  A    between atoms: C_8  and  O_9
REMARK    6  A    between atoms: O_9  and  C_10
REMARK    7  A    between atoms: O_11  and  C_12
REMARK    8  A    between atoms: C_18  and  C_30
REMARK                            x       y       z     vdW  Elec       q    Type
REMARK                         _______ _______ _______ _____ _____    ______ ____
ROOT
ATOM      1  C   UNL     1      -4.871   0.264   0.038  0.00  0.00    +0.032 C 
ATOM      2  C   UNL     1      -5.708  -0.077  -1.196  0.00  0.00    +0.059 C 
ATOM      3  C   UNL     1      -7.002   0.702  -1.164  0.00  0.00    +0.017 C 
ATOM      4  C   UNL     1      -7.581   1.036   0.005  0.00  0.00    +0.021 C 
ATOM      5  C   UNL     1      -8.868   1.824   0.070  0.00  0.00    +0.073 C 
ATOM      6  C   UNL     1      -9.635   1.702  -1.248  0.00  0.00    +0.148 C 
ATOM      7  C   UNL     1      -8.641   1.889  -2.370  0.00  0.00    +0.106 C 
ATOM      8  N   UNL     1      -8.781   2.805  -3.277  0.00  0.00    -0.151 NA
ATOM      9  C   UNL     1      -9.806   3.670  -3.276  0.00  0.00    +0.331 C 
ATOM     10  O   UNL     1      -9.892   4.489  -4.172  0.00  0.00    -0.250 OA
ATOM     11  N   UNL     1     -10.738   3.655  -2.311  0.00  0.00    -0.238 N 
ATOM     12  C   UNL     1     -10.711   2.746  -1.317  0.00  0.00    +0.231 C 
ATOM     13  O   UNL     1     -11.569   2.769  -0.460  0.00  0.00    -0.275 OA
ATOM     14  N   UNL     1      -7.564   1.045  -2.373  0.00  0.00    -0.307 N 
ATOM     15  C   UNL     1      -6.996   0.663   1.233  0.00  0.00    +0.162 C 
ATOM     16  O   UNL     1      -7.559   0.949   2.271  0.00  0.00    -0.292 OA
ATOM     17  C   UNL     1      -5.691  -0.081   1.286  0.00  0.00    +0.088 C 
ATOM     18  H   UNL     1     -11.451   4.313  -2.330  0.00  0.00    +0.159 HD
ATOM     19  H   UNL     1      -7.206   0.698  -3.205  0.00  0.00    +0.153 HD
ENDROOT
BRANCH   5  20
ATOM     20  C   UNL     1      -8.552   3.275   0.326  0.00  0.00    -0.039 A 
ATOM     21  C   UNL     1      -7.775   3.982  -0.573  0.00  0.00    +0.007 A 
ATOM     22  C   UNL     1      -7.484   5.312  -0.340  0.00  0.00    +0.038 A 
ATOM     23  C   UNL     1      -7.971   5.938   0.795  0.00  0.00    +0.123 A 
ATOM     24  C   UNL     1      -8.750   5.230   1.694  0.00  0.00    +0.038 A 
ATOM     25  C   UNL     1      -9.043   3.901   1.456  0.00  0.00    +0.007 A 
ATOM     26  F   UNL     1      -7.688   7.239   1.024  0.00  0.00    -0.205 F 
ENDBRANCH   5  20
BRANCH   1  29
ATOM     27  C   UNL     1      -1.201  -0.638   0.010  0.00  0.00    +0.165 A 
ATOM     28  C   UNL     1      -2.375   0.101   0.019  0.00  0.00    +0.053 A 
ATOM     29  C   UNL     1      -3.598  -0.543   0.028  0.00  0.00    -0.036 A 
ATOM     30  C   UNL     1      -3.657  -1.924   0.027  0.00  0.00    +0.053 A 
ATOM     31  C   UNL     1      -2.488  -2.670   0.017  0.00  0.00    +0.165 A 
ATOM     32  C   UNL     1      -1.256  -2.027   0.003  0.00  0.00    +0.204 A 
BRANCH  27  34
ATOM     33  C   UNL     1      -0.017   1.425   0.010  0.00  0.00    +0.277 C 
ATOM     34  O   UNL     1       0.002  -0.004   0.002  0.00  0.00    -0.491 OA
ENDBRANCH  27  34
BRANCH  32  35
ATOM     35  O   UNL     1      -0.106  -2.755  -0.012  0.00  0.00    -0.488 OA
ATOM     36  C   UNL     1       0.454  -3.109   1.254  0.00  0.00    +0.277 C 
ENDBRANCH  32  35
BRANCH  31  37
ATOM     37  O   UNL     1      -2.547  -4.028   0.017  0.00  0.00    -0.491 OA
ATOM     38  C   UNL     1      -3.847  -4.621   0.026  0.00  0.00    +0.277 C 
ENDBRANCH  31  37
ENDBRANCH   1  29
TORSDOF 5
