REMARK  Name = ZINC00921355
REMARK  7 active torsions:
REMARK  status: ('A' for Active; 'I' for Inactive)
REMARK    1  A    between atoms: C_1  and  C_2
REMARK    2  A    between atoms: C_2  and  O_3
REMARK    3  A    between atoms: O_3  and  C_4
REMARK    4  A    between atoms: C_4  and  C_6
REMARK    5  A    between atoms: C_8  and  C_20
REMARK    6  A    between atoms: C_14  and  C_15
REMARK    7  A    between atoms: C_14  and  O_19
REMARK                            x       y       z     vdW  Elec       q    Type
REMARK                         _______ _______ _______ _____ _____    ______ ____
ROOT
ATOM      1  C   UNL     1       3.731  -2.592  -1.449  0.00  0.00    +0.181 C 
ATOM      2  C   UNL     1       4.253  -1.994  -0.139  0.00  0.00    +0.121 C 
ATOM      3  N   UNL     1       5.419  -2.758   0.307  0.00  0.00    -0.319 N 
ATOM      4  C   UNL     1       5.558  -4.058   0.007  0.00  0.00    +0.133 C 
ATOM      5  S   UNL     1       6.942  -4.889   0.577  0.00  0.00    -0.019 S 
ATOM      6  N   UNL     1       4.656  -4.732  -0.721  0.00  0.00    -0.291 N 
ATOM      7  C   UNL     1       3.446  -4.081  -1.226  0.00  0.00    +0.244 C 
ATOM      8  H   UNL     1       6.105  -2.315   0.831  0.00  0.00    +0.148 HD
ATOM      9  H   UNL     1       4.808  -5.669  -0.917  0.00  0.00    +0.151 HD
ENDROOT
BRANCH   2  10
ATOM     10  C   UNL     1       4.647  -0.557  -0.363  0.00  0.00    -0.019 A 
ATOM     11  C   UNL     1       4.832  -0.088  -1.628  0.00  0.00    +0.006 A 
ATOM     12  C   UNL     1       5.197   1.238  -1.855  0.00  0.00    +0.001 A 
ATOM     13  C   UNL     1       5.380   2.102  -0.819  0.00  0.00    +0.008 A 
ATOM     14  C   UNL     1       5.199   1.654   0.500  0.00  0.00    -0.018 A 
ATOM     15  C   UNL     1       4.827   0.305   0.731  0.00  0.00    -0.013 A 
ATOM     16  C   UNL     1       4.644  -0.142   2.051  0.00  0.00    +0.009 A 
ATOM     17  C   UNL     1       4.826   0.722   3.086  0.00  0.00    +0.001 A 
ATOM     18  C   UNL     1       5.192   2.047   2.859  0.00  0.00    +0.001 A 
ATOM     19  C   UNL     1       5.378   2.516   1.595  0.00  0.00    +0.008 A 
ENDBRANCH   2  10
BRANCH   7  20
ATOM     20  C   UNL     1       3.032  -4.728  -2.550  0.00  0.00    +0.436 C 
ATOM     21  F   UNL     1       2.912  -6.111  -2.376  0.00  0.00    -0.166 F 
ATOM     22  F   UNL     1       1.804  -4.201  -2.962  0.00  0.00    -0.166 F 
ATOM     23  F   UNL     1       4.003  -4.463  -3.522  0.00  0.00    -0.166 F 
ENDBRANCH   7  20
BRANCH   1  24
ATOM     24  C   UNL     1       2.462  -1.889  -1.857  0.00  0.00    +0.317 C 
ATOM     25  O   UNL     1       1.667  -1.541  -1.016  0.00  0.00    -0.250 OA
BRANCH  24  26
ATOM     26  O   UNL     1       2.213  -1.650  -3.154  0.00  0.00    -0.465 OA
BRANCH  26  28
ATOM     27  C   UNL     1       0.865  -0.786  -4.989  0.00  0.00    +0.048 C 
ATOM     28  C   UNL     1       0.972  -0.969  -3.473  0.00  0.00    +0.229 C 
ENDBRANCH  26  28
ENDBRANCH  24  26
ENDBRANCH   1  24
BRANCH   7  29
ATOM     29  O   UNL     1       2.391  -4.228  -0.273  0.00  0.00    -0.364 OA
ATOM     30  H   UNL     1       2.161  -5.147  -0.080  0.00  0.00    +0.212 HD
ENDBRANCH   7  29
TORSDOF 6
