REMARK  Name = ZINC38660553
REMARK  16 active torsions:
REMARK  status: ('A' for Active; 'I' for Inactive)
REMARK    1  A    between atoms: C_1  and  C_2
REMARK    2  A    between atoms: C_2  and  C_3
REMARK    3  A    between atoms: C_3  and  O_4
REMARK    4  A    between atoms: O_4  and  C_5
REMARK    5  A    between atoms: C_8  and  C_11
REMARK    6  A    between atoms: C_11  and  O_13
REMARK    7  A    between atoms: O_13  and  C_14
REMARK    8  A    between atoms: C_21  and  N_39
REMARK    9  A    between atoms: C_22  and  C_37
REMARK   10  A    between atoms: C_23  and  C_25
REMARK   11  A    between atoms: C_27  and  O_35
REMARK   12  A    between atoms: C_28  and  O_33
REMARK   13  A    between atoms: C_29  and  O_31
REMARK   14  A    between atoms: O_31  and  C_32
REMARK   15  A    between atoms: O_33  and  C_34
REMARK   16  A    between atoms: O_35  and  C_36
REMARK                            x       y       z     vdW  Elec       q    Type
REMARK                         _______ _______ _______ _____ _____    ______ ____
ROOT
ATOM      1  C   UNL     1       3.934  -6.225  -6.788  0.00  0.00    +0.135 A 
ATOM      2  C   UNL     1       4.523  -5.338  -7.678  0.00  0.00    +0.047 A 
ATOM      3  C   UNL     1       5.194  -5.815  -8.787  0.00  0.00    +0.012 A 
ATOM      4  C   UNL     1       5.283  -7.177  -9.015  0.00  0.00    +0.008 A 
ATOM      5  C   UNL     1       4.697  -8.068  -8.130  0.00  0.00    +0.138 A 
ATOM      6  C   UNL     1       4.026  -7.590  -7.012  0.00  0.00    +0.093 A 
ATOM      7  O   UNL     1       4.773  -9.405  -8.337  0.00  0.00    -0.441 OA
ATOM      8  C   UNL     1       5.065  -9.879  -9.560  0.00  0.00    +0.199 C 
ATOM      9  C   UNL     1       5.655  -9.109 -10.504  0.00  0.00    +0.098 C 
ATOM     10  C   UNL     1       6.019  -7.677 -10.230  0.00  0.00    +0.098 C 
ENDROOT
BRANCH  10  11
ATOM     11  C   UNL     1       7.504  -7.575  -9.991  0.00  0.00    -0.028 A 
ATOM     12  C   UNL     1       8.082  -8.267  -8.943  0.00  0.00    +0.054 A 
ATOM     13  C   UNL     1       9.447  -8.176  -8.719  0.00  0.00    +0.165 A 
ATOM     14  C   UNL     1      10.235  -7.388  -9.550  0.00  0.00    +0.204 A 
ATOM     15  C   UNL     1       9.649  -6.695 -10.603  0.00  0.00    +0.165 A 
ATOM     16  C   UNL     1       8.284  -6.795 -10.823  0.00  0.00    +0.054 A 
BRANCH  15  17
ATOM     17  O   UNL     1      10.416  -5.922 -11.419  0.00  0.00    -0.491 OA
ATOM     18  C   UNL     1       9.747  -5.238 -12.480  0.00  0.00    +0.277 C 
ENDBRANCH  15  17
BRANCH  14  19
ATOM     19  O   UNL     1      11.575  -7.296  -9.334  0.00  0.00    -0.488 OA
ATOM     20  C   UNL     1      12.407  -8.251  -9.995  0.00  0.00    +0.277 C 
ENDBRANCH  14  19
BRANCH  13  21
ATOM     21  O   UNL     1      10.015  -8.857  -7.688  0.00  0.00    -0.491 OA
ATOM     22  C   UNL     1       9.145  -9.646  -6.874  0.00  0.00    +0.277 C 
ENDBRANCH  13  21
ENDBRANCH  10  11
BRANCH   8  23
ATOM     23  N   UNL     1       4.754 -11.182  -9.861  0.00  0.00    -0.328 N 
ATOM     24  H   UNL     1       4.331 -11.746  -9.196  0.00  0.00    +0.145 HD
ATOM     25  H   UNL     1       4.959 -11.538 -10.740  0.00  0.00    +0.145 HD
ENDBRANCH   8  23
BRANCH   9  26
ATOM     26  C   UNL     1       5.940  -9.671 -11.790  0.00  0.00    +0.101 C 
ATOM     27  N   UNL     1       6.166 -10.117 -12.810  0.00  0.00    -0.191 NA
ENDBRANCH   9  26
BRANCH   1  28
ATOM     28  O   UNL     1       3.274  -5.757  -5.697  0.00  0.00    -0.422 OA
BRANCH  28  29
ATOM     29  C   UNL     1       3.896  -5.825  -4.503  0.00  0.00    +0.344 C 
ATOM     30  O   UNL     1       4.976  -6.375  -4.412  0.00  0.00    -0.245 OA
BRANCH  29  34
ATOM     31  C   UNL     1       2.085  -4.119  -1.064  0.00  0.00    +0.121 A 
ATOM     32  C   UNL     1       3.320  -4.747  -0.957  0.00  0.00    +0.046 A 
ATOM     33  C   UNL     1       3.911  -5.303  -2.070  0.00  0.00    +0.018 A 
ATOM     34  C   UNL     1       3.267  -5.233  -3.309  0.00  0.00    +0.060 A 
ATOM     35  C   UNL     1       2.025  -4.599  -3.412  0.00  0.00    +0.018 A 
ATOM     36  C   UNL     1       1.438  -4.052  -2.293  0.00  0.00    +0.046 A 
BRANCH  31  37
ATOM     37  O   UNL     1       1.506  -3.573   0.035  0.00  0.00    -0.492 OA
BRANCH  37  38
ATOM     38  C   UNL     1       2.224  -3.677   1.266  0.00  0.00    +0.229 C 
BRANCH  38  40
ATOM     39  C   UNL     1       2.190  -3.120   3.701  0.00  0.00    +0.007 C 
ATOM     40  C   UNL     1       1.420  -3.009   2.384  0.00  0.00    +0.038 C 
ENDBRANCH  38  40
ENDBRANCH  37  38
ENDBRANCH  31  37
ENDBRANCH  29  34
ENDBRANCH  28  29
ENDBRANCH   1  28
TORSDOF 12
