REMARK  Name = ZINC20917679
REMARK  9 active torsions:
REMARK  status: ('A' for Active; 'I' for Inactive)
REMARK    1  A    between atoms: C_1  and  C_2
REMARK    2  A    between atoms: C_5  and  C_8
REMARK    3  A    between atoms: N_9  and  N_10
REMARK    4  A    between atoms: C_14  and  S_17
REMARK    5  A    between atoms: N_15  and  N_16
REMARK    6  A    between atoms: S_17  and  C_18
REMARK    7  A    between atoms: C_18  and  C_19
REMARK    8  A    between atoms: N_21  and  C_22
REMARK    9  A    between atoms: C_27  and  C_28
REMARK                            x       y       z     vdW  Elec       q    Type
REMARK                         _______ _______ _______ _____ _____    ______ ____
ROOT
ATOM      1  N   UNL     1      -0.019   1.383  -0.045  0.00  0.00    -0.204 N 
ATOM      2  C   UNL     1       0.000  -0.004  -0.045  0.00  0.00    +0.254 A 
ATOM      3  N   UNL     1      -1.050  -0.789  -0.035  0.00  0.00    -0.109 NA
ATOM      4  N   UNL     1      -0.598  -2.116  -0.041  0.00  0.00    -0.119 NA
ATOM      5  C   UNL     1       0.713  -2.097  -0.046  0.00  0.00    +0.210 A 
ATOM      6  N   UNL     1       1.117  -0.792  -0.049  0.00  0.00    -0.211 N 
ATOM      7  H   UNL     1       0.926   1.946  -0.045  0.00  0.00    +0.177 HD
ENDROOT
BRANCH   6   8
ATOM      8  N   UNL     1       2.410  -0.352  -0.055  0.00  0.00    -0.294 N 
ATOM      9  H   UNL     1       3.238  -1.077  -0.058  0.00  0.00    +0.163 HD
ATOM     10  H   UNL     1       2.624   0.727  -0.057  0.00  0.00    +0.163 HD
ENDBRANCH   6   8
BRANCH   1  12
ATOM     11  C   UNL     1      -1.260   3.365  -0.047  0.00  0.00    +0.138 C 
ATOM     12  N   UNL     1      -1.242   2.067  -0.047  0.00  0.00    -0.188 NA
BRANCH  11  17
ATOM     13  C   UNL     1      -6.280   6.172  -0.053  0.00  0.00    +0.044 C 
ATOM     14  C   UNL     1      -4.964   5.436  -0.051  0.00  0.00    -0.050 A 
ATOM     15  C   UNL     1      -3.777   6.148  -0.051  0.00  0.00    +0.004 A 
ATOM     16  C   UNL     1      -2.570   5.482  -0.049  0.00  0.00    +0.010 A 
ATOM     17  C   UNL     1      -2.547   4.085  -0.049  0.00  0.00    -0.005 A 
ATOM     18  C   UNL     1      -3.749   3.373  -0.055  0.00  0.00    +0.010 A 
ATOM     19  C   UNL     1      -4.949   4.053  -0.051  0.00  0.00    +0.004 A 
ENDBRANCH  11  17
ENDBRANCH   1  12
BRANCH   5  20
ATOM     20  S   UNL     1       1.769  -3.508  -0.049  0.00  0.00    -0.075 S 
BRANCH  20  21
ATOM     21  C   UNL     1       0.622  -4.914  -0.044  0.00  0.00    +0.173 C 
BRANCH  21  22
ATOM     22  C   UNL     1       1.406  -6.201  -0.046  0.00  0.00    +0.227 C 
ATOM     23  O   UNL     1       2.619  -6.173  -0.050  0.00  0.00    -0.275 OA
ATOM     24  N   UNL     1       0.759  -7.384  -0.042  0.00  0.00    -0.285 N 
ATOM     25  H   UNL     1      -0.336  -7.411   0.054  0.00  0.00    +0.155 HD
BRANCH  24  26
ATOM     26  C   UNL     1       1.482  -8.576  -0.160  0.00  0.00    +0.038 A 
ATOM     27  C   UNL     1       2.725  -8.578  -0.778  0.00  0.00    +0.023 A 
ATOM     28  C   UNL     1       3.437  -9.756  -0.893  0.00  0.00    +0.003 A 
ATOM     29  C   UNL     1       2.912 -10.934  -0.394  0.00  0.00    +0.020 A 
ATOM     30  C   UNL     1       1.673 -10.936   0.222  0.00  0.00    +0.046 A 
ATOM     31  C   UNL     1       0.959  -9.759   0.345  0.00  0.00    -0.011 A 
ATOM     32  C   UNL     1      -0.388  -9.760   1.021  0.00  0.00    +0.047 C 
ATOM     33 CL   UNL     1       1.017 -12.418   0.847  0.00  0.00    -0.083 Cl
ENDBRANCH  24  26
ENDBRANCH  21  22
ENDBRANCH  20  21
ENDBRANCH   5  20
TORSDOF 7
