REMARK  Name = ZINC64567319
REMARK  8 active torsions:
REMARK  status: ('A' for Active; 'I' for Inactive)
REMARK    1  A    between atoms: C_1  and  C_2
REMARK    2  A    between atoms: C_2  and  O_3
REMARK    3  A    between atoms: O_3  and  C_4
REMARK    4  A    between atoms: C_6  and  C_11
REMARK    5  A    between atoms: C_9  and  O_10
REMARK    6  A    between atoms: C_15  and  C_17
REMARK    7  A    between atoms: C_22  and  O_23
REMARK    8  A    between atoms: C_25  and  C_27
REMARK                            x       y       z     vdW  Elec       q    Type
REMARK                         _______ _______ _______ _____ _____    ______ ____
ROOT
ATOM      1  C   UNL     1      -0.229  -4.969   0.477  0.00  0.00    +0.320 C 
ATOM      2  N   UNL     1      -0.614  -6.249  -0.142  0.00  0.00    -0.146 N 
ATOM      3  N   UNL     1       0.168  -7.222   0.498  0.00  0.00    -0.135 NA
ATOM      4  C   UNL     1       0.933  -6.671   1.384  0.00  0.00    +0.243 C 
ATOM      5  O   UNL     1       0.767  -5.328   1.446  0.00  0.00    -0.447 OA
ATOM      6  C   UNL     1      -1.526  -6.444  -1.117  0.00  0.00    +0.235 C 
ATOM      7  O   UNL     1      -2.132  -5.500  -1.579  0.00  0.00    -0.274 OA
ATOM      8  C   UNL     1      -1.792  -7.835  -1.633  0.00  0.00    +0.111 C 
ENDROOT
BRANCH   4   9
ATOM      9  C   UNL     1       1.881  -7.422   2.232  0.00  0.00    +0.080 A 
ATOM     10  C   UNL     1       2.667  -6.750   3.170  0.00  0.00    +0.032 A 
ATOM     11  C   UNL     1       3.550  -7.457   3.960  0.00  0.00    +0.019 A 
ATOM     12  C   UNL     1       3.659  -8.831   3.827  0.00  0.00    +0.019 A 
ATOM     13  C   UNL     1       2.887  -9.507   2.901  0.00  0.00    +0.047 A 
ATOM     14  C   UNL     1       1.991  -8.812   2.105  0.00  0.00    +0.129 A 
ATOM     15 BR   UNL     1       4.614  -6.546   5.230  0.00  0.00    -0.050 Br
BRANCH  14  16
ATOM     16  O   UNL     1       1.227  -9.476   1.199  0.00  0.00    -0.506 OA
ATOM     17  H   UNL     1       1.636  -9.562   0.327  0.00  0.00    +0.292 HD
ENDBRANCH  14  16
ENDBRANCH   4   9
BRANCH   1  20
ATOM     18  C   UNL     1       0.777  -1.811  -1.336  0.00  0.00    +0.162 A 
ATOM     19  C   UNL     1       0.243  -2.669  -0.388  0.00  0.00    +0.058 A 
ATOM     20  C   UNL     1       0.352  -4.037  -0.555  0.00  0.00    +0.017 A 
ATOM     21  C   UNL     1       0.992  -4.552  -1.667  0.00  0.00    +0.013 A 
ATOM     22  C   UNL     1       1.526  -3.702  -2.616  0.00  0.00    +0.049 A 
ATOM     23  C   UNL     1       1.416  -2.330  -2.458  0.00  0.00    +0.158 A 
BRANCH  23  24
ATOM     24  O   UNL     1       1.936  -1.492  -3.394  0.00  0.00    -0.503 OA
ATOM     25  H   UNL     1       2.856  -1.241  -3.231  0.00  0.00    +0.292 HD
ENDBRANCH  23  24
BRANCH  18  26
ATOM     26  O   UNL     1       0.671  -0.465  -1.174  0.00  0.00    -0.489 OA
BRANCH  26  28
ATOM     27  C   UNL     1      -0.019   1.526   0.010  0.00  0.00    +0.048 C 
ATOM     28  C   UNL     1       0.002  -0.004   0.002  0.00  0.00    +0.226 C 
ENDBRANCH  26  28
ENDBRANCH  18  26
ENDBRANCH   1  20
TORSDOF 6
