REMARK  Name = ZINC39686407
REMARK  8 active torsions:
REMARK  status: ('A' for Active; 'I' for Inactive)
REMARK    1  A    between atoms: C_1  and  C_2
REMARK    2  A    between atoms: C_2  and  C_4
REMARK    3  A    between atoms: C_2  and  N_13
REMARK    4  A    between atoms: C_4  and  C_5
REMARK    5  A    between atoms: C_10  and  O_11
REMARK    6  A    between atoms: O_11  and  C_12
REMARK    7  A    between atoms: C_14  and  C_16
REMARK    8  A    between atoms: C_27  and  C_29
REMARK                            x       y       z     vdW  Elec       q    Type
REMARK                         _______ _______ _______ _____ _____    ______ ____
ROOT
ATOM      1  C   UNL     1       0.712  -1.094  -3.598  0.00  0.00    +0.100 C 
ATOM      2  C   UNL     1       1.732  -0.041  -4.085  0.00  0.00    +0.121 C 
ATOM      3  N   UNL     1       1.653  -0.098  -5.564  0.00  0.00    -0.296 N 
ATOM      4  C   UNL     1       0.209  -0.272  -5.849  0.00  0.00    +0.115 C 
ATOM      5  C   UNL     1      -0.287  -1.243  -4.759  0.00  0.00    -0.004 C 
ATOM      6  C   UNL     1      -1.689  -0.852  -4.303  0.00  0.00    -0.010 C 
ATOM      7  C   UNL     1      -2.674  -1.064  -5.457  0.00  0.00    -0.082 C 
ATOM      8  N   UNL     1      -2.647  -2.471  -5.873  0.00  0.00    +0.379 N 
ATOM      9  C   UNL     1      -1.320  -2.813  -6.397  0.00  0.00    -0.082 C 
ATOM     10  C   UNL     1      -0.278  -2.676  -5.283  0.00  0.00    -0.010 C 
ATOM     11  C   UNL     1       2.666  -0.012  -6.449  0.00  0.00    +0.249 C 
ATOM     12  O   UNL     1       2.438  -0.077  -7.641  0.00  0.00    -0.270 OA
ATOM     13  H   UNL     1      -2.856  -3.059  -5.080  0.00  0.00    -0.086 HD
ATOM     14  H   UNL     1      -3.340  -2.621  -6.591  0.00  0.00    -0.086 HD
ENDROOT
BRANCH  11  15
ATOM     15  C   UNL     1       4.052   0.161  -5.970  0.00  0.00    +0.073 A 
ATOM     16  C   UNL     1       4.849  -0.957  -5.709  0.00  0.00    +0.054 A 
ATOM     17  C   UNL     1       6.145  -0.787  -5.262  0.00  0.00    +0.021 A 
ATOM     18  C   UNL     1       6.654   0.485  -5.072  0.00  0.00    +0.003 A 
ATOM     19  C   UNL     1       5.871   1.596  -5.328  0.00  0.00    +0.021 A 
ATOM     20  C   UNL     1       4.575   1.443  -5.782  0.00  0.00    +0.054 A 
ATOM     21 CL   UNL     1       3.597   2.839  -6.110  0.00  0.00    -0.083 Cl
ATOM     22 CL   UNL     1       4.213  -2.554  -5.945  0.00  0.00    -0.083 Cl
ENDBRANCH  11  15
BRANCH   1  24
ATOM     23  N   UNL     1      -0.156  -1.436  -1.308  0.00  0.00    -0.312 N 
ATOM     24  C   UNL     1       0.006  -0.608  -2.358  0.00  0.00    +0.218 C 
ATOM     25  O   UNL     1      -0.415   0.528  -2.307  0.00  0.00    -0.275 OA
ATOM     26  H   UNL     1       0.181  -2.345  -1.349  0.00  0.00    +0.149 HD
BRANCH  23  28
ATOM     27  C   UNL     1       0.159  -0.245   0.806  0.00  0.00    +0.028 C 
ATOM     28  C   UNL     1      -0.842  -0.964  -0.102  0.00  0.00    +0.074 C 
BRANCH  28  29
ATOM     29  C   UNL     1      -1.442  -2.157   0.644  0.00  0.00    +0.060 C 
BRANCH  29  30
ATOM     30  C   UNL     1      -2.516  -2.790  -0.203  0.00  0.00    -0.004 A 
ATOM     31  C   UNL     1      -3.838  -2.430  -0.027  0.00  0.00    +0.007 A 
ATOM     32  C   UNL     1      -4.823  -3.011  -0.803  0.00  0.00    +0.000 A 
ATOM     33  C   UNL     1      -4.489  -3.954  -1.758  0.00  0.00    +0.004 A 
ATOM     34  C   UNL     1      -3.168  -4.317  -1.938  0.00  0.00    +0.046 A 
ATOM     35  C   UNL     1      -2.177  -3.732  -1.164  0.00  0.00    +0.123 A 
BRANCH  35  36
ATOM     36  O   UNL     1      -0.876  -4.083  -1.343  0.00  0.00    -0.495 OA
ATOM     37  C   UNL     1      -0.601  -5.059  -2.350  0.00  0.00    +0.277 C 
ENDBRANCH  35  36
ENDBRANCH  29  30
ENDBRANCH  28  29
ENDBRANCH  23  28
ENDBRANCH   1  24
TORSDOF 6
