REMARK  Name = ZINC60377138
REMARK  4 active torsions:
REMARK  status: ('A' for Active; 'I' for Inactive)
REMARK    1  A    between atoms: C_1  and  N_2
REMARK    2  A    between atoms: N_13  and  C_14
REMARK    3  A    between atoms: C_14  and  C_15
REMARK    4  A    between atoms: C_15  and  C_16
REMARK                            x       y       z     vdW  Elec       q    Type
REMARK                         _______ _______ _______ _____ _____    ______ ____
ROOT
ATOM      1  C   UNL     1      -0.018   1.461   0.010  0.00  0.00    +0.174 C 
ATOM      2  N   UNL     1       0.002  -0.004   0.002  0.00  0.00    -0.249 N 
ATOM      3  C   UNL     1       0.008  -0.794  -1.104  0.00  0.00    +0.167 A 
ATOM      4  C   UNL     1       0.028  -2.123  -0.649  0.00  0.00    +0.103 A 
ATOM      5  C   UNL     1       0.034  -2.079   0.760  0.00  0.00    +0.150 A 
ATOM      6  N   UNL     1       0.025  -0.830   1.132  0.00  0.00    -0.177 NA
ATOM      7  C   UNL     1       0.038  -3.169  -1.606  0.00  0.00    +0.263 A 
ATOM      8  O   UNL     1       0.055  -4.336  -1.256  0.00  0.00    -0.267 OA
ATOM      9  N   UNL     1       0.027  -2.839  -2.917  0.00  0.00    -0.295 N 
ATOM     10  H   UNL     1       0.034  -3.537  -3.590  0.00  0.00    +0.172 HD
ATOM     11  C   UNL     1       0.007  -1.529  -3.296  0.00  0.00    +0.198 A 
ATOM     12  N   UNL     1      -0.001  -0.549  -2.422  0.00  0.00    -0.196 NA
ATOM     13  N   UNL     1      -0.003  -1.226  -4.634  0.00  0.00    -0.315 N 
ATOM     14  H   UNL     1       0.003  -1.938  -5.293  0.00  0.00    +0.149 HD
ENDROOT
BRANCH  13  15
ATOM     15  C   UNL     1      -0.025   0.173  -5.068  0.00  0.00    +0.105 C 
BRANCH  15  16
ATOM     16  C   UNL     1      -0.033   0.233  -6.596  0.00  0.00    +0.025 C 
BRANCH  16  17
ATOM     17  C   UNL     1      -0.055   1.695  -7.049  0.00  0.00    -0.027 C 
ATOM     18  C   UNL     1      -1.312   2.378  -6.505  0.00  0.00    +0.010 C 
ATOM     19  C   UNL     1      -1.334   3.839  -6.958  0.00  0.00    -0.010 C 
ATOM     20  C   UNL     1      -1.342   3.899  -8.487  0.00  0.00    +0.007 C 
ATOM     21  C   UNL     1      -0.086   3.216  -9.031  0.00  0.00    -0.010 C 
ATOM     22  C   UNL     1      -0.064   1.755  -8.578  0.00  0.00    +0.010 C 
ATOM     23  C   UNL     1       1.156   3.934  -8.499  0.00  0.00    +0.007 C 
ATOM     24  C   UNL     1       1.164   3.874  -6.970  0.00  0.00    -0.010 C 
ATOM     25  C   UNL     1      -0.092   4.557  -6.426  0.00  0.00    +0.007 C 
ATOM     26  C   UNL     1       1.187   2.413  -6.517  0.00  0.00    +0.010 C 
ENDBRANCH  16  17
ENDBRANCH  15  16
ENDBRANCH  13  15
TORSDOF 3
