REMARK  Name = ZINC13064427
REMARK  10 active torsions:
REMARK  status: ('A' for Active; 'I' for Inactive)
REMARK    1  A    between atoms: C_1  and  C_2
REMARK    2  A    between atoms: C_2  and  C_3
REMARK    3  A    between atoms: C_3  and  C_5
REMARK    4  A    between atoms: C_3  and  N_69
REMARK    5  A    between atoms: N_9  and  C_10
REMARK    6  A    between atoms: C_10  and  C_11
REMARK    7  A    between atoms: C_17  and  C_18
REMARK    8  A    between atoms: C_17  and  N_69
REMARK    9  A    between atoms: C_24  and  C_25
REMARK   10  A    between atoms: C_24  and  N_69
REMARK                            x       y       z     vdW  Elec       q    Type
REMARK                         _______ _______ _______ _____ _____    ______ ____
ROOT
ATOM      1  N   UNL     1       1.007   6.046  -3.373  0.00  0.00    +0.392 N 
ATOM      2  H   UNL     1       1.458   6.133  -4.292  0.00  0.00    -0.080 HD
ENDROOT
BRANCH   1   3
ATOM      3  C   UNL     1       2.052   5.924  -2.335  0.00  0.00    +0.003 C 
BRANCH   3   4
ATOM      4  C   UNL     1       3.207   6.817  -2.708  0.00  0.00    +0.138 A 
ATOM      5  N   UNL     1       3.239   7.688  -3.687  0.00  0.00    -0.115 NA
ATOM      6  N   UNL     1       4.398   8.252  -3.681  0.00  0.00    -0.023 NA
ATOM      7  N   UNL     1       5.104   7.767  -2.719  0.00  0.00    -0.044 NA
ATOM      8  N   UNL     1       4.407   6.875  -2.100  0.00  0.00    -0.226 N 
BRANCH   8   9
ATOM      9  C   UNL     1       4.837   6.081  -0.947  0.00  0.00    +0.182 C 
BRANCH   9  10
ATOM     10  C   UNL     1       5.478   4.804  -1.428  0.00  0.00    -0.026 A 
ATOM     11  C   UNL     1       6.838   4.763  -1.672  0.00  0.00    +0.005 A 
ATOM     12  C   UNL     1       7.427   3.593  -2.113  0.00  0.00    +0.000 A 
ATOM     13  C   UNL     1       6.654   2.465  -2.316  0.00  0.00    +0.000 A 
ATOM     14  C   UNL     1       5.295   2.504  -2.067  0.00  0.00    +0.000 A 
ATOM     15  C   UNL     1       4.707   3.675  -1.625  0.00  0.00    +0.005 A 
ENDBRANCH   9  10
ENDBRANCH   8   9
ENDBRANCH   3   4
BRANCH   3  17
ATOM     16  C   UNL     1       0.268   5.505  -0.637  0.00  0.00    +0.002 C 
ATOM     17  C   UNL     1       1.501   6.346  -0.971  0.00  0.00    -0.011 C 
ENDBRANCH   3  17
ENDBRANCH   1   3
BRANCH   1  18
ATOM     18  C   UNL     1       0.151   4.841  -3.372  0.00  0.00    -0.042 C 
BRANCH  18  19
ATOM     19  C   UNL     1      -0.588   4.772  -4.684  0.00  0.00    -0.064 A 
ATOM     20  C   UNL     1      -1.910   5.170  -4.754  0.00  0.00    +0.002 A 
ATOM     21  C   UNL     1      -2.586   5.112  -5.958  0.00  0.00    +0.000 A 
ATOM     22  C   UNL     1      -1.944   4.645  -7.090  0.00  0.00    +0.000 A 
ATOM     23  C   UNL     1      -0.623   4.241  -7.018  0.00  0.00    +0.000 A 
ATOM     24  C   UNL     1       0.055   4.305  -5.815  0.00  0.00    +0.002 A 
ENDBRANCH  18  19
ENDBRANCH   1  18
BRANCH   1  25
ATOM     25  C   UNL     1       0.185   7.249  -3.125  0.00  0.00    -0.036 C 
BRANCH  25  26
ATOM     26  C   UNL     1       0.850   8.429  -3.786  0.00  0.00    +0.001 A 
ATOM     27  C   UNL     1       0.523   8.763  -5.060  0.00  0.00    +0.017 A 
ATOM     28  C   UNL     1       1.182   9.917  -5.671  0.00  0.00    +0.002 A 
ATOM     29  C   UNL     1       0.881  10.311  -6.981  0.00  0.00    +0.059 A 
ATOM     30  C   UNL     1       1.522  11.400  -7.533  0.00  0.00    +0.163 A 
ATOM     31  C   UNL     1       2.469  12.110  -6.790  0.00  0.00    +0.164 A 
ATOM     32  C   UNL     1       2.773  11.728  -5.495  0.00  0.00    +0.075 A 
ATOM     33  C   UNL     1       2.137  10.633  -4.924  0.00  0.00    +0.053 A 
ATOM     34  N   UNL     1       2.429  10.237  -3.635  0.00  0.00    -0.322 N 
ATOM     35  H   UNL     1       3.087  10.730  -3.121  0.00  0.00    +0.169 HD
ATOM     36  C   UNL     1       1.814   9.178  -3.080  0.00  0.00    +0.251 A 
ATOM     37  O   UNL     1       2.096   8.857  -1.939  0.00  0.00    -0.268 OA
ATOM     38  O   UNL     1       3.103  13.189  -7.326  0.00  0.00    -0.485 OA
ATOM     39  C   UNL     1       3.053  13.323  -8.750  0.00  0.00    +0.270 C 
ATOM     40  C   UNL     1       1.607  13.089  -9.206  0.00  0.00    +0.270 C 
ATOM     41  O   UNL     1       1.220  11.769  -8.809  0.00  0.00    -0.485 OA
ENDBRANCH  25  26
ENDBRANCH   1  25
TORSDOF 9
