REMARK  Name = ZINC27595982
REMARK  16 active torsions:
REMARK  status: ('A' for Active; 'I' for Inactive)
REMARK    1  A    between atoms: C_1  and  C_2
REMARK    2  A    between atoms: C_2  and  C_3
REMARK    3  A    between atoms: C_6  and  C_9
REMARK    4  A    between atoms: C_9  and  C_11
REMARK    5  A    between atoms: C_9  and  N_30
REMARK    6  A    between atoms: C_11  and  N_12
REMARK    7  A    between atoms: C_13  and  C_15
REMARK    8  A    between atoms: C_15  and  C_16
REMARK    9  A    between atoms: C_16  and  N_17
REMARK   10  A    between atoms: N_17  and  S_18
REMARK   11  A    between atoms: S_18  and  C_21
REMARK   12  A    between atoms: C_24  and  O_27
REMARK   13  A    between atoms: O_27  and  C_28
REMARK   14  A    between atoms: C_28  and  C_29
REMARK   15  A    between atoms: N_30  and  C_31
REMARK   16  A    between atoms: N_30  and  C_32
REMARK                            x       y       z     vdW  Elec       q    Type
REMARK                         _______ _______ _______ _____ _____    ______ ____
ROOT
ATOM      1  N   UNL     1      -2.020   4.531  -6.081  0.00  0.00    -0.317 N 
ATOM      2  C   UNL     1      -1.496   3.485  -5.412  0.00  0.00    +0.214 C 
ATOM      3  O   UNL     1      -1.215   3.596  -4.237  0.00  0.00    -0.276 OA
ATOM      4  H   UNL     1      -2.275   4.430  -7.146  0.00  0.00    +0.149 HD
ENDROOT
BRANCH   1   5
ATOM      5  C   UNL     1      -2.249   5.802  -5.390  0.00  0.00    +0.093 C 
BRANCH   5   6
ATOM      6  C   UNL     1      -2.734   6.849  -6.395  0.00  0.00    -0.021 C 
BRANCH   6  10
ATOM      7  C   UNL     1      -3.666  10.475  -4.338  0.00  0.00    -0.048 A 
ATOM      8  C   UNL     1      -2.892  10.509  -5.483  0.00  0.00    +0.004 A 
ATOM      9  C   UNL     1      -2.591   9.336  -6.148  0.00  0.00    +0.002 A 
ATOM     10  C   UNL     1      -3.063   8.128  -5.669  0.00  0.00    -0.059 A 
ATOM     11  C   UNL     1      -3.841   8.095  -4.527  0.00  0.00    +0.002 A 
ATOM     12  C   UNL     1      -4.138   9.267  -3.858  0.00  0.00    +0.004 A 
BRANCH   7  14
ATOM     13  C   UNL     1      -5.297  12.334  -4.167  0.00  0.00    +0.009 C 
ATOM     14  C   UNL     1      -3.995  11.754  -3.612  0.00  0.00    +0.032 C 
ENDBRANCH   7  14
ENDBRANCH   6  10
BRANCH   6  15
ATOM     15  N   UNL     1      -3.936   6.352  -7.079  0.00  0.00    +0.382 N 
ATOM     16  C   UNL     1      -5.070   6.259  -6.150  0.00  0.00    -0.096 C 
ATOM     17  C   UNL     1      -4.270   7.194  -8.235  0.00  0.00    -0.096 C 
ATOM     18  H   UNL     1      -3.719   5.339  -7.450  0.00  0.00    -0.082 HD
ENDBRANCH   6  15
ENDBRANCH   5   6
ENDBRANCH   1   5
BRANCH   2  19
ATOM     19  C   UNL     1      -1.260   2.177  -6.123  0.00  0.00    +0.112 C 
BRANCH  19  20
ATOM     20  C   UNL     1      -0.664   1.165  -5.143  0.00  0.00    +0.115 C 
BRANCH  20  21
ATOM     21  N   UNL     1      -0.435  -0.107  -5.834  0.00  0.00    -0.189 NA
ATOM     22  H   UNL     1      -1.028  -0.364  -6.724  0.00  0.00    +0.148 HD
BRANCH  21  23
ATOM     23  S   UNL     1       0.533  -1.261  -5.146  0.00  0.00    +0.058 S 
ATOM     24  O   UNL     1       0.535  -2.371  -6.033  0.00  0.00    -0.153 OA
ATOM     25  O   UNL     1       1.727  -0.603  -4.745  0.00  0.00    -0.153 OA
BRANCH  23  26
ATOM     26  C   UNL     1      -0.267  -1.798  -3.670  0.00  0.00    +0.105 A 
ATOM     27  C   UNL     1      -0.002  -1.161  -2.471  0.00  0.00    +0.032 A 
ATOM     28  C   UNL     1      -0.632  -1.577  -1.314  0.00  0.00    +0.047 A 
ATOM     29  C   UNL     1      -1.521  -2.640  -1.353  0.00  0.00    +0.121 A 
ATOM     30  C   UNL     1      -1.781  -3.281  -2.556  0.00  0.00    +0.047 A 
ATOM     31  C   UNL     1      -1.153  -2.858  -3.712  0.00  0.00    +0.032 A 
BRANCH  29  32
ATOM     32  O   UNL     1      -2.138  -3.054  -0.215  0.00  0.00    -0.492 OA
BRANCH  32  33
ATOM     33  C   UNL     1      -1.823  -2.348   0.987  0.00  0.00    +0.225 C 
ATOM     34  C   UNL     1      -2.608  -2.952   2.154  0.00  0.00    +0.048 C 
ENDBRANCH  32  33
ENDBRANCH  29  32
ENDBRANCH  23  26
ENDBRANCH  21  23
ENDBRANCH  20  21
ENDBRANCH  19  20
ENDBRANCH   2  19
TORSDOF 12
