REMARK  Name = ZINC30729497
REMARK  0 active torsions:
REMARK  status: ('A' for Active; 'I' for Inactive)
REMARK                            x       y       z     vdW  Elec       q    Type
REMARK                         _______ _______ _______ _____ _____    ______ ____
ROOT
ATOM      1  C   UNL     1      -0.792   1.612   1.238  0.00  0.00    +0.029 C 
ATOM      2  C   UNL     1      -0.013   1.086   0.008  0.00  0.00    +0.048 C 
ATOM      3  C   UNL     1      -0.797   1.613  -1.173  0.00  0.00    +0.077 C 
ATOM      4  N   UNL     1      -1.957   2.001  -0.820  0.00  0.00    -0.296 NA
ATOM      5  C   UNL     1      -2.197   1.824   0.616  0.00  0.00    +0.141 C 
ENDROOT
TORSDOF 0
