REMARK  Name = ZINC43221532
REMARK  11 active torsions:
REMARK  status: ('A' for Active; 'I' for Inactive)
REMARK    1  A    between atoms: C_1  and  C_2
REMARK    2  A    between atoms: C_2  and  C_3
REMARK    3  A    between atoms: C_7  and  C_40
REMARK    4  A    between atoms: C_8  and  N_9
REMARK    5  A    between atoms: C_14  and  C_31
REMARK    6  A    between atoms: C_17  and  C_22
REMARK    7  A    between atoms: C_17  and  C_28
REMARK    8  A    between atoms: C_34  and  N_37
REMARK    9  A    between atoms: N_37  and  C_38
REMARK   10  A    between atoms: N_37  and  C_39
REMARK   11  A    between atoms: C_40  and  C_41
REMARK                            x       y       z     vdW  Elec       q    Type
REMARK                         _______ _______ _______ _____ _____    ______ ____
ROOT
ATOM      1  N   UNL     1      -1.372  -0.033  -2.322  0.00  0.00    -0.209 N 
ATOM      2  C   UNL     1      -1.368   1.160  -3.001  0.00  0.00    +0.229 C 
ATOM      3  O   UNL     1      -1.662   2.256  -2.572  0.00  0.00    -0.275 OA
ATOM      4  C   UNL     1      -0.938   0.824  -4.335  0.00  0.00    +0.078 C 
ATOM      5  C   UNL     1      -0.351   1.451  -5.532  0.00  0.00    -0.026 C 
ATOM      6  N   UNL     1      -0.010   0.255  -6.378  0.00  0.00    +0.398 N 
ATOM      7  C   UNL     1       0.128  -0.923  -5.470  0.00  0.00    +0.074 C 
ATOM      8  C   UNL     1       0.100  -0.333  -4.052  0.00  0.00    +0.090 C 
ATOM      9  C   UNL     1      -0.718  -1.025  -2.997  0.00  0.00    +0.229 C 
ATOM     10  O   UNL     1      -0.784  -2.218  -2.789  0.00  0.00    -0.275 OA
ATOM     11  H   UNL     1      -0.748   0.087  -7.045  0.00  0.00    -0.083 HD
ATOM     12  H   UNL     1       0.860   0.416  -6.863  0.00  0.00    -0.083 HD
ENDROOT
BRANCH   1  18
ATOM     13  C   UNL     1      -1.250   0.007   0.091  0.00  0.00    -0.026 A 
ATOM     14  C   UNL     1      -1.850  -0.166   1.323  0.00  0.00    +0.005 A 
ATOM     15  C   UNL     1      -3.172  -0.564   1.400  0.00  0.00    +0.001 A 
ATOM     16  C   UNL     1      -3.897  -0.790   0.244  0.00  0.00    +0.005 A 
ATOM     17  C   UNL     1      -3.302  -0.618  -0.990  0.00  0.00    -0.026 A 
ATOM     18  C   UNL     1      -1.977  -0.214  -1.071  0.00  0.00    +0.050 A 
BRANCH  13  20
ATOM     19  C   UNL     1       0.258   1.961  -0.147  0.00  0.00    +0.009 C 
ATOM     20  C   UNL     1       0.191   0.441   0.008  0.00  0.00    +0.033 C 
ENDBRANCH  13  20
BRANCH  17  21
ATOM     21  C   UNL     1      -4.093  -0.864  -2.249  0.00  0.00    +0.033 C 
ATOM     22  C   UNL     1      -3.846  -2.293  -2.736  0.00  0.00    +0.009 C 
ENDBRANCH  17  21
ENDBRANCH   1  18
BRANCH   7  23
ATOM     23  C   UNL     1      -1.014  -1.883  -5.684  0.00  0.00    -0.047 A 
ATOM     24  C   UNL     1      -0.830  -3.235  -5.463  0.00  0.00    +0.003 A 
ATOM     25  C   UNL     1      -1.877  -4.116  -5.659  0.00  0.00    +0.000 A 
ATOM     26  C   UNL     1      -3.108  -3.645  -6.077  0.00  0.00    +0.000 A 
ATOM     27  C   UNL     1      -3.291  -2.293  -6.298  0.00  0.00    +0.000 A 
ATOM     28  C   UNL     1      -2.246  -1.411  -6.098  0.00  0.00    +0.003 A 
ENDBRANCH   7  23
BRANCH   5  29
ATOM     29  C   UNL     1      -1.357   2.333  -6.226  0.00  0.00    -0.060 A 
ATOM     30  C   UNL     1      -2.198   1.798  -7.185  0.00  0.00    +0.004 A 
ATOM     31  C   UNL     1      -3.121   2.603  -7.823  0.00  0.00    +0.023 A 
ATOM     32  C   UNL     1      -3.203   3.952  -7.501  0.00  0.00    +0.029 A 
ATOM     33  C   UNL     1      -2.356   4.486  -6.538  0.00  0.00    +0.023 A 
ATOM     34  C   UNL     1      -1.440   3.674  -5.900  0.00  0.00    +0.004 A 
BRANCH  32  35
ATOM     35  N   UNL     1      -4.135   4.769  -8.145  0.00  0.00    -0.336 N 
ATOM     36  C   UNL     1      -5.105   4.184  -9.073  0.00  0.00    +0.129 C 
ATOM     37  C   UNL     1      -4.141   6.212  -7.892  0.00  0.00    +0.129 C 
ENDBRANCH  32  35
ENDBRANCH   5  29
BRANCH   7  38
ATOM     38  C   UNL     1       1.445  -1.615  -5.709  0.00  0.00    +0.350 C 
ATOM     39  O   UNL     1       2.203  -1.202  -6.570  0.00  0.00    -0.248 OA
ATOM     40  O   UNL     1       1.753  -2.587  -5.041  0.00  0.00    -0.248 OA
ENDBRANCH   7  38
TORSDOF 7
