REMARK  Name = ZINC12450557
REMARK  9 active torsions:
REMARK  status: ('A' for Active; 'I' for Inactive)
REMARK    1  A    between atoms: C_1  and  C_2
REMARK    2  A    between atoms: C_2  and  C_3
REMARK    3  A    between atoms: C_2  and  O_4
REMARK    4  A    between atoms: O_4  and  C_5
REMARK    5  A    between atoms: C_5  and  C_6
REMARK    6  A    between atoms: C_6  and  N_57
REMARK    7  A    between atoms: C_7  and  N_57
REMARK    8  A    between atoms: N_18  and  C_21
REMARK    9  A    between atoms: C_21  and  C_22
REMARK                            x       y       z     vdW  Elec       q    Type
REMARK                         _______ _______ _______ _____ _____    ______ ____
ROOT
ATOM      1  C   UNL     1       5.279   0.645  -0.423  0.00  0.00    -0.067 C 
ATOM      2  C   UNL     1       4.351  -0.236   0.418  0.00  0.00    -0.011 C 
ATOM      3  C   UNL     1       2.901  -0.038  -0.027  0.00  0.00    +0.035 C 
ATOM      4  C   UNL     1       2.582   1.454  -0.015  0.00  0.00    -0.023 A 
ATOM      5  C   UNL     1       3.572   2.371  -0.019  0.00  0.00    -0.006 A 
ATOM      6  S   UNL     1       2.747   3.939  -0.002  0.00  0.00    -0.073 S 
ATOM      7  C   UNL     1       1.070   3.357   0.010  0.00  0.00    +0.116 A 
ATOM      8  C   UNL     1       1.210   1.960   0.001  0.00  0.00    +0.076 A 
ATOM      9  C   UNL     1      -0.015   1.215   0.009  0.00  0.00    +0.263 A 
ATOM     10  O   UNL     1       0.002  -0.004   0.002  0.00  0.00    -0.267 OA
ATOM     11  N   UNL     1      -1.183   1.883   0.018  0.00  0.00    -0.294 N 
ATOM     12  C   UNL     1      -1.220   3.240   0.030  0.00  0.00    +0.203 A 
ATOM     13  N   UNL     1      -0.122   3.947   0.024  0.00  0.00    -0.230 NA
ATOM     14  C   UNL     1       5.048   2.112  -0.035  0.00  0.00    +0.027 C 
ENDROOT
BRANCH   1  15
ATOM     15  N   UNL     1       6.681   0.275  -0.151  0.00  0.00    +0.383 N 
ATOM     16  H   UNL     1       7.008   0.777   0.683  0.00  0.00    -0.085 HD
ATOM     17  H   UNL     1       6.738  -0.737   0.015  0.00  0.00    -0.085 HD
BRANCH  15  18
ATOM     18  C   UNL     1       7.536   0.629  -1.299  0.00  0.00    -0.054 C 
BRANCH  18  19
ATOM     19  C   UNL     1       8.981   0.234  -0.988  0.00  0.00    +0.141 C 
BRANCH  19  20
ATOM     20  O   UNL     1       9.072  -1.187  -0.869  0.00  0.00    -0.379 OA
BRANCH  20  22
ATOM     21  C   UNL     1      10.293  -2.957   0.233  0.00  0.00    +0.037 C 
ATOM     22  C   UNL     1      10.387  -1.663  -0.578  0.00  0.00    +0.112 C 
ATOM     23  C   UNL     1      11.132  -1.934  -1.887  0.00  0.00    +0.037 C 
ENDBRANCH  20  22
ENDBRANCH  19  20
ENDBRANCH  18  19
ENDBRANCH  15  18
ENDBRANCH   1  15
BRANCH  11  24
ATOM     24  C   UNL     1      -2.440   1.131   0.020  0.00  0.00    +0.168 C 
BRANCH  24  25
ATOM     25  C   UNL     1      -2.864   0.865   1.441  0.00  0.00    +0.011 A 
ATOM     26  C   UNL     1      -3.639   1.623   2.231  0.00  0.00    +0.021 A 
ATOM     27  C   UNL     1      -3.928   1.175   3.586  0.00  0.00    -0.010 A 
ATOM     28  C   UNL     1      -4.713   1.808   4.579  0.00  0.00    +0.009 A 
ATOM     29  C   UNL     1      -4.877   1.238   5.802  0.00  0.00    +0.001 A 
ATOM     30  C   UNL     1      -4.286   0.023   6.123  0.00  0.00    +0.001 A 
ATOM     31  C   UNL     1      -3.513  -0.626   5.181  0.00  0.00    +0.015 A 
ATOM     32  C   UNL     1      -3.339  -0.059   3.937  0.00  0.00    +0.020 A 
ATOM     33  S   UNL     1      -2.462  -0.534   2.470  0.00  0.00    -0.091 S 
ENDBRANCH  24  25
ENDBRANCH  11  24
TORSDOF 7
