REMARK  Name = ZINC08788486
REMARK  9 active torsions:
REMARK  status: ('A' for Active; 'I' for Inactive)
REMARK    1  A    between atoms: C_1  and  C_2
REMARK    2  A    between atoms: C_2  and  C_3
REMARK    3  A    between atoms: C_9  and  C_10
REMARK    4  A    between atoms: C_9  and  N_59
REMARK    5  A    between atoms: C_11  and  O_33
REMARK    6  A    between atoms: C_17  and  C_29
REMARK    7  A    between atoms: C_18  and  O_21
REMARK    8  A    between atoms: O_21  and  C_22
REMARK    9  A    between atoms: C_25  and  C_28
REMARK                            x       y       z     vdW  Elec       q    Type
REMARK                         _______ _______ _______ _____ _____    ______ ____
ROOT
ATOM      1  C   UNL     1      -1.342   5.005   0.175  0.00  0.00    +0.020 A 
ATOM      2  C   UNL     1      -2.412   5.771  -0.257  0.00  0.00    +0.122 A 
ATOM      3  C   UNL     1      -2.385   7.159  -0.138  0.00  0.00    +0.046 A 
ATOM      4  C   UNL     1      -1.300   7.784   0.409  0.00  0.00    +0.019 A 
ATOM      5  C   UNL     1      -0.215   7.027   0.850  0.00  0.00    +0.068 A 
ATOM      6  C   UNL     1      -0.235   5.625   0.738  0.00  0.00    +0.144 A 
ATOM      7  O   UNL     1       0.822   4.904   1.162  0.00  0.00    -0.447 OA
ATOM      8  C   UNL     1       1.907   5.471   1.705  0.00  0.00    +0.254 A 
ATOM      9  C   UNL     1       2.030   6.804   1.865  0.00  0.00    +0.222 A 
ATOM     10  C   UNL     1       0.974   7.662   1.445  0.00  0.00    +0.235 A 
ATOM     11  O   UNL     1       1.049   8.873   1.574  0.00  0.00    -0.283 OA
ENDROOT
BRANCH   8  12
ATOM     12  C   UNL     1       3.037   4.583   2.156  0.00  0.00    +0.454 C 
ATOM     13  F   UNL     1       2.838   4.216   3.491  0.00  0.00    -0.163 F 
ATOM     14  F   UNL     1       3.076   3.435   1.358  0.00  0.00    -0.163 F 
ATOM     15  F   UNL     1       4.248   5.274   2.039  0.00  0.00    -0.163 F 
ENDBRANCH   8  12
BRANCH   2  16
ATOM     16  O   UNL     1      -3.496   5.164  -0.803  0.00  0.00    -0.506 OA
ATOM     17  H   UNL     1      -4.179   4.926  -0.161  0.00  0.00    +0.292 HD
ENDBRANCH   2  16
BRANCH   1  18
ATOM     18  C   UNL     1      -1.382   3.505   0.041  0.00  0.00    -0.035 C 
BRANCH  18  24
ATOM     19  C   UNL     1      -0.707   1.654  -1.365  0.00  0.00    -0.068 C 
ATOM     20  C   UNL     1       0.016   1.291  -2.665  0.00  0.00    -0.015 C 
ATOM     21  C   UNL     1      -0.770   1.850  -3.854  0.00  0.00    -0.003 C 
ATOM     22  C   UNL     1      -0.914   3.366  -3.693  0.00  0.00    -0.019 C 
ATOM     23  C   UNL     1      -1.609   3.669  -2.364  0.00  0.00    -0.078 C 
ATOM     24  N   UNL     1      -0.791   3.126  -1.259  0.00  0.00    +0.384 N 
ATOM     25  H   UNL     1       0.156   3.519  -1.321  0.00  0.00    -0.081 HD
BRANCH  19  27
ATOM     26  C   UNL     1       0.144  -0.413  -0.249  0.00  0.00    +0.002 C 
ATOM     27  C   UNL     1       0.086   1.114  -0.173  0.00  0.00    -0.019 C 
ENDBRANCH  19  27
ENDBRANCH  18  24
ENDBRANCH   1  18
BRANCH   9  28
ATOM     28  O   UNL     1       3.156   7.327   2.422  0.00  0.00    -0.448 OA
BRANCH  28  29
ATOM     29  C   UNL     1       3.185   7.488   3.771  0.00  0.00    +0.129 A 
ATOM     30  C   UNL     1       2.084   7.129   4.537  0.00  0.00    +0.046 A 
ATOM     31  C   UNL     1       2.118   7.290   5.909  0.00  0.00    +0.007 A 
ATOM     32  C   UNL     1       3.242   7.816   6.517  0.00  0.00    -0.050 A 
ATOM     33  C   UNL     1       4.338   8.179   5.756  0.00  0.00    +0.007 A 
ATOM     34  C   UNL     1       4.311   8.017   4.384  0.00  0.00    +0.046 A 
ATOM     35  C   UNL     1       3.273   7.995   8.013  0.00  0.00    +0.044 C 
ENDBRANCH  28  29
ENDBRANCH   9  28
TORSDOF 7
