REMARK  Name = ZINC12798474
REMARK  7 active torsions:
REMARK  status: ('A' for Active; 'I' for Inactive)
REMARK    1  A    between atoms: C_4  and  O_35
REMARK    2  A    between atoms: C_5  and  N_7
REMARK    3  A    between atoms: C_8  and  C_10
REMARK    4  A    between atoms: N_13  and  C_16
REMARK    5  A    between atoms: N_21  and  C_24
REMARK    6  A    between atoms: C_27  and  O_30
REMARK    7  A    between atoms: O_30  and  C_31
REMARK                            x       y       z     vdW  Elec       q    Type
REMARK                         _______ _______ _______ _____ _____    ______ ____
ROOT
ATOM      1  C   UNL     1       0.114  -4.284   0.207  0.00  0.00    +0.072 C 
ATOM      2  C   UNL     1       0.769  -4.865  -1.049  0.00  0.00    -0.006 C 
ATOM      3  C   UNL     1       0.728  -6.393  -0.979  0.00  0.00    -0.077 C 
ATOM      4  N   UNL     1      -0.666  -6.845  -0.898  0.00  0.00    +0.388 N 
ATOM      5  C   UNL     1      -1.279  -6.351   0.340  0.00  0.00    -0.077 C 
ATOM      6  C   UNL     1      -1.315  -4.821   0.321  0.00  0.00    -0.006 C 
ATOM      7  H   UNL     1      -1.180  -6.491  -1.691  0.00  0.00    -0.081 HD
ENDROOT
BRANCH   4   8
ATOM      8  C   UNL     1      -0.704  -8.314  -0.910  0.00  0.00    +0.029 C 
ATOM      9  C   UNL     1      -0.123  -8.861  -2.229  0.00  0.00    +0.090 C 
ATOM     10  C   UNL     1      -1.285  -9.609  -2.846  0.00  0.00    +0.225 C 
ATOM     11  O   UNL     1      -1.258 -10.199  -3.904  0.00  0.00    -0.275 OA
ATOM     12  N   UNL     1      -2.348  -9.515  -2.037  0.00  0.00    -0.212 N 
ATOM     13  C   UNL     1      -2.134  -8.809  -0.915  0.00  0.00    +0.213 C 
ATOM     14  O   UNL     1      -2.952  -8.601  -0.046  0.00  0.00    -0.277 OA
BRANCH  12  15
ATOM     15  C   UNL     1      -3.584 -10.108  -2.335  0.00  0.00    +0.044 A 
ATOM     16  C   UNL     1      -3.695 -11.491  -2.392  0.00  0.00    +0.027 A 
ATOM     17  C   UNL     1      -4.912 -12.074  -2.685  0.00  0.00    +0.048 A 
ATOM     18  C   UNL     1      -6.024 -11.278  -2.923  0.00  0.00    +0.130 A 
ATOM     19  C   UNL     1      -5.913  -9.896  -2.866  0.00  0.00    +0.048 A 
ATOM     20  C   UNL     1      -4.697  -9.312  -2.568  0.00  0.00    +0.027 A 
BRANCH  18  21
ATOM     21  O   UNL     1      -7.221 -11.852  -3.212  0.00  0.00    -0.406 OA
BRANCH  21  22
ATOM     22  C   UNL     1      -8.323 -10.973  -3.445  0.00  0.00    +0.575 C 
ATOM     23  F   UNL     1      -8.034 -10.141  -4.532  0.00  0.00    -0.133 F 
ATOM     24  F   UNL     1      -9.469 -11.725  -3.726  0.00  0.00    -0.133 F 
ATOM     25  F   UNL     1      -8.546 -10.192  -2.306  0.00  0.00    -0.133 F 
ENDBRANCH  21  22
ENDBRANCH  18  21
ENDBRANCH  12  15
ENDBRANCH   4   8
BRANCH   1  27
ATOM     26  N   UNL     1       1.231  -2.087   0.000  0.00  0.00    -0.282 N 
ATOM     27  C   UNL     1       0.081  -2.780   0.109  0.00  0.00    +0.220 C 
ATOM     28  O   UNL     1      -0.981  -2.195   0.128  0.00  0.00    -0.275 OA
ATOM     29  H   UNL     1       2.076  -2.557  -0.079  0.00  0.00    +0.155 HD
BRANCH  26  34
ATOM     30  C   UNL     1       0.127   1.374  -0.582  0.00  0.00    +0.002 A 
ATOM     31  C   UNL     1       1.159   2.084   0.002  0.00  0.00    +0.004 A 
ATOM     32  C   UNL     1       2.218   1.416   0.588  0.00  0.00    +0.047 A 
ATOM     33  C   UNL     1       2.247   0.030   0.590  0.00  0.00    +0.138 A 
ATOM     34  C   UNL     1       1.207  -0.685   0.002  0.00  0.00    +0.075 A 
ATOM     35  C   UNL     1       0.148  -0.008  -0.584  0.00  0.00    +0.027 A 
BRANCH  33  36
ATOM     36  O   UNL     1       3.289  -0.629   1.164  0.00  0.00    -0.505 OA
ATOM     37  H   UNL     1       3.160  -0.827   2.102  0.00  0.00    +0.292 HD
ENDBRANCH  33  36
ENDBRANCH  26  34
ENDBRANCH   1  27
TORSDOF 7
