REMARK  Name = ZINC09812149
REMARK  8 active torsions:
REMARK  status: ('A' for Active; 'I' for Inactive)
REMARK    1  A    between atoms: C_1  and  C_2
REMARK    2  A    between atoms: C_3  and  C_15
REMARK    3  A    between atoms: N_5  and  C_7
REMARK    4  A    between atoms: C_15  and  O_17
REMARK    5  A    between atoms: O_17  and  C_18
REMARK    6  A    between atoms: C_18  and  C_19
REMARK    7  A    between atoms: N_21  and  C_22
REMARK    8  A    between atoms: C_23  and  C_30
REMARK                            x       y       z     vdW  Elec       q    Type
REMARK                         _______ _______ _______ _____ _____    ______ ____
ROOT
ATOM      1  C   UNL     1       1.121   3.579   0.011  0.00  0.00    +0.328 C 
ENDROOT
BRANCH   1   2
ATOM      2  C   UNL     1       1.141   2.072   0.002  0.00  0.00    +0.255 C 
ATOM      3  O   UNL     1       2.200   1.480  -0.011  0.00  0.00    -0.272 OA
ATOM      4  N   UNL     1      -0.017   1.382   0.010  0.00  0.00    -0.277 N 
ATOM      5  H   UNL     1      -0.863   1.856   0.016  0.00  0.00    +0.155 HD
BRANCH   4   6
ATOM      6  C   UNL     1       0.002  -0.004   0.002  0.00  0.00    +0.084 A 
ATOM      7  C   UNL     1      -1.071  -0.879   0.013  0.00  0.00    +0.068 A 
ATOM      8  C   UNL     1      -0.776  -2.312  -0.003  0.00  0.00    -0.023 A 
ATOM      9  C   UNL     1       0.532  -2.626  -0.017  0.00  0.00    -0.004 A 
ATOM     10  S   UNL     1       1.372  -1.061  -0.016  0.00  0.00    -0.077 S 
ATOM     11  C   UNL     1       0.754  -4.114  -0.030  0.00  0.00    +0.043 C 
ATOM     12  C   UNL     1      -0.606  -4.707  -0.459  0.00  0.00    +0.010 C 
ATOM     13  C   UNL     1      -1.586  -3.609  -0.000  0.00  0.00    +0.037 C 
BRANCH   7  14
ATOM     14  C   UNL     1      -2.452  -0.388   0.036  0.00  0.00    +0.244 C 
ATOM     15  O   UNL     1      -3.041  -0.178  -1.008  0.00  0.00    -0.270 OA
ATOM     16  N   UNL     1      -3.069  -0.167   1.214  0.00  0.00    -0.325 N 
ATOM     17  H   UNL     1      -2.600  -0.334   2.046  0.00  0.00    +0.145 HD
ATOM     18  H   UNL     1      -3.983   0.158   1.229  0.00  0.00    +0.145 HD
ENDBRANCH   7  14
ENDBRANCH   4   6
ENDBRANCH   1   2
BRANCH   1  19
ATOM     19  O   UNL     1       2.483   4.082   0.000  0.00  0.00    -0.452 OA
BRANCH  19  20
ATOM     20  C   UNL     1       2.641   5.420   0.006  0.00  0.00    +0.344 C 
ATOM     21  O   UNL     1       1.668   6.147   0.019  0.00  0.00    -0.245 OA
BRANCH  20  24
ATOM     22  C   UNL     1       4.327   6.155  -2.580  0.00  0.00    +0.068 C 
ATOM     23  C   UNL     1       4.756   6.333  -1.147  0.00  0.00    +0.076 A 
ATOM     24  C   UNL     1       3.993   6.001  -0.004  0.00  0.00    +0.118 A 
ATOM     25  C   UNL     1       4.759   6.319   1.104  0.00  0.00    +0.147 A 
ATOM     26  N   UNL     1       5.923   6.823   0.654  0.00  0.00    -0.220 N 
ATOM     27  N   UNL     1       5.896   6.824  -0.745  0.00  0.00    -0.169 NA
ATOM     28 CL   UNL     1       4.303   6.107   2.765  0.00  0.00    -0.061 Cl
BRANCH  26  29
ATOM     29  C   UNL     1       6.985   7.271   1.453  0.00  0.00    +0.067 A 
ATOM     30  C   UNL     1       6.726   7.904   2.662  0.00  0.00    +0.030 A 
ATOM     31  C   UNL     1       7.773   8.341   3.450  0.00  0.00    +0.040 A 
ATOM     32  C   UNL     1       9.080   8.156   3.030  0.00  0.00    +0.124 A 
ATOM     33  C   UNL     1       9.340   7.530   1.823  0.00  0.00    +0.040 A 
ATOM     34  C   UNL     1       8.296   7.088   1.034  0.00  0.00    +0.030 A 
ATOM     35  F   UNL     1      10.103   8.589   3.800  0.00  0.00    -0.205 F 
ENDBRANCH  26  29
ENDBRANCH  20  24
ENDBRANCH  19  20
ENDBRANCH   1  19
TORSDOF 7
