REMARK  Name = ZINC36508349
REMARK  14 active torsions:
REMARK  status: ('A' for Active; 'I' for Inactive)
REMARK    1  A    between atoms: C_1  and  C_2
REMARK    2  A    between atoms: C_2  and  C_3
REMARK    3  A    between atoms: C_3  and  C_4
REMARK    4  A    between atoms: C_4  and  C_5
REMARK    5  A    between atoms: C_5  and  C_6
REMARK    6  A    between atoms: C_6  and  N_7
REMARK    7  A    between atoms: N_7  and  C_8
REMARK    8  A    between atoms: C_8  and  C_10
REMARK    9  A    between atoms: C_8  and  C_19
REMARK   10  A    between atoms: C_11  and  O_18
REMARK   11  A    between atoms: C_13  and  O_17
REMARK   12  A    between atoms: C_15  and  O_16
REMARK   13  A    between atoms: N_21  and  C_22
REMARK   14  A    between atoms: C_28  and  C_30
REMARK                            x       y       z     vdW  Elec       q    Type
REMARK                         _______ _______ _______ _____ _____    ______ ____
ROOT
ATOM      1  C   UNL     1       3.781  -4.231  -3.394  0.00  0.00    +0.199 C 
ENDROOT
BRANCH   1   2
ATOM      2  C   UNL     1       4.316  -5.632  -3.551  0.00  0.00    +0.065 A 
ATOM      3  C   UNL     1       5.676  -5.840  -3.717  0.00  0.00    +0.129 A 
ATOM      4  C   UNL     1       6.168  -7.129  -3.862  0.00  0.00    +0.091 A 
ATOM      5  C   UNL     1       5.299  -8.209  -3.839  0.00  0.00    +0.124 A 
ATOM      6  C   UNL     1       3.938  -8.001  -3.671  0.00  0.00    +0.091 A 
ATOM      7  C   UNL     1       3.447  -6.712  -3.522  0.00  0.00    +0.129 A 
BRANCH   7   8
ATOM      8  O   UNL     1       2.114  -6.508  -3.354  0.00  0.00    -0.506 OA
ATOM      9  H   UNL     1       1.591  -6.642  -4.156  0.00  0.00    +0.292 HD
ENDBRANCH   7   8
BRANCH   5  10
ATOM     10  O   UNL     1       5.780  -9.472  -3.981  0.00  0.00    -0.507 OA
ATOM     11  H   UNL     1       6.019  -9.898  -3.146  0.00  0.00    +0.292 HD
ENDBRANCH   5  10
BRANCH   3  12
ATOM     12  O   UNL     1       6.528  -4.782  -3.740  0.00  0.00    -0.506 OA
ATOM     13  H   UNL     1       6.932  -4.583  -2.884  0.00  0.00    +0.292 HD
ENDBRANCH   3  12
ENDBRANCH   1   2
BRANCH   1  14
ATOM     14  C   UNL     1       3.870  -3.509  -4.714  0.00  0.00    +0.239 C 
ATOM     15  O   UNL     1       2.858  -3.144  -5.274  0.00  0.00    -0.273 OA
ATOM     16  N   UNL     1       5.074  -3.269  -5.271  0.00  0.00    -0.311 N 
ATOM     17  H   UNL     1       5.877  -3.633  -4.866  0.00  0.00    +0.149 HD
BRANCH  16  18
ATOM     18  C   UNL     1       5.169  -2.459  -6.488  0.00  0.00    +0.073 C 
ATOM     19  C   UNL     1       4.943  -3.348  -7.712  0.00  0.00    +0.022 C 
ATOM     20  C   UNL     1       5.043  -2.502  -8.982  0.00  0.00    +0.002 C 
ATOM     21  C   UNL     1       6.431  -1.865  -9.064  0.00  0.00    +0.000 C 
ATOM     22  C   UNL     1       6.657  -0.976  -7.840  0.00  0.00    +0.002 C 
ATOM     23  C   UNL     1       6.558  -1.822  -6.569  0.00  0.00    +0.022 C 
ENDBRANCH  16  18
ENDBRANCH   1  14
BRANCH   1  24
ATOM     24  N   UNL     1       2.383  -4.288  -2.961  0.00  0.00    -0.285 N 
ATOM     25  C   UNL     1       1.408  -4.524  -3.861  0.00  0.00    +0.220 C 
ATOM     26  O   UNL     1       1.694  -4.808  -5.005  0.00  0.00    -0.275 OA
BRANCH  25  27
ATOM     27  C   UNL     1      -0.038  -4.436  -3.446  0.00  0.00    +0.075 C 
ATOM     28  C   UNL     1      -0.469  -5.761  -2.813  0.00  0.00    +0.013 C 
ATOM     29  C   UNL     1      -1.937  -5.672  -2.392  0.00  0.00    +0.001 C 
ATOM     30  C   UNL     1      -2.803  -5.388  -3.621  0.00  0.00    +0.000 C 
ATOM     31  C   UNL     1      -2.373  -4.063  -4.253  0.00  0.00    +0.001 C 
ATOM     32  C   UNL     1      -0.905  -4.153  -4.675  0.00  0.00    +0.013 C 
ENDBRANCH  25  27
BRANCH  24  33
ATOM     33  C   UNL     1       2.044  -4.087  -1.550  0.00  0.00    +0.109 C 
BRANCH  33  34
ATOM     34  C   UNL     1       1.921  -2.589  -1.263  0.00  0.00    +0.019 C 
BRANCH  34  35
ATOM     35  C   UNL     1       1.568  -2.379   0.210  0.00  0.00    +0.002 C 
BRANCH  35  36
ATOM     36  C   UNL     1       1.445  -0.881   0.497  0.00  0.00    -0.000 C 
BRANCH  36  38
ATOM     37  C   UNL     1       0.968   0.826   2.258  0.00  0.00    +0.004 C 
ATOM     38  C   UNL     1       1.091  -0.672   1.971  0.00  0.00    -0.003 C 
ENDBRANCH  36  38
ENDBRANCH  35  36
ENDBRANCH  34  35
ENDBRANCH  33  34
ENDBRANCH  24  33
ENDBRANCH   1  24
TORSDOF 13
