REMARK  Name = ZINC19845487
REMARK  4 active torsions:
REMARK  status: ('A' for Active; 'I' for Inactive)
REMARK    1  A    between atoms: C_1  and  C_2
REMARK    2  A    between atoms: C_7  and  S_10
REMARK    3  A    between atoms: S_10  and  C_11
REMARK    4  A    between atoms: C_11  and  C_12
REMARK                            x       y       z     vdW  Elec       q    Type
REMARK                         _______ _______ _______ _____ _____    ______ ____
ROOT
ATOM      1  C   UNL     1      -0.013   1.086   0.008  0.00  0.00    +0.066 C 
ATOM      2  C   UNL     1      -0.742   1.585  -1.213  0.00  0.00    +0.046 A 
ATOM      3  C   UNL     1      -2.090   1.794  -1.164  0.00  0.00    +0.093 A 
ATOM      4  C   UNL     1      -2.748   2.260  -2.315  0.00  0.00    +0.252 A 
ATOM      5  O   UNL     1      -3.952   2.457  -2.306  0.00  0.00    -0.268 OA
ATOM      6  N   UNL     1      -2.023   2.485  -3.431  0.00  0.00    -0.302 N 
ATOM      7  C   UNL     1      -0.680   2.259  -3.422  0.00  0.00    +0.169 A 
ATOM      8  N   UNL     1      -0.069   1.827  -2.335  0.00  0.00    -0.228 NA
ATOM      9  H   UNL     1      -2.457   2.806  -4.237  0.00  0.00    +0.171 HD
ENDROOT
BRANCH   7  10
ATOM     10  S   UNL     1       0.259   2.556  -4.883  0.00  0.00    -0.083 S 
BRANCH  10  11
ATOM     11  C   UNL     1       1.957   2.127  -4.409  0.00  0.00    +0.114 C 
BRANCH  11  12
ATOM     12  C   UNL     1       2.875   2.339  -5.584  0.00  0.00    -0.019 A 
ATOM     13  C   UNL     1       3.111   1.310  -6.485  0.00  0.00    +0.009 A 
ATOM     14  C   UNL     1       3.963   1.550  -7.551  0.00  0.00    +0.040 A 
ATOM     15  C   UNL     1       4.546   2.798  -7.681  0.00  0.00    +0.129 A 
ATOM     16  N   UNL     1       4.298   3.753  -6.805  0.00  0.00    -0.243 NA
ATOM     17  C   UNL     1       3.488   3.561  -5.781  0.00  0.00    +0.116 A 
ATOM     18 CL   UNL     1       5.616   3.111  -9.012  0.00  0.00    -0.062 Cl
ENDBRANCH  11  12
ENDBRANCH  10  11
ENDBRANCH   7  10
TORSDOF 3
