REMARK  Name = ZINC12548445
REMARK  8 active torsions:
REMARK  status: ('A' for Active; 'I' for Inactive)
REMARK    1  A    between atoms: C_1  and  C_2
REMARK    2  A    between atoms: C_2  and  C_3
REMARK    3  A    between atoms: C_2  and  C_4
REMARK    4  A    between atoms: C_7  and  S_10
REMARK    5  A    between atoms: S_10  and  N_13
REMARK    6  A    between atoms: N_13  and  C_14
REMARK    7  A    between atoms: C_15  and  C_25
REMARK    8  A    between atoms: C_17  and  C_19
REMARK                            x       y       z     vdW  Elec       q    Type
REMARK                         _______ _______ _______ _____ _____    ______ ____
ROOT
ATOM      1  C   UNL     1      -3.678   1.529   0.033  0.00  0.00    +0.098 A 
ATOM      2  C   UNL     1      -2.446   0.874   0.018  0.00  0.00    +0.067 A 
ATOM      3  C   UNL     1      -2.457  -0.522   0.011  0.00  0.00    +0.031 A 
ATOM      4  C   UNL     1      -3.666  -1.145   0.014  0.00  0.00    +0.022 A 
ATOM      5  S   UNL     1      -4.812   0.219   0.026  0.00  0.00    -0.072 S 
ENDROOT
BRANCH   4   6
ATOM      6  C   UNL     1      -3.956  -2.594   0.008  0.00  0.00    -0.011 A 
ATOM      7  C   UNL     1      -2.910  -3.519  -0.008  0.00  0.00    +0.009 A 
ATOM      8  C   UNL     1      -3.189  -4.870  -0.008  0.00  0.00    +0.001 A 
ATOM      9  C   UNL     1      -4.501  -5.309  -0.004  0.00  0.00    +0.000 A 
ATOM     10  C   UNL     1      -5.542  -4.398   0.005  0.00  0.00    +0.001 A 
ATOM     11  C   UNL     1      -5.278  -3.044   0.011  0.00  0.00    +0.009 A 
ENDBRANCH   4   6
BRANCH   2  12
ATOM     12  C   UNL     1      -1.187   1.624   0.017  0.00  0.00    +0.244 C 
ATOM     13  O   UNL     1      -1.204   2.841   0.023  0.00  0.00    -0.270 OA
ATOM     14  N   UNL     1      -0.011   0.966   0.007  0.00  0.00    -0.325 N 
ATOM     15  H   UNL     1       0.002  -0.004   0.002  0.00  0.00    +0.145 HD
ATOM     16  H   UNL     1       0.822   1.462   0.002  0.00  0.00    +0.145 HD
ENDBRANCH   2  12
BRANCH   1  17
ATOM     17  N   UNL     1      -3.930   2.886   0.048  0.00  0.00    -0.209 N 
ATOM     18  H   UNL     1      -3.192   3.516   0.049  0.00  0.00    +0.174 HD
BRANCH  17  19
ATOM     19  S   UNL     1      -5.491   3.438   0.064  0.00  0.00    +0.073 S 
ATOM     20  O   UNL     1      -5.420   4.856   0.104  0.00  0.00    -0.150 OA
ATOM     21  O   UNL     1      -6.179   2.738  -0.964  0.00  0.00    -0.150 OA
BRANCH  19  25
ATOM     22  C   UNL     1      -7.336   2.123   3.983  0.00  0.00    -0.045 A 
ATOM     23  C   UNL     1      -6.689   3.341   3.898  0.00  0.00    +0.006 A 
ATOM     24  C   UNL     1      -6.125   3.743   2.701  0.00  0.00    +0.029 A 
ATOM     25  C   UNL     1      -6.209   2.926   1.589  0.00  0.00    +0.109 A 
ATOM     26  C   UNL     1      -6.861   1.709   1.673  0.00  0.00    +0.029 A 
ATOM     27  C   UNL     1      -7.420   1.306   2.871  0.00  0.00    +0.006 A 
BRANCH  22  29
ATOM     28  C   UNL     1      -9.452   1.472   5.099  0.00  0.00    +0.012 C 
ATOM     29  C   UNL     1      -7.949   1.684   5.288  0.00  0.00    +0.013 C 
ATOM     30  C   UNL     1      -7.301   0.374   5.741  0.00  0.00    +0.012 C 
ENDBRANCH  22  29
ENDBRANCH  19  25
ENDBRANCH  17  19
ENDBRANCH   1  17
TORSDOF 6
