REMARK  Name = ZINC13271781
REMARK  13 active torsions:
REMARK  status: ('A' for Active; 'I' for Inactive)
REMARK    1  A    between atoms: C_1  and  C_2
REMARK    2  A    between atoms: C_2  and  C_4
REMARK    3  A    between atoms: C_2  and  S_15
REMARK    4  A    between atoms: N_6  and  C_7
REMARK    5  A    between atoms: C_12  and  S_13
REMARK    6  A    between atoms: S_13  and  C_14
REMARK    7  A    between atoms: S_15  and  C_16
REMARK    8  A    between atoms: C_19  and  C_29
REMARK    9  A    between atoms: N_20  and  C_21
REMARK   10  A    between atoms: C_21  and  C_23
REMARK   11  A    between atoms: C_21  and  C_26
REMARK   12  A    between atoms: C_23  and  C_24
REMARK   13  A    between atoms: C_23  and  C_25
REMARK                            x       y       z     vdW  Elec       q    Type
REMARK                         _______ _______ _______ _____ _____    ______ ____
ROOT
ATOM      1  C   UNL     1      -0.143  -0.125   2.818  0.00  0.00    +0.193 A 
ATOM      2  N   UNL     1      -1.276   0.534   2.733  0.00  0.00    -0.122 NA
ATOM      3  N   UNL     1      -1.758   0.740   3.907  0.00  0.00    -0.128 NA
ATOM      4  C   UNL     1      -0.960   0.223   4.816  0.00  0.00    +0.172 A 
ATOM      5  N   UNL     1       0.096  -0.352   4.145  0.00  0.00    -0.287 N 
ENDROOT
BRANCH   4   6
ATOM      6  C   UNL     1      -1.162   0.249   6.274  0.00  0.00    +0.056 A 
ATOM      7  C   UNL     1      -2.300   0.537   6.984  0.00  0.00    +0.019 A 
ATOM      8  C   UNL     1      -2.248   0.497   8.360  0.00  0.00    +0.008 A 
ATOM      9  C   UNL     1      -1.077   0.176   8.969  0.00  0.00    +0.046 A 
ATOM     10  S   UNL     1       0.009  -0.092   7.578  0.00  0.00    -0.094 S 
ENDBRANCH   4   6
BRANCH   1  11
ATOM     11  S   UNL     1       0.875  -0.630   1.472  0.00  0.00    -0.073 S 
BRANCH  11  13
ATOM     12  C   UNL     1      -0.028   1.508   0.025  0.00  0.00    +0.029 C 
ATOM     13  C   UNL     1      -0.003  -0.022   0.006  0.00  0.00    +0.137 C 
BRANCH  13  14
ATOM     14  C   UNL     1       0.706  -0.496  -1.237  0.00  0.00    +0.230 C 
ATOM     15  O   UNL     1       1.864  -0.852  -1.176  0.00  0.00    -0.274 OA
ATOM     16  N   UNL     1       0.053  -0.526  -2.415  0.00  0.00    -0.284 N 
ATOM     17  H   UNL     1      -0.891  -0.304  -2.453  0.00  0.00    +0.155 HD
BRANCH  16  18
ATOM     18  C   UNL     1       0.737  -0.877  -3.587  0.00  0.00    +0.047 A 
ATOM     19  C   UNL     1       1.748  -1.825  -3.544  0.00  0.00    +0.024 A 
ATOM     20  C   UNL     1       2.421  -2.171  -4.701  0.00  0.00    +0.002 A 
ATOM     21  C   UNL     1       2.090  -1.574  -5.904  0.00  0.00    +0.001 A 
ATOM     22  C   UNL     1       1.084  -0.628  -5.956  0.00  0.00    +0.016 A 
ATOM     23  C   UNL     1       0.398  -0.279  -4.801  0.00  0.00    +0.029 A 
BRANCH  23  24
ATOM     24  S   UNL     1      -0.890   0.922  -4.866  0.00  0.00    -0.127 S 
ATOM     25  C   UNL     1      -0.958   1.398  -6.615  0.00  0.00    +0.090 C 
ENDBRANCH  23  24
ENDBRANCH  16  18
ENDBRANCH  13  14
ENDBRANCH  11  13
ENDBRANCH   1  11
BRANCH   5  26
ATOM     26  C   UNL     1       1.238  -1.058   4.731  0.00  0.00    +0.206 C 
BRANCH  26  27
ATOM     27  C   UNL     1       2.533  -0.340   4.347  0.00  0.00    +0.017 C 
ATOM     28  C   UNL     1       2.496   1.096   4.874  0.00  0.00    +0.010 C 
ATOM     29  C   UNL     1       3.726  -1.077   4.959  0.00  0.00    +0.010 C 
ENDBRANCH  26  27
BRANCH  26  30
ATOM     30  C   UNL     1       1.275  -2.473   4.212  0.00  0.00    +0.379 C 
ATOM     31  O   UNL     1       0.426  -2.855   3.425  0.00  0.00    -0.244 OA
ATOM     32  O   UNL     1       2.154  -3.234   4.579  0.00  0.00    -0.244 OA
ENDBRANCH  26  30
ENDBRANCH   5  26
TORSDOF 9
