REMARK  Name = ZINC43219047
REMARK  7 active torsions:
REMARK  status: ('A' for Active; 'I' for Inactive)
REMARK    1  A    between atoms: C_1  and  C_2
REMARK    2  A    between atoms: C_2  and  C_3
REMARK    3  A    between atoms: C_3  and  C_4
REMARK    4  A    between atoms: C_4  and  N_5
REMARK    5  A    between atoms: C_10  and  C_27
REMARK    6  A    between atoms: C_13  and  C_18
REMARK    7  A    between atoms: C_13  and  C_24
REMARK                            x       y       z     vdW  Elec       q    Type
REMARK                         _______ _______ _______ _____ _____    ______ ____
ROOT
ATOM      1  N   UNL     1       2.027  -2.112  -2.116  0.00  0.00    -0.242 N 
ATOM      2  C   UNL     1       1.173  -2.269  -3.180  0.00  0.00    +0.224 C 
ATOM      3  O   UNL     1       0.071  -1.783  -3.321  0.00  0.00    -0.275 OA
ATOM      4  C   UNL     1       1.876  -3.138  -4.091  0.00  0.00    +0.080 C 
ATOM      5  C   UNL     1       1.889  -3.523  -5.513  0.00  0.00    +0.010 C 
ATOM      6  N   UNL     1       3.155  -4.329  -5.609  0.00  0.00    +0.400 N 
ATOM      7  C   UNL     1       4.048  -3.911  -4.488  0.00  0.00    +0.074 C 
ATOM      8  C   UNL     1       3.372  -2.671  -3.885  0.00  0.00    +0.090 C 
ATOM      9  C   UNL     1       3.294  -2.545  -2.389  0.00  0.00    +0.225 C 
ATOM     10  O   UNL     1       4.174  -2.782  -1.589  0.00  0.00    -0.275 OA
ATOM     11  H   UNL     1       2.941  -5.312  -5.527  0.00  0.00    -0.083 HD
ATOM     12  H   UNL     1       3.608  -4.149  -6.492  0.00  0.00    -0.083 HD
ENDROOT
BRANCH   5  13
ATOM     13  C   UNL     1       0.687  -4.367  -5.852  0.00  0.00    +0.093 A 
ATOM     14  C   UNL     1      -0.420  -3.916  -6.458  0.00  0.00    +0.051 A 
ATOM     15  C   UNL     1      -1.316  -5.071  -6.585  0.00  0.00    +0.020 A 
ATOM     16  C   UNL     1      -2.592  -5.262  -7.114  0.00  0.00    +0.011 A 
ATOM     17  C   UNL     1      -3.164  -6.503  -7.075  0.00  0.00    +0.001 A 
ATOM     18  C   UNL     1      -2.482  -7.573  -6.512  0.00  0.00    +0.004 A 
ATOM     19  C   UNL     1      -1.220  -7.404  -5.985  0.00  0.00    +0.047 A 
ATOM     20  C   UNL     1      -0.621  -6.151  -6.015  0.00  0.00    +0.135 A 
ATOM     21  O   UNL     1       0.572  -5.682  -5.596  0.00  0.00    -0.461 OA
ENDBRANCH   5  13
BRANCH   7  22
ATOM     22  C   UNL     1       4.164  -5.018  -3.472  0.00  0.00    -0.047 A 
ATOM     23  C   UNL     1       5.248  -5.059  -2.614  0.00  0.00    +0.003 A 
ATOM     24  C   UNL     1       5.354  -6.074  -1.683  0.00  0.00    +0.000 A 
ATOM     25  C   UNL     1       4.377  -7.049  -1.609  0.00  0.00    +0.000 A 
ATOM     26  C   UNL     1       3.293  -7.008  -2.466  0.00  0.00    +0.000 A 
ATOM     27  C   UNL     1       3.185  -5.990  -3.395  0.00  0.00    +0.003 A 
ENDBRANCH   7  22
BRANCH   7  28
ATOM     28  C   UNL     1       5.411  -3.542  -5.016  0.00  0.00    +0.350 C 
ATOM     29  O   UNL     1       5.648  -3.638  -6.208  0.00  0.00    -0.248 OA
ATOM     30  O   UNL     1       6.275  -3.148  -4.252  0.00  0.00    -0.248 OA
ENDBRANCH   7  28
BRANCH   1  31
ATOM     31  C   UNL     1       1.625  -1.536  -0.831  0.00  0.00    +0.116 C 
BRANCH  31  32
ATOM     32  C   UNL     1       1.832  -0.020  -0.864  0.00  0.00    +0.019 C 
BRANCH  32  34
ATOM     33  C   UNL     1       1.619   2.097   0.446  0.00  0.00    +0.004 C 
ATOM     34  C   UNL     1       1.413   0.581   0.479  0.00  0.00    -0.002 C 
ENDBRANCH  32  34
ENDBRANCH  31  32
ENDBRANCH   1  31
TORSDOF 6
