REMARK  Name = ZINC12311232
REMARK  11 active torsions:
REMARK  status: ('A' for Active; 'I' for Inactive)
REMARK    1  A    between atoms: C_1  and  N_2
REMARK    2  A    between atoms: N_2  and  C_3
REMARK    3  A    between atoms: N_2  and  C_4
REMARK    4  A    between atoms: C_7  and  C_10
REMARK    5  A    between atoms: N_19  and  C_31
REMARK    6  A    between atoms: C_20  and  C_22
REMARK    7  A    between atoms: C_25  and  N_28
REMARK    8  A    between atoms: N_28  and  C_29
REMARK    9  A    between atoms: N_28  and  C_30
REMARK   10  A    between atoms: C_31  and  N_33
REMARK   11  A    between atoms: C_34  and  C_36
REMARK                            x       y       z     vdW  Elec       q    Type
REMARK                         _______ _______ _______ _____ _____    ______ ____
ROOT
ATOM      1  C   UNL     1      -6.066   7.095   0.032  0.00  0.00    +0.013 C 
ATOM      2  C   UNL     1      -7.042   6.264   0.452  0.00  0.00    -0.024 C 
ATOM      3  C   UNL     1      -8.378   6.826   0.835  0.00  0.00    +0.037 C 
ATOM      4  C   UNL     1      -9.308   5.827   1.492  0.00  0.00    +0.005 C 
ATOM      5  C   UNL     1      -9.146   4.404   0.962  0.00  0.00    +0.012 C 
ATOM      6  C   UNL     1      -7.726   3.931   1.280  0.00  0.00    +0.066 C 
ATOM      7  C   UNL     1      -6.793   4.874   0.523  0.00  0.00    +0.068 C 
ATOM      8  N   UNL     1      -5.831   4.174   0.031  0.00  0.00    -0.182 NA
ATOM      9  N   UNL     1      -6.038   2.792   0.127  0.00  0.00    -0.196 N 
ATOM     10  C   UNL     1      -7.420   2.576   0.613  0.00  0.00    +0.139 C 
ENDROOT
BRANCH   1  14
ATOM     11  C   UNL     1      -6.916  11.196  -0.651  0.00  0.00    +0.029 A 
ATOM     12  C   UNL     1      -5.749  10.831   0.012  0.00  0.00    +0.023 A 
ATOM     13  C   UNL     1      -5.469   9.501   0.236  0.00  0.00    +0.010 A 
ATOM     14  C   UNL     1      -6.361   8.517  -0.205  0.00  0.00    -0.025 A 
ATOM     15  C   UNL     1      -7.531   8.888  -0.875  0.00  0.00    +0.010 A 
ATOM     16  C   UNL     1      -7.806  10.220  -1.090  0.00  0.00    +0.023 A 
BRANCH  11  18
ATOM     17  C   UNL     1      -6.260  13.572  -0.414  0.00  0.00    +0.129 C 
ATOM     18  N   UNL     1      -7.195  12.543  -0.876  0.00  0.00    -0.336 N 
ATOM     19  C   UNL     1      -8.424  12.930  -1.574  0.00  0.00    +0.129 C 
ENDBRANCH  11  18
ENDBRANCH   1  14
BRANCH  10  20
ATOM     20  C   UNL     1      -8.361   2.310  -0.533  0.00  0.00    -0.024 A 
ATOM     21  C   UNL     1      -8.219   3.008  -1.719  0.00  0.00    +0.007 A 
ATOM     22  C   UNL     1      -9.076   2.763  -2.774  0.00  0.00    +0.023 A 
ATOM     23  C   UNL     1     -10.089   1.822  -2.639  0.00  0.00    +0.029 A 
ATOM     24  C   UNL     1     -10.233   1.127  -1.445  0.00  0.00    +0.023 A 
ATOM     25  C   UNL     1      -9.369   1.373  -0.396  0.00  0.00    +0.007 A 
BRANCH  23  26
ATOM     26  N   UNL     1     -10.961   1.575  -3.702  0.00  0.00    -0.336 N 
ATOM     27  C   UNL     1     -12.028   0.582  -3.558  0.00  0.00    +0.129 C 
ATOM     28  C   UNL     1     -10.807   2.309  -4.961  0.00  0.00    +0.129 C 
ENDBRANCH  23  26
ENDBRANCH  10  20
BRANCH   9  29
ATOM     29  C   UNL     1      -5.143   1.831  -0.175  0.00  0.00    +0.160 C 
ATOM     30  S   UNL     1      -5.565   0.182   0.001  0.00  0.00    -0.017 S 
BRANCH  29  31
ATOM     31  N   UNL     1      -3.914   2.170  -0.615  0.00  0.00    -0.260 N 
ATOM     32  C   UNL     1      -3.019   1.209  -0.917  0.00  0.00    +0.285 C 
ATOM     33  O   UNL     1      -3.319   0.036  -0.791  0.00  0.00    -0.266 OA
ATOM     34  H   UNL     1      -3.675   3.104  -0.715  0.00  0.00    +0.157 HD
BRANCH  32  35
ATOM     35  C   UNL     1      -1.683   1.576  -1.395  0.00  0.00    +0.189 A 
ATOM     36  C   UNL     1      -0.685   0.708  -1.735  0.00  0.00    +0.054 A 
ATOM     37  C   UNL     1       0.408   1.488  -2.140  0.00  0.00    +0.042 A 
ATOM     38  C   UNL     1       0.036   2.783  -2.027  0.00  0.00    +0.196 A 
ATOM     39  O   UNL     1      -1.223   2.832  -1.575  0.00  0.00    -0.458 OA
ENDBRANCH  32  35
ENDBRANCH  29  31
ENDBRANCH   9  29
TORSDOF 7
