REMARK  Name = ZINC08619543
REMARK  9 active torsions:
REMARK  status: ('A' for Active; 'I' for Inactive)
REMARK    1  A    between atoms: C_1  and  C_2
REMARK    2  A    between atoms: C_5  and  C_15
REMARK    3  A    between atoms: N_6  and  C_8
REMARK    4  A    between atoms: N_18  and  C_20
REMARK    5  A    between atoms: C_20  and  C_21
REMARK    6  A    between atoms: N_23  and  C_24
REMARK    7  A    between atoms: C_27  and  C_30
REMARK    8  A    between atoms: C_30  and  C_31
REMARK    9  A    between atoms: C_30  and  C_32
REMARK                            x       y       z     vdW  Elec       q    Type
REMARK                         _______ _______ _______ _____ _____    ______ ____
ROOT
ATOM      1  C   UNL     1      -0.623   0.817   0.408  0.00  0.00    +0.070 C 
ATOM      2  C   UNL     1      -0.422  -0.676   0.362  0.00  0.00    +0.086 A 
ATOM      3  C   UNL     1      -1.485  -1.574   0.823  0.00  0.00    +0.121 A 
ATOM      4  C   UNL     1      -1.235  -3.025   0.755  0.00  0.00    +0.091 A 
ATOM      5  C   UNL     1      -2.364  -3.641   1.235  0.00  0.00    +0.055 A 
ATOM      6  N   UNL     1      -3.243  -2.681   1.573  0.00  0.00    -0.236 N 
ATOM      7  N   UNL     1      -2.692  -1.420   1.315  0.00  0.00    -0.164 NA
ATOM      8  C   UNL     1      -2.580  -5.127   1.359  0.00  0.00    +0.066 C 
ATOM      9  C   UNL     1       0.062  -3.467   0.233  0.00  0.00    +0.279 A 
ATOM     10  O   UNL     1       0.327  -4.653   0.152  0.00  0.00    -0.265 OA
ATOM     11  N   UNL     1       0.955  -2.535  -0.158  0.00  0.00    -0.220 N 
ATOM     12  N   UNL     1       0.690  -1.169  -0.090  0.00  0.00    -0.171 NA
ENDROOT
BRANCH   6  13
ATOM     13  C   UNL     1      -4.520  -2.909   2.104  0.00  0.00    +0.066 A 
ATOM     14  C   UNL     1      -4.705  -3.880   3.078  0.00  0.00    +0.029 A 
ATOM     15  C   UNL     1      -5.964  -4.103   3.599  0.00  0.00    +0.022 A 
ATOM     16  C   UNL     1      -7.041  -3.358   3.151  0.00  0.00    +0.041 A 
ATOM     17  C   UNL     1      -6.860  -2.390   2.179  0.00  0.00    +0.022 A 
ATOM     18  C   UNL     1      -5.601  -2.159   1.659  0.00  0.00    +0.029 A 
ATOM     19 CL   UNL     1      -8.623  -3.641   3.808  0.00  0.00    -0.084 Cl
ENDBRANCH   6  13
BRANCH  11  20
ATOM     20  C   UNL     1       2.251  -2.975  -0.679  0.00  0.00    +0.243 C 
BRANCH  20  21
ATOM     21  C   UNL     1       2.156  -3.159  -2.172  0.00  0.00    +0.239 C 
ATOM     22  O   UNL     1       1.108  -2.943  -2.744  0.00  0.00    -0.273 OA
ATOM     23  N   UNL     1       3.234  -3.564  -2.872  0.00  0.00    -0.284 N 
ATOM     24  H   UNL     1       4.051  -3.806  -2.407  0.00  0.00    +0.155 HD
BRANCH  23  25
ATOM     25  C   UNL     1       3.176  -3.634  -4.268  0.00  0.00    +0.033 A 
ATOM     26  C   UNL     1       3.885  -4.618  -4.945  0.00  0.00    +0.023 A 
ATOM     27  C   UNL     1       3.826  -4.684  -6.323  0.00  0.00    +0.006 A 
ATOM     28  C   UNL     1       3.062  -3.773  -7.029  0.00  0.00    -0.045 A 
ATOM     29  C   UNL     1       2.355  -2.792  -6.358  0.00  0.00    +0.006 A 
ATOM     30  C   UNL     1       2.405  -2.724  -4.979  0.00  0.00    +0.023 A 
BRANCH  28  31
ATOM     31  C   UNL     1       3.000  -3.849  -8.533  0.00  0.00    +0.013 C 
ATOM     32  C   UNL     1       1.551  -4.070  -8.973  0.00  0.00    +0.012 C 
ATOM     33  C   UNL     1       3.521  -2.541  -9.132  0.00  0.00    +0.012 C 
ENDBRANCH  28  31
ENDBRANCH  23  25
ENDBRANCH  20  21
ENDBRANCH  11  20
TORSDOF 5
