REMARK  Name = ZINC39686791
REMARK  6 active torsions:
REMARK  status: ('A' for Active; 'I' for Inactive)
REMARK    1  A    between atoms: C_1  and  C_2
REMARK    2  A    between atoms: C_2  and  C_4
REMARK    3  A    between atoms: C_2  and  N_12
REMARK    4  A    between atoms: C_4  and  C_5
REMARK    5  A    between atoms: C_13  and  C_15
REMARK    6  A    between atoms: C_26  and  C_28
REMARK                            x       y       z     vdW  Elec       q    Type
REMARK                         _______ _______ _______ _____ _____    ______ ____
ROOT
ATOM      1  C   UNL     1       0.738  -1.161  -3.606  0.00  0.00    +0.100 C 
ATOM      2  C   UNL     1       1.732  -0.079  -4.086  0.00  0.00    +0.121 C 
ATOM      3  N   UNL     1       1.655  -0.129  -5.565  0.00  0.00    -0.296 N 
ATOM      4  C   UNL     1       0.216  -0.338  -5.853  0.00  0.00    +0.115 C 
ATOM      5  C   UNL     1      -0.255  -1.327  -4.768  0.00  0.00    -0.004 C 
ATOM      6  C   UNL     1      -1.667  -0.975  -4.311  0.00  0.00    -0.010 C 
ATOM      7  C   UNL     1      -2.646  -1.204  -5.466  0.00  0.00    -0.082 C 
ATOM      8  N   UNL     1      -2.584  -2.608  -5.891  0.00  0.00    +0.379 N 
ATOM      9  C   UNL     1      -1.248  -2.913  -6.417  0.00  0.00    -0.082 C 
ATOM     10  C   UNL     1      -0.210  -2.756  -5.301  0.00  0.00    -0.010 C 
ATOM     11  C   UNL     1       2.666  -0.012  -6.449  0.00  0.00    +0.248 C 
ATOM     12  O   UNL     1       3.813   0.067  -6.054  0.00  0.00    -0.270 OA
ATOM     13  H   UNL     1      -2.778  -3.206  -5.102  0.00  0.00    -0.086 HD
ATOM     14  H   UNL     1      -3.272  -2.771  -6.611  0.00  0.00    -0.086 HD
ENDROOT
BRANCH  11  15
ATOM     15  C   UNL     1       2.380   0.020  -7.897  0.00  0.00    +0.055 A 
ATOM     16  C   UNL     1       1.236   0.666  -8.373  0.00  0.00    +0.016 A 
ATOM     17  C   UNL     1       0.975   0.692  -9.726  0.00  0.00    +0.021 A 
ATOM     18  C   UNL     1       1.843   0.079 -10.615  0.00  0.00    +0.042 A 
ATOM     19  C   UNL     1       2.978  -0.563 -10.152  0.00  0.00    +0.040 A 
ATOM     20  C   UNL     1       3.255  -0.591  -8.799  0.00  0.00    +0.054 A 
ATOM     21 CL   UNL     1       4.683  -1.391  -8.220  0.00  0.00    -0.083 Cl
ATOM     22 CL   UNL     1       1.505   0.117 -12.317  0.00  0.00    -0.083 Cl
ENDBRANCH  11  15
BRANCH   1  24
ATOM     23  N   UNL     1      -0.372  -1.600  -1.440  0.00  0.00    -0.312 N 
ATOM     24  C   UNL     1       0.021  -0.701  -2.364  0.00  0.00    +0.218 C 
ATOM     25  O   UNL     1      -0.204   0.479  -2.195  0.00  0.00    -0.275 OA
ATOM     26  H   UNL     1      -0.193  -2.544  -1.575  0.00  0.00    +0.149 HD
BRANCH  23  28
ATOM     27  C   UNL     1      -0.045  -0.735   0.824  0.00  0.00    +0.028 C 
ATOM     28  C   UNL     1      -1.070  -1.153  -0.232  0.00  0.00    +0.074 C 
BRANCH  28  29
ATOM     29  C   UNL     1      -1.929  -2.296   0.314  0.00  0.00    +0.060 C 
BRANCH  29  30
ATOM     30  C   UNL     1      -3.016  -2.624  -0.676  0.00  0.00    -0.010 A 
ATOM     31  C   UNL     1      -4.268  -2.054  -0.543  0.00  0.00    +0.006 A 
ATOM     32  C   UNL     1      -5.266  -2.355  -1.451  0.00  0.00    +0.000 A 
ATOM     33  C   UNL     1      -5.013  -3.228  -2.494  0.00  0.00    +0.003 A 
ATOM     34  C   UNL     1      -3.762  -3.799  -2.629  0.00  0.00    +0.038 A 
ATOM     35  C   UNL     1      -2.760  -3.494  -1.723  0.00  0.00    +0.127 A 
ATOM     36  F   UNL     1      -1.535  -4.048  -1.857  0.00  0.00    -0.205 F 
ENDBRANCH  29  30
ENDBRANCH  28  29
ENDBRANCH  23  28
ENDBRANCH   1  24
TORSDOF 5
