REMARK  Name = ZINC06483246
REMARK  4 active torsions:
REMARK  status: ('A' for Active; 'I' for Inactive)
REMARK    1  A    between atoms: C_1  and  O_2
REMARK    2  A    between atoms: O_2  and  C_3
REMARK    3  A    between atoms: C_3  and  C_16
REMARK    4  A    between atoms: C_4  and  C_10
REMARK                            x       y       z     vdW  Elec       q    Type
REMARK                         _______ _______ _______ _____ _____    ______ ____
ROOT
ATOM      1  C   UNL     1       0.839  -0.584   1.234  0.00  0.00    +0.206 C 
ATOM      2  C   UNL     1       0.803  -2.078   0.992  0.00  0.00    +0.121 C 
ATOM      3  N   UNL     1       0.106  -2.816   1.802  0.00  0.00    -0.180 NA
ATOM      4  N   UNL     1      -0.597  -2.262   2.870  0.00  0.00    -0.218 N 
ATOM      5  C   UNL     1      -0.608  -0.949   3.141  0.00  0.00    +0.153 C 
ATOM      6  S   UNL     1      -1.507  -0.378   4.481  0.00  0.00    -0.017 S 
ATOM      7  N   UNL     1       0.074  -0.068   2.380  0.00  0.00    -0.289 N 
ATOM      8  H   UNL     1      -1.103  -2.856   3.446  0.00  0.00    +0.176 HD
ATOM      9  H   UNL     1       0.060   0.881   2.584  0.00  0.00    +0.151 HD
ENDROOT
BRANCH   2  10
ATOM     10  C   UNL     1       1.541  -2.680  -0.134  0.00  0.00    +0.003 A 
ATOM     11  C   UNL     1       2.096  -3.956  -0.008  0.00  0.00    +0.010 A 
ATOM     12  C   UNL     1       2.785  -4.513  -1.065  0.00  0.00    +0.001 A 
ATOM     13  C   UNL     1       2.927  -3.810  -2.249  0.00  0.00    +0.000 A 
ATOM     14  C   UNL     1       2.381  -2.546  -2.381  0.00  0.00    +0.001 A 
ATOM     15  C   UNL     1       1.684  -1.979  -1.334  0.00  0.00    +0.010 A 
ENDBRANCH   2  10
BRANCH   1  16
ATOM     16  C   UNL     1       2.279  -0.180   1.419  0.00  0.00    +0.009 A 
ATOM     17  C   UNL     1       2.814  -0.093   2.691  0.00  0.00    +0.008 A 
ATOM     18  C   UNL     1       4.135   0.277   2.861  0.00  0.00    +0.000 A 
ATOM     19  C   UNL     1       4.921   0.560   1.759  0.00  0.00    +0.000 A 
ATOM     20  C   UNL     1       4.386   0.472   0.487  0.00  0.00    +0.000 A 
ATOM     21  C   UNL     1       3.067   0.097   0.317  0.00  0.00    +0.008 A 
ENDBRANCH   1  16
BRANCH   1  23
ATOM     22  C   UNL     1       0.492   1.485   0.074  0.00  0.00    +0.197 C 
ATOM     23  O   UNL     1       0.355   0.063   0.055  0.00  0.00    -0.350 OA
ENDBRANCH   1  23
TORSDOF 3
