REMARK  Name = ZINC38654058
REMARK  12 active torsions:
REMARK  status: ('A' for Active; 'I' for Inactive)
REMARK    1  A    between atoms: C_1  and  C_2
REMARK    2  A    between atoms: C_2  and  C_3
REMARK    3  A    between atoms: C_3  and  C_4
REMARK    4  A    between atoms: C_4  and  O_5
REMARK    5  A    between atoms: O_5  and  C_6
REMARK    6  A    between atoms: C_10  and  C_12
REMARK    7  A    between atoms: C_12  and  O_14
REMARK    8  A    between atoms: O_14  and  C_15
REMARK    9  A    between atoms: C_22  and  N_37
REMARK   10  A    between atoms: C_23  and  C_35
REMARK   11  A    between atoms: C_24  and  C_26
REMARK   12  A    between atoms: C_30  and  N_32
REMARK                            x       y       z     vdW  Elec       q    Type
REMARK                         _______ _______ _______ _____ _____    ______ ____
ROOT
ATOM      1  C   UNL     1       3.634  -8.180  -6.310  0.00  0.00    +0.135 A 
ATOM      2  C   UNL     1       4.225  -7.373  -7.273  0.00  0.00    +0.047 A 
ATOM      3  C   UNL     1       4.823  -7.943  -8.379  0.00  0.00    +0.012 A 
ATOM      4  C   UNL     1       4.836  -9.318  -8.534  0.00  0.00    +0.008 A 
ATOM      5  C   UNL     1       4.247 -10.129  -7.576  0.00  0.00    +0.138 A 
ATOM      6  C   UNL     1       3.651  -9.557  -6.459  0.00  0.00    +0.093 A 
ATOM      7  O   UNL     1       4.250 -11.478  -7.710  0.00  0.00    -0.441 OA
ATOM      8  C   UNL     1       4.465 -12.032  -8.915  0.00  0.00    +0.199 C 
ATOM      9  C   UNL     1       5.050 -11.345  -9.925  0.00  0.00    +0.098 C 
ATOM     10  C   UNL     1       5.493  -9.920  -9.748  0.00  0.00    +0.098 C 
ENDROOT
BRANCH  10  11
ATOM     11  C   UNL     1       6.989  -9.880  -9.576  0.00  0.00    -0.033 A 
ATOM     12  C   UNL     1       7.582 -10.542  -8.517  0.00  0.00    +0.005 A 
ATOM     13  C   UNL     1       8.954 -10.506  -8.360  0.00  0.00    +0.003 A 
ATOM     14  C   UNL     1       9.735  -9.808  -9.262  0.00  0.00    +0.033 A 
ATOM     15  C   UNL     1       9.143  -9.148 -10.322  0.00  0.00    +0.126 A 
ATOM     16  C   UNL     1       7.770  -9.188 -10.482  0.00  0.00    +0.037 A 
BRANCH  15  17
ATOM     17  N   UNL     1       9.979  -8.400 -11.289  0.00  0.00    +0.056 N 
ATOM     18  O   UNL     1      11.180  -8.368 -11.151  0.00  0.00    -0.126 OA
ATOM     19  O   UNL     1       9.461  -7.823 -12.216  0.00  0.00    -0.126 OA
ENDBRANCH  15  17
ENDBRANCH  10  11
BRANCH   8  20
ATOM     20  N   UNL     1       4.080 -13.332  -9.129  0.00  0.00    -0.328 N 
ATOM     21  H   UNL     1       3.660 -13.837  -8.415  0.00  0.00    +0.145 HD
ATOM     22  H   UNL     1       4.228 -13.745  -9.993  0.00  0.00    +0.145 HD
ENDBRANCH   8  20
BRANCH   9  23
ATOM     23  C   UNL     1       5.250 -11.990 -11.188  0.00  0.00    +0.101 C 
ATOM     24  N   UNL     1       5.409 -12.502 -12.189  0.00  0.00    -0.191 NA
ENDBRANCH   9  23
BRANCH   1  25
ATOM     25  O   UNL     1       3.046  -7.621  -5.221  0.00  0.00    -0.422 OA
BRANCH  25  26
ATOM     26  C   UNL     1       1.828  -7.065  -5.375  0.00  0.00    +0.345 C 
ATOM     27  O   UNL     1       1.328  -6.995  -6.480  0.00  0.00    -0.245 OA
BRANCH  26  32
ATOM     28  C   UNL     1      -0.837  -5.478  -3.252  0.00  0.00    +0.121 A 
ATOM     29  C   UNL     1      -0.260  -5.562  -1.992  0.00  0.00    +0.046 A 
ATOM     30  C   UNL     1       0.990  -6.132  -1.835  0.00  0.00    +0.004 A 
ATOM     31  C   UNL     1       1.672  -6.622  -2.929  0.00  0.00    +0.015 A 
ATOM     32  C   UNL     1       1.100  -6.542  -4.200  0.00  0.00    +0.063 A 
ATOM     33  C   UNL     1      -0.164  -5.971  -4.357  0.00  0.00    +0.060 A 
BRANCH  28  34
ATOM     34  O   UNL     1      -2.066  -4.916  -3.400  0.00  0.00    -0.492 OA
BRANCH  34  35
ATOM     35  C   UNL     1      -2.703  -4.428  -2.218  0.00  0.00    +0.229 C 
BRANCH  35  36
ATOM     36  C   UNL     1      -4.066  -3.836  -2.581  0.00  0.00    +0.041 C 
BRANCH  36  38
ATOM     37  C   UNL     1      -6.111  -2.720  -1.678  0.00  0.00    +0.004 C 
ATOM     38  C   UNL     1      -4.748  -3.313  -1.315  0.00  0.00    -0.000 C 
ENDBRANCH  36  38
ENDBRANCH  35  36
ENDBRANCH  34  35
ENDBRANCH  28  34
ENDBRANCH  26  32
ENDBRANCH  25  26
ENDBRANCH   1  25
TORSDOF 11
