REMARK  Name = ZINC13495872
REMARK  12 active torsions:
REMARK  status: ('A' for Active; 'I' for Inactive)
REMARK    1  A    between atoms: C_1  and  C_2
REMARK    2  A    between atoms: C_2  and  C_3
REMARK    3  A    between atoms: C_3  and  C_5
REMARK    4  A    between atoms: C_3  and  N_72
REMARK    5  A    between atoms: N_9  and  C_10
REMARK    6  A    between atoms: C_15  and  C_16
REMARK    7  A    between atoms: C_15  and  N_72
REMARK    8  A    between atoms: C_16  and  C_17
REMARK    9  A    between atoms: C_22  and  C_23
REMARK   10  A    between atoms: C_24  and  C_25
REMARK   11  A    between atoms: C_24  and  N_72
REMARK   12  A    between atoms: C_31  and  C_37
REMARK                            x       y       z     vdW  Elec       q    Type
REMARK                         _______ _______ _______ _____ _____    ______ ____
ROOT
ATOM      1  N   UNL     1       1.705  -3.392   5.791  0.00  0.00    +0.389 N 
ATOM      2  H   UNL     1       2.390  -2.666   6.033  0.00  0.00    -0.080 HD
ENDROOT
BRANCH   1   3
ATOM      3  C   UNL     1       1.146  -3.959   7.036  0.00  0.00    +0.003 C 
BRANCH   3   4
ATOM      4  C   UNL     1       1.016  -2.854   8.052  0.00  0.00    +0.138 A 
ATOM      5  N   UNL     1       0.495  -1.668   7.855  0.00  0.00    -0.115 NA
ATOM      6  N   UNL     1       0.566  -1.013   8.962  0.00  0.00    -0.023 NA
ATOM      7  N   UNL     1       1.119  -1.751   9.861  0.00  0.00    -0.044 NA
ATOM      8  N   UNL     1       1.405  -2.896   9.339  0.00  0.00    -0.228 N 
BRANCH   8   9
ATOM      9  C   UNL     1       2.040  -4.028  10.020  0.00  0.00    +0.111 C 
ATOM     10  C   UNL     1       1.194  -4.453  11.238  0.00  0.00    +0.027 C 
ATOM     11  C   UNL     1       2.243  -4.846  12.309  0.00  0.00    +0.002 C 
ATOM     12  C   UNL     1       3.362  -3.796  12.095  0.00  0.00    +0.002 C 
ATOM     13  C   UNL     1       3.417  -3.611  10.564  0.00  0.00    +0.027 C 
ENDBRANCH   8   9
ENDBRANCH   3   4
BRANCH   3  15
ATOM     14  C   UNL     1      -0.077  -5.790   5.855  0.00  0.00    +0.002 C 
ATOM     15  C   UNL     1      -0.229  -4.575   6.772  0.00  0.00    -0.011 C 
ENDBRANCH   3  15
ENDBRANCH   1   3
BRANCH   1  16
ATOM     16  C   UNL     1       2.383  -4.450   5.013  0.00  0.00    -0.073 C 
BRANCH  16  17
ATOM     17  C   UNL     1       3.709  -4.790   5.697  0.00  0.00    +0.017 C 
BRANCH  17  18
ATOM     18  C   UNL     1       4.482  -5.759   4.840  0.00  0.00    -0.046 A 
ATOM     19  C   UNL     1       4.395  -7.117   5.081  0.00  0.00    +0.004 A 
ATOM     20  C   UNL     1       5.101  -8.006   4.292  0.00  0.00    +0.000 A 
ATOM     21  C   UNL     1       5.902  -7.535   3.268  0.00  0.00    +0.000 A 
ATOM     22  C   UNL     1       5.994  -6.177   3.031  0.00  0.00    +0.003 A 
ATOM     23  C   UNL     1       5.284  -5.288   3.816  0.00  0.00    -0.047 A 
ATOM     24  C   UNL     1       5.383  -3.807   3.557  0.00  0.00    +0.044 C 
ENDBRANCH  17  18
ENDBRANCH  16  17
ENDBRANCH   1  16
BRANCH   1  25
ATOM     25  C   UNL     1       0.626  -2.784   4.984  0.00  0.00    -0.037 C 
BRANCH  25  26
ATOM     26  C   UNL     1       1.248  -1.907   3.927  0.00  0.00    +0.001 A 
ATOM     27  C   UNL     1       1.454  -2.397   2.679  0.00  0.00    +0.017 A 
ATOM     28  C   UNL     1       2.059  -1.519   1.675  0.00  0.00    -0.001 A 
ATOM     29  C   UNL     1       2.297  -1.967   0.371  0.00  0.00    +0.010 A 
ATOM     30  C   UNL     1       2.863  -1.124  -0.542  0.00  0.00    +0.001 A 
ATOM     31  C   UNL     1       3.199   0.176  -0.189  0.00  0.00    +0.005 A 
ATOM     32  C   UNL     1       2.979   0.637   1.091  0.00  0.00    -0.026 A 
ATOM     33  C   UNL     1       2.404  -0.204   2.038  0.00  0.00    +0.052 A 
ATOM     34  N   UNL     1       2.168   0.233   3.324  0.00  0.00    -0.322 N 
ATOM     35  H   UNL     1       2.406   1.140   3.573  0.00  0.00    +0.169 HD
ATOM     36  C   UNL     1       1.612  -0.580   4.239  0.00  0.00    +0.251 A 
ATOM     37  O   UNL     1       1.417  -0.161   5.367  0.00  0.00    -0.268 OA
ATOM     38  C   UNL     1       3.355   2.049   1.462  0.00  0.00    +0.046 C 
ENDBRANCH  25  26
ENDBRANCH   1  25
TORSDOF 9
