REMARK  Name = ZINC39666070
REMARK  11 active torsions:
REMARK  status: ('A' for Active; 'I' for Inactive)
REMARK    1  A    between atoms: C_1  and  C_2
REMARK    2  A    between atoms: C_5  and  O_8
REMARK    3  A    between atoms: O_8  and  C_9
REMARK    4  A    between atoms: C_9  and  C_11
REMARK    5  A    between atoms: C_9  and  C_12
REMARK    6  A    between atoms: C_12  and  N_13
REMARK    7  A    between atoms: C_14  and  C_16
REMARK    8  A    between atoms: C_27  and  C_29
REMARK    9  A    between atoms: C_29  and  C_31
REMARK   10  A    between atoms: C_29  and  O_32
REMARK   11  A    between atoms: O_32  and  C_33
REMARK                            x       y       z     vdW  Elec       q    Type
REMARK                         _______ _______ _______ _____ _____    ______ ____
ROOT
ATOM      1  C   UNL     1       4.867  -6.723  -0.100  0.00  0.00    +0.100 C 
ATOM      2  C   UNL     1       5.648  -6.072   1.063  0.00  0.00    +0.121 C 
ATOM      3  N   UNL     1       6.263  -7.211   1.785  0.00  0.00    -0.297 N 
ATOM      4  C   UNL     1       6.691  -8.140   0.712  0.00  0.00    +0.115 C 
ATOM      5  C   UNL     1       5.556  -8.079  -0.330  0.00  0.00    -0.004 C 
ATOM      6  C   UNL     1       6.131  -8.147  -1.741  0.00  0.00    -0.010 C 
ATOM      7  C   UNL     1       6.761  -9.524  -1.965  0.00  0.00    -0.082 C 
ATOM      8  N   UNL     1       5.743 -10.566  -1.779  0.00  0.00    +0.379 N 
ATOM      9  C   UNL     1       5.262 -10.553  -0.392  0.00  0.00    -0.082 C 
ATOM     10  C   UNL     1       4.569  -9.219  -0.101  0.00  0.00    -0.010 C 
ATOM     11  C   UNL     1       6.401  -7.367   3.117  0.00  0.00    +0.256 C 
ATOM     12  O   UNL     1       6.076  -6.472   3.869  0.00  0.00    -0.272 OA
ATOM     13  H   UNL     1       4.969 -10.393  -2.403  0.00  0.00    -0.086 HD
ATOM     14  H   UNL     1       6.144 -11.468  -1.987  0.00  0.00    -0.086 HD
ENDROOT
BRANCH   1  16
ATOM     15  N   UNL     1       2.478  -7.026  -0.668  0.00  0.00    -0.312 N 
ATOM     16  C   UNL     1       3.424  -6.928   0.287  0.00  0.00    +0.218 C 
ATOM     17  O   UNL     1       3.115  -7.003   1.457  0.00  0.00    -0.275 OA
ATOM     18  H   UNL     1       2.726  -6.966  -1.604  0.00  0.00    +0.149 HD
BRANCH  15  19
ATOM     19  C   UNL     1       1.076  -7.225  -0.292  0.00  0.00    +0.148 C 
BRANCH  19  20
ATOM     20  C   UNL     1       0.216  -7.303  -1.555  0.00  0.00    +0.187 C 
ATOM     21  C   UNL     1      -1.260  -7.386  -1.162  0.00  0.00    +0.053 C 
BRANCH  20  22
ATOM     22  O   UNL     1       0.575  -8.466  -2.304  0.00  0.00    -0.488 OA
BRANCH  22  27
ATOM     23  C   UNL     1      -0.400  -8.336  -7.851  0.00  0.00    +0.044 C 
ATOM     24  C   UNL     1      -0.139  -8.371  -6.367  0.00  0.00    -0.050 A 
ATOM     25  C   UNL     1      -0.562  -7.325  -5.567  0.00  0.00    +0.007 A 
ATOM     26  C   UNL     1      -0.324  -7.355  -4.206  0.00  0.00    +0.046 A 
ATOM     27  C   UNL     1       0.339  -8.435  -3.643  0.00  0.00    +0.121 A 
ATOM     28  C   UNL     1       0.762  -9.483  -4.447  0.00  0.00    +0.046 A 
ATOM     29  C   UNL     1       0.517  -9.451  -5.806  0.00  0.00    +0.007 A 
ENDBRANCH  22  27
ENDBRANCH  20  22
ENDBRANCH  19  20
ENDBRANCH  15  19
ENDBRANCH   1  16
BRANCH  11  30
ATOM     30  C   UNL     1       6.959  -8.652   3.671  0.00  0.00    +0.256 C 
ATOM     31  C   UNL     1       8.429  -8.785   3.268  0.00  0.00    +0.062 C 
BRANCH  30  32
ATOM     32  O   UNL     1       6.854  -8.641   5.096  0.00  0.00    -0.480 OA
BRANCH  32  33
ATOM     33  C   UNL     1       6.806  -9.847   5.721  0.00  0.00    +0.122 A 
ATOM     34  C   UNL     1       6.588  -9.913   7.089  0.00  0.00    +0.045 A 
ATOM     35  C   UNL     1       6.539 -11.140   7.721  0.00  0.00    +0.004 A 
ATOM     36  C   UNL     1       6.708 -12.303   6.992  0.00  0.00    +0.000 A 
ATOM     37  C   UNL     1       6.926 -12.240   5.628  0.00  0.00    +0.004 A 
ATOM     38  C   UNL     1       6.970 -11.015   4.990  0.00  0.00    +0.045 A 
ENDBRANCH  32  33
ENDBRANCH  30  32
ENDBRANCH  11  30
TORSDOF 8
