REMARK  Name = ZINC27744696
REMARK  5 active torsions:
REMARK  status: ('A' for Active; 'I' for Inactive)
REMARK    1  A    between atoms: C_8  and  C_12
REMARK    2  A    between atoms: N_14  and  C_15
REMARK    3  A    between atoms: C_15  and  C_16
REMARK    4  A    between atoms: C_16  and  C_18
REMARK    5  A    between atoms: C_16  and  C_25
REMARK                            x       y       z     vdW  Elec       q    Type
REMARK                         _______ _______ _______ _____ _____    ______ ____
ROOT
ATOM      1  C   UNL     1       5.845   7.557  -0.018  0.00  0.00    +0.068 C 
ENDROOT
BRANCH   1   2
ATOM      2  C   UNL     1       7.147   8.303  -0.151  0.00  0.00    -0.013 A 
ATOM      3  C   UNL     1       8.193   8.239   0.688  0.00  0.00    +0.088 A 
ATOM      4  N   UNL     1       9.199   9.053   0.242  0.00  0.00    -0.360 N 
ATOM      5  H   UNL     1      10.139   9.127   0.809  0.00  0.00    +0.165 HD
ATOM      6  C   UNL     1       8.815   9.677  -0.923  0.00  0.00    +0.047 A 
ATOM      7  C   UNL     1       7.515   9.230  -1.224  0.00  0.00    +0.003 A 
ATOM      8  C   UNL     1       6.865   9.697  -2.368  0.00  0.00    +0.010 A 
ATOM      9  C   UNL     1       7.497  10.585  -3.193  0.00  0.00    +0.001 A 
ATOM     10  C   UNL     1       8.780  11.026  -2.902  0.00  0.00    +0.002 A 
ATOM     11  C   UNL     1       9.437  10.584  -1.774  0.00  0.00    +0.026 A 
ENDBRANCH   1   2
BRANCH   1  12
ATOM     12  C   UNL     1       5.177   7.939   1.278  0.00  0.00    -0.038 A 
ATOM     13  C   UNL     1       5.817   7.702   2.481  0.00  0.00    +0.005 A 
ATOM     14  C   UNL     1       5.208   8.057   3.669  0.00  0.00    +0.015 A 
ATOM     15  C   UNL     1       3.953   8.639   3.656  0.00  0.00    +0.018 A 
ATOM     16  C   UNL     1       3.311   8.871   2.453  0.00  0.00    +0.015 A 
ATOM     17  C   UNL     1       3.924   8.521   1.265  0.00  0.00    +0.005 A 
ATOM     18 BR   UNL     1       3.116   9.118   5.283  0.00  0.00    -0.050 Br
ENDBRANCH   1  12
BRANCH   1  19
ATOM     19  C   UNL     1       6.115   6.051  -0.028  0.00  0.00    +0.117 C 
BRANCH  19  22
ATOM     20  C   UNL     1       4.835   3.978  -0.025  0.00  0.00    +0.251 C 
ATOM     21  O   UNL     1       5.885   3.364  -0.038  0.00  0.00    -0.270 OA
ATOM     22  N   UNL     1       4.843   5.326  -0.018  0.00  0.00    -0.310 N 
ATOM     23  H   UNL     1       3.893   5.881  -0.006  0.00  0.00    +0.149 HD
BRANCH  20  31
ATOM     24  C   UNL     1      -1.250   3.137   0.030  0.00  0.00    +0.001 A 
ATOM     25  C   UNL     1      -1.216   1.749   0.017  0.00  0.00    +0.004 A 
ATOM     26  C   UNL     1      -0.013   1.076   0.008  0.00  0.00    +0.047 A 
ATOM     27  C   UNL     1       1.182   1.788   0.000  0.00  0.00    +0.139 A 
ATOM     28  C   UNL     1       1.145   3.193   0.008  0.00  0.00    +0.018 A 
ATOM     29  C   UNL     1      -0.091   3.857   0.023  0.00  0.00    +0.011 A 
ATOM     30  C   UNL     1       2.353   3.936  -0.000  0.00  0.00    +0.031 A 
ATOM     31  C   UNL     1       3.555   3.249  -0.015  0.00  0.00    +0.122 A 
ATOM     32  C   UNL     1       3.531   1.782  -0.022  0.00  0.00    +0.350 A 
ATOM     33  O   UNL     1       4.576   1.158  -0.035  0.00  0.00    -0.244 OA
ATOM     34  O   UNL     1       2.359   1.126  -0.014  0.00  0.00    -0.422 OA
ENDBRANCH  20  31
ENDBRANCH  19  22
ENDBRANCH   1  19
TORSDOF 5
