REMARK  Name = ZINC32967873
REMARK  9 active torsions:
REMARK  status: ('A' for Active; 'I' for Inactive)
REMARK    1  A    between atoms: C_1  and  N_2
REMARK    2  A    between atoms: N_2  and  C_3
REMARK    3  A    between atoms: N_2  and  C_31
REMARK    4  A    between atoms: C_3  and  C_4
REMARK    5  A    between atoms: C_9  and  N_10
REMARK    6  A    between atoms: C_11  and  C_13
REMARK    7  A    between atoms: N_16  and  C_19
REMARK    8  A    between atoms: C_20  and  C_29
REMARK    9  A    between atoms: C_22  and  C_24
REMARK                            x       y       z     vdW  Elec       q    Type
REMARK                         _______ _______ _______ _____ _____    ______ ____
ROOT
ATOM      1  N   UNL     1      -7.042   0.128   1.786  0.00  0.00    -0.285 N 
ATOM      2  C   UNL     1      -6.312   0.459   0.702  0.00  0.00    +0.220 C 
ATOM      3  O   UNL     1      -6.777   0.314  -0.409  0.00  0.00    -0.275 OA
ATOM      4  H   UNL     1      -6.590   0.172   2.788  0.00  0.00    +0.155 HD
ENDROOT
BRANCH   1  10
ATOM      5  C   UNL     1      -8.969  -1.085   2.593  0.00  0.00    -0.043 A 
ATOM      6  C   UNL     1     -10.286  -1.473   2.446  0.00  0.00    +0.003 A 
ATOM      7  C   UNL     1     -11.009  -1.063   1.341  0.00  0.00    +0.000 A 
ATOM      8  C   UNL     1     -10.419  -0.258   0.384  0.00  0.00    +0.002 A 
ATOM      9  C   UNL     1      -9.104   0.138   0.528  0.00  0.00    +0.023 A 
ATOM     10  C   UNL     1      -8.374  -0.272   1.637  0.00  0.00    +0.035 A 
BRANCH   5  11
ATOM     11  C   UNL     1      -8.179  -1.537   3.794  0.00  0.00    -0.041 C 
BRANCH  11  13
ATOM     12  C   UNL     1      -9.478  -0.192   5.332  0.00  0.00    -0.095 C 
ATOM     13  N   UNL     1      -8.139  -0.457   4.789  0.00  0.00    +0.382 N 
ATOM     14  H   UNL     1      -7.792   0.456   4.284  0.00  0.00    -0.081 HD
BRANCH  13  15
ATOM     15  C   UNL     1      -7.188  -0.767   5.865  0.00  0.00    -0.069 C 
ATOM     16  C   UNL     1      -7.677  -1.991   6.642  0.00  0.00    -0.015 C 
ATOM     17  C   UNL     1      -6.686  -2.314   7.762  0.00  0.00    -0.002 C 
ATOM     18  C   UNL     1      -6.580  -1.117   8.709  0.00  0.00    -0.000 C 
ATOM     19  C   UNL     1      -6.090   0.106   7.932  0.00  0.00    -0.002 C 
ATOM     20  C   UNL     1      -7.081   0.429   6.812  0.00  0.00    -0.015 C 
ENDBRANCH  13  15
ENDBRANCH  11  13
ENDBRANCH   5  11
ENDBRANCH   1  10
BRANCH   2  21
ATOM     21  C   UNL     1      -4.919   1.008   0.871  0.00  0.00    +0.078 C 
ATOM     22  C   UNL     1      -4.314   1.300  -0.505  0.00  0.00    +0.032 C 
ATOM     23  C   UNL     1      -2.878   1.799  -0.330  0.00  0.00    +0.109 C 
ATOM     24  N   UNL     1      -2.085   0.778   0.367  0.00  0.00    -0.299 N 
ATOM     25  C   UNL     1      -2.619   0.516   1.710  0.00  0.00    +0.109 C 
ATOM     26  C   UNL     1      -4.047  -0.022   1.595  0.00  0.00    +0.032 C 
BRANCH  24  27
ATOM     27  C   UNL     1      -0.757   1.140   0.427  0.00  0.00    +0.228 A 
ATOM     28  C   UNL     1       0.273   0.417   1.010  0.00  0.00    +0.201 A 
ATOM     29  N   UNL     1       1.412   1.138   0.835  0.00  0.00    -0.194 NA
ATOM     30  C   UNL     1       1.114   2.240   0.191  0.00  0.00    +0.266 A 
ATOM     31  O   UNL     1      -0.208   2.266  -0.067  0.00  0.00    -0.417 OA
BRANCH  30  32
ATOM     32  C   UNL     1       2.074   3.286  -0.190  0.00  0.00    +0.189 A 
ATOM     33  C   UNL     1       3.413   3.274   0.063  0.00  0.00    +0.055 A 
ATOM     34  C   UNL     1       3.938   4.464  -0.477  0.00  0.00    +0.042 A 
ATOM     35  C   UNL     1       2.907   5.137  -1.027  0.00  0.00    +0.196 A 
ATOM     36  O   UNL     1       1.784   4.421  -0.857  0.00  0.00    -0.458 OA
ENDBRANCH  30  32
BRANCH  28  37
ATOM     37  C   UNL     1       0.158  -0.851   1.665  0.00  0.00    +0.124 C 
ATOM     38  N   UNL     1       0.068  -1.857   2.186  0.00  0.00    -0.189 NA
ENDBRANCH  28  37
ENDBRANCH  24  27
ENDBRANCH   2  21
TORSDOF 8
