REMARK  Name = ZINC34748877
REMARK  8 active torsions:
REMARK  status: ('A' for Active; 'I' for Inactive)
REMARK    1  A    between atoms: C_1  and  C_2
REMARK    2  A    between atoms: C_2  and  C_3
REMARK    3  A    between atoms: C_3  and  N_4
REMARK    4  A    between atoms: C_8  and  C_31
REMARK    5  A    between atoms: C_9  and  C_30
REMARK    6  A    between atoms: N_17  and  C_20
REMARK    7  A    between atoms: C_20  and  C_21
REMARK    8  A    between atoms: N_23  and  C_24
REMARK                            x       y       z     vdW  Elec       q    Type
REMARK                         _______ _______ _______ _____ _____    ______ ____
ROOT
ATOM      1  N   UNL     1       0.735  -3.072  -2.630  0.00  0.00    -0.280 N 
ATOM      2  C   UNL     1       1.719  -3.841  -2.129  0.00  0.00    +0.264 A 
ATOM      3  O   UNL     1       2.584  -4.291  -2.860  0.00  0.00    -0.267 OA
ATOM      4  C   UNL     1       1.738  -4.121  -0.726  0.00  0.00    +0.075 A 
ATOM      5  C   UNL     1       2.683  -4.913   0.041  0.00  0.00    -0.026 A 
ATOM      6  C   UNL     1       2.506  -5.044   1.364  0.00  0.00    -0.008 A 
ATOM      7  S   UNL     1       1.030  -4.097   1.680  0.00  0.00    -0.073 S 
ATOM      8  C   UNL     1       0.693  -3.551   0.026  0.00  0.00    +0.117 A 
ATOM      9  N   UNL     1      -0.249  -2.801  -0.533  0.00  0.00    -0.208 NA
ATOM     10  C   UNL     1      -0.238  -2.555  -1.827  0.00  0.00    +0.202 A 
ATOM     11  N   UNL     1      -1.222  -1.770  -2.375  0.00  0.00    -0.304 N 
ATOM     12  C   UNL     1      -1.063  -0.311  -2.466  0.00  0.00    +0.089 C 
ATOM     13  C   UNL     1      -2.317   0.351  -1.883  0.00  0.00    -0.059 C 
ATOM     14  N   UNL     1      -3.507  -0.172  -2.565  0.00  0.00    +0.387 N 
ATOM     15  C   UNL     1      -3.652  -1.607  -2.287  0.00  0.00    -0.059 C 
ATOM     16  C   UNL     1      -2.463  -2.366  -2.894  0.00  0.00    +0.089 C 
ATOM     17  C   UNL     1       3.353  -5.811   2.348  0.00  0.00    +0.052 C 
ATOM     18  C   UNL     1       3.850  -5.580  -0.642  0.00  0.00    +0.045 C 
ATOM     19  H   UNL     1      -3.413  -0.032  -3.560  0.00  0.00    -0.081 HD
ENDROOT
BRANCH   1  20
ATOM     20  C   UNL     1       0.711  -2.782  -4.066  0.00  0.00    +0.128 C 
BRANCH  20  22
ATOM     21  C   UNL     1       1.592  -1.282  -5.859  0.00  0.00    +0.005 C 
ATOM     22  C   UNL     1       1.617  -1.585  -4.359  0.00  0.00    +0.018 C 
ENDBRANCH  20  22
ENDBRANCH   1  20
BRANCH  14  23
ATOM     23  C   UNL     1      -4.698   0.541  -2.085  0.00  0.00    +0.019 C 
BRANCH  23  24
ATOM     24  C   UNL     1      -5.904   0.092  -2.870  0.00  0.00    +0.197 C 
ATOM     25  O   UNL     1      -5.783  -0.740  -3.744  0.00  0.00    -0.278 OA
ATOM     26  N   UNL     1      -7.116   0.615  -2.601  0.00  0.00    -0.314 N 
ATOM     27  H   UNL     1      -7.213   1.281  -1.902  0.00  0.00    +0.149 HD
BRANCH  26  28
ATOM     28  C   UNL     1      -8.288   0.179  -3.364  0.00  0.00    +0.073 C 
ATOM     29  C   UNL     1      -8.386   0.991  -4.656  0.00  0.00    +0.022 C 
ATOM     30  C   UNL     1      -9.610   0.536  -5.453  0.00  0.00    +0.002 C 
ATOM     31  C   UNL     1     -10.873   0.752  -4.617  0.00  0.00    +0.000 C 
ATOM     32  C   UNL     1     -10.775  -0.060  -3.325  0.00  0.00    +0.002 C 
ATOM     33  C   UNL     1      -9.551   0.396  -2.528  0.00  0.00    +0.022 C 
ENDBRANCH  26  28
ENDBRANCH  23  24
ENDBRANCH  14  23
TORSDOF 5
