REMARK  Name = ZINC00695547
REMARK  11 active torsions:
REMARK  status: ('A' for Active; 'I' for Inactive)
REMARK    1  A    between atoms: C_2  and  C_3
REMARK    2  A    between atoms: C_3  and  N_4
REMARK    3  A    between atoms: C_5  and  C_27
REMARK    4  A    between atoms: C_8  and  S_9
REMARK    5  A    between atoms: S_9  and  C_10
REMARK    6  A    between atoms: C_10  and  C_11
REMARK    7  A    between atoms: N_13  and  N_14
REMARK    8  A    between atoms: C_15  and  C_16
REMARK    9  A    between atoms: C_25  and  O_26
REMARK   10  A    between atoms: C_27  and  N_28
REMARK   11  A    between atoms: N_28  and  C_29
REMARK                            x       y       z     vdW  Elec       q    Type
REMARK                         _______ _______ _______ _____ _____    ______ ____
ROOT
ATOM      1  C   UNL     1      -3.863  10.168   0.088  0.00  0.00    +0.174 C 
ENDROOT
BRANCH   1   2
ATOM      2  C   UNL     1      -2.563   9.406   0.072  0.00  0.00    +0.242 C 
ATOM      3  O   UNL     1      -1.508  10.005   0.065  0.00  0.00    -0.273 OA
ATOM      4  N   UNL     1      -2.572   8.058   0.066  0.00  0.00    -0.206 N 
ATOM      5  H   UNL     1      -3.415   7.579   0.072  0.00  0.00    +0.177 HD
BRANCH   4   6
ATOM      6  N   UNL     1      -1.363   7.350   0.052  0.00  0.00    -0.188 NA
ATOM      7  C   UNL     1      -1.372   6.050   0.046  0.00  0.00    +0.142 C 
BRANCH   7   8
ATOM      8  C   UNL     1      -0.104   5.307   0.031  0.00  0.00    +0.044 A 
ATOM      9  C   UNL     1      -0.096   3.845   0.024  0.00  0.00    -0.006 A 
ATOM     10  C   UNL     1      -1.286   3.107   0.031  0.00  0.00    +0.009 A 
ATOM     11  C   UNL     1      -1.234   1.745   0.017  0.00  0.00    +0.001 A 
ATOM     12  C   UNL     1      -0.013   1.076   0.008  0.00  0.00    +0.001 A 
ATOM     13  C   UNL     1       1.163   1.762   0.000  0.00  0.00    +0.008 A 
ATOM     14  C   UNL     1       1.148   3.168   0.008  0.00  0.00    -0.017 A 
ATOM     15  C   UNL     1       2.342   3.910   0.000  0.00  0.00    +0.012 A 
ATOM     16  C   UNL     1       2.316   5.269   0.007  0.00  0.00    +0.046 A 
ATOM     17  C   UNL     1       1.117   5.981   0.022  0.00  0.00    +0.126 A 
BRANCH  17  18
ATOM     18  O   UNL     1       1.138   7.338   0.028  0.00  0.00    -0.506 OA
ATOM     19  H   UNL     1       1.135   7.735  -0.854  0.00  0.00    +0.292 HD
ENDBRANCH  17  18
ENDBRANCH   7   8
ENDBRANCH   4   6
ENDBRANCH   1   2
BRANCH   1  20
ATOM     20  S   UNL     1      -3.520  11.945   0.092  0.00  0.00    -0.077 S 
BRANCH  20  25
ATOM     21  N   UNL     1      -5.532  13.889   0.120  0.00  0.00    -0.301 N 
ATOM     22  C   UNL     1      -6.900  13.893   0.132  0.00  0.00    +0.152 A 
ATOM     23  N   UNL     1      -7.291  12.650   0.130  0.00  0.00    -0.132 NA
ATOM     24  N   UNL     1      -6.272  11.867   0.112  0.00  0.00    -0.122 NA
ATOM     25  C   UNL     1      -5.166  12.574   0.111  0.00  0.00    +0.192 A 
BRANCH  21  26
ATOM     26  C   UNL     1      -4.645  15.055   0.117  0.00  0.00    +0.152 C 
BRANCH  26  28
ATOM     27  C   UNL     1      -4.591  16.688  -1.698  0.00  0.00    +0.005 C 
ATOM     28  C   UNL     1      -4.353  15.461  -1.304  0.00  0.00    -0.013 C 
ENDBRANCH  26  28
ENDBRANCH  21  26
BRANCH  22  29
ATOM     29  C   UNL     1      -7.790  15.109   0.145  0.00  0.00    +0.178 C 
BRANCH  29  30
ATOM     30  N   UNL     1      -8.090  15.509  -1.232  0.00  0.00    -0.337 N 
ATOM     31  H   UNL     1      -7.725  15.004  -1.974  0.00  0.00    +0.147 HD
BRANCH  30  32
ATOM     32  C   UNL     1      -8.904  16.619  -1.474  0.00  0.00    +0.027 A 
ATOM     33  C   UNL     1      -9.433  17.340  -0.412  0.00  0.00    +0.023 A 
ATOM     34  C   UNL     1     -10.233  18.439  -0.656  0.00  0.00    +0.002 A 
ATOM     35  C   UNL     1     -10.515  18.816  -1.956  0.00  0.00    +0.000 A 
ATOM     36  C   UNL     1      -9.994  18.097  -3.016  0.00  0.00    +0.002 A 
ATOM     37  C   UNL     1      -9.190  17.000  -2.779  0.00  0.00    +0.023 A 
ENDBRANCH  30  32
ENDBRANCH  29  30
ENDBRANCH  22  29
ENDBRANCH  20  25
ENDBRANCH   1  20
TORSDOF 11
