REMARK  Name = ZINC42954781
REMARK  11 active torsions:
REMARK  status: ('A' for Active; 'I' for Inactive)
REMARK    1  A    between atoms: C_1  and  C_2
REMARK    2  A    between atoms: C_2  and  C_3
REMARK    3  A    between atoms: C_3  and  C_5
REMARK    4  A    between atoms: C_3  and  N_22
REMARK    5  A    between atoms: C_5  and  C_7
REMARK    6  A    between atoms: C_5  and  N_14
REMARK    7  A    between atoms: N_14  and  C_15
REMARK    8  A    between atoms: N_14  and  C_16
REMARK    9  A    between atoms: C_16  and  C_17
REMARK   10  A    between atoms: N_19  and  C_20
REMARK   11  A    between atoms: C_20  and  C_21
REMARK                            x       y       z     vdW  Elec       q    Type
REMARK                         _______ _______ _______ _____ _____    ______ ____
ROOT
ATOM      1  C   UNL     1       0.584  -1.891   1.256  0.00  0.00    -0.052 C 
ENDROOT
BRANCH   1   2
ATOM      2  C   UNL     1       1.235  -2.469   2.486  0.00  0.00    -0.062 A 
ATOM      3  C   UNL     1       0.499  -2.635   3.645  0.00  0.00    +0.003 A 
ATOM      4  C   UNL     1       1.095  -3.165   4.773  0.00  0.00    +0.015 A 
ATOM      5  C   UNL     1       2.429  -3.530   4.743  0.00  0.00    +0.018 A 
ATOM      6  C   UNL     1       3.165  -3.364   3.584  0.00  0.00    +0.015 A 
ATOM      7  C   UNL     1       2.567  -2.838   2.454  0.00  0.00    +0.003 A 
ATOM      8 BR   UNL     1       3.246  -4.256   6.286  0.00  0.00    -0.050 Br
ENDBRANCH   1   2
BRANCH   1   9
ATOM      9  N   UNL     1      -0.777  -2.428   1.124  0.00  0.00    +0.387 N 
ATOM     10  C   UNL     1      -0.723  -3.896   1.103  0.00  0.00    -0.095 C 
ATOM     11  H   UNL     1      -1.337  -2.124   1.906  0.00  0.00    -0.081 HD
BRANCH   9  12
ATOM     12  C   UNL     1      -1.376  -1.942  -0.126  0.00  0.00    +0.019 C 
BRANCH  12  13
ATOM     13  C   UNL     1      -2.827  -2.345  -0.178  0.00  0.00    +0.196 C 
ATOM     14  O   UNL     1      -3.314  -2.975   0.737  0.00  0.00    -0.278 OA
ATOM     15  N   UNL     1      -3.583  -2.005  -1.240  0.00  0.00    -0.317 N 
ATOM     16  H   UNL     1      -3.193  -1.501  -1.972  0.00  0.00    +0.149 HD
BRANCH  15  17
ATOM     17  C   UNL     1      -4.994  -2.397  -1.290  0.00  0.00    +0.101 C 
ATOM     18  C   UNL     1      -5.618  -1.890  -2.592  0.00  0.00    +0.024 C 
ENDBRANCH  15  17
ENDBRANCH  12  13
ENDBRANCH   9  12
ENDBRANCH   1   9
BRANCH   1  19
ATOM     19  C   UNL     1       0.520  -0.367   1.382  0.00  0.00    -0.085 C 
BRANCH  19  20
ATOM     20  N   UNL     1      -0.194  -0.006   2.614  0.00  0.00    +0.379 N 
ATOM     21  H   UNL     1       0.294  -0.389   3.410  0.00  0.00    -0.090 HD
ATOM     22  H   UNL     1      -0.236   0.998   2.696  0.00  0.00    -0.090 HD
ATOM     23  H   UNL     1      -1.131  -0.381   2.581  0.00  0.00    -0.090 HD
ENDBRANCH  19  20
BRANCH  19  25
ATOM     24  C   UNL     1       1.878   1.729   1.445  0.00  0.00    +0.002 C 
ATOM     25  C   UNL     1       1.940   0.201   1.431  0.00  0.00    -0.021 C 
ENDBRANCH  19  25
ENDBRANCH   1  19
TORSDOF 8
