REMARK  Name = ZINC21258852
REMARK  12 active torsions:
REMARK  status: ('A' for Active; 'I' for Inactive)
REMARK    1  A    between atoms: C_1  and  C_2
REMARK    2  A    between atoms: C_2  and  N_3
REMARK    3  A    between atoms: N_3  and  C_4
REMARK    4  A    between atoms: N_3  and  C_6
REMARK    5  A    between atoms: C_4  and  C_5
REMARK    6  A    between atoms: C_9  and  C_12
REMARK    7  A    between atoms: C_17  and  C_22
REMARK    8  A    between atoms: C_25  and  O_30
REMARK    9  A    between atoms: C_26  and  O_28
REMARK   10  A    between atoms: O_28  and  C_29
REMARK   11  A    between atoms: O_30  and  C_31
REMARK   12  A    between atoms: C_31  and  C_32
REMARK                            x       y       z     vdW  Elec       q    Type
REMARK                         _______ _______ _______ _____ _____    ______ ____
ROOT
ATOM      1  C   UNL     1       3.710  -0.706  -0.038  0.00  0.00    +0.136 C 
ATOM      2  C   UNL     1       4.295  -0.675   1.355  0.00  0.00    +0.036 C 
ATOM      3  C   UNL     1       5.378   0.021   1.739  0.00  0.00    +0.017 C 
ATOM      4  C   UNL     1       5.861  -0.038   3.179  0.00  0.00    +0.059 C 
ATOM      5  C   UNL     1       4.676  -0.239   4.121  0.00  0.00    +0.032 C 
ATOM      6  C   UNL     1       3.989  -1.553   3.732  0.00  0.00    +0.088 C 
ATOM      7  C   UNL     1       3.590  -1.470   2.289  0.00  0.00    +0.163 C 
ATOM      8  O   UNL     1       2.627  -2.107   1.909  0.00  0.00    -0.292 OA
ATOM      9  N   UNL     1       6.133   0.800   0.923  0.00  0.00    -0.316 N 
ATOM     10  C   UNL     1       5.629   1.731   0.020  0.00  0.00    +0.052 A 
ATOM     11  C   UNL     1       5.875   3.087   0.138  0.00  0.00    +0.025 A 
ATOM     12  C   UNL     1       5.383   3.952  -0.825  0.00  0.00    +0.002 A 
ATOM     13  C   UNL     1       4.657   3.462  -1.895  0.00  0.00    +0.002 A 
ATOM     14  C   UNL     1       4.394   2.108  -2.003  0.00  0.00    +0.025 A 
ATOM     15  C   UNL     1       4.864   1.241  -1.028  0.00  0.00    +0.049 A 
ATOM     16  N   UNL     1       4.556  -0.114  -1.052  0.00  0.00    -0.331 N 
ATOM     17  H   UNL     1       7.230   0.720   0.946  0.00  0.00    +0.152 HD
ATOM     18  H   UNL     1       4.966  -0.739  -1.859  0.00  0.00    +0.147 HD
ENDROOT
BRANCH   1  22
ATOM     19  C   UNL     1      -0.017   1.385   0.011  0.00  0.00    +0.030 A 
ATOM     20  C   UNL     1       0.017   0.029  -0.287  0.00  0.00    +0.023 A 
ATOM     21  C   UNL     1       1.223  -0.644  -0.302  0.00  0.00    +0.007 A 
ATOM     22  C   UNL     1       2.396   0.031  -0.021  0.00  0.00    -0.023 A 
ATOM     23  C   UNL     1       2.366   1.381   0.277  0.00  0.00    +0.007 A 
ATOM     24  C   UNL     1       1.164   2.060   0.294  0.00  0.00    +0.023 A 
BRANCH  19  25
ATOM     25  N   UNL     1      -1.236   2.067   0.033  0.00  0.00    -0.330 N 
BRANCH  25  27
ATOM     26  C   UNL     1      -3.066   0.787   1.030  0.00  0.00    +0.024 C 
ATOM     27  C   UNL     1      -2.480   1.353  -0.265  0.00  0.00    +0.102 C 
ENDBRANCH  25  27
BRANCH  25  28
ATOM     28  C   UNL     1      -1.270   3.496   0.354  0.00  0.00    +0.102 C 
ATOM     29  C   UNL     1      -1.129   4.311  -0.932  0.00  0.00    +0.024 C 
ENDBRANCH  25  28
ENDBRANCH  19  25
ENDBRANCH   1  22
BRANCH   5  30
ATOM     30  C   UNL     1       5.164  -0.320   5.545  0.00  0.00    -0.040 A 
ATOM     31  C   UNL     1       6.047  -1.316   5.916  0.00  0.00    +0.008 A 
ATOM     32  C   UNL     1       6.502  -1.391   7.220  0.00  0.00    +0.050 A 
ATOM     33  C   UNL     1       6.063  -0.473   8.160  0.00  0.00    +0.162 A 
ATOM     34  C   UNL     1       5.170   0.527   7.788  0.00  0.00    +0.162 A 
ATOM     35  C   UNL     1       4.723   0.600   6.478  0.00  0.00    +0.053 A 
BRANCH  34  36
ATOM     36  O   UNL     1       4.736   1.430   8.707  0.00  0.00    -0.491 OA
ATOM     37  C   UNL     1       3.820   2.428   8.254  0.00  0.00    +0.277 C 
ENDBRANCH  34  36
BRANCH  33  38
ATOM     38  O   UNL     1       6.505  -0.549   9.444  0.00  0.00    -0.489 OA
BRANCH  38  39
ATOM     39  C   UNL     1       7.421  -1.601   9.754  0.00  0.00    +0.226 C 
ATOM     40  C   UNL     1       7.802  -1.526  11.234  0.00  0.00    +0.048 C 
ENDBRANCH  38  39
ENDBRANCH  33  38
ENDBRANCH   5  30
TORSDOF 8
