REMARK  Name = ZINC64450373
REMARK  5 active torsions:
REMARK  status: ('A' for Active; 'I' for Inactive)
REMARK    1  A    between atoms: C_1  and  C_2
REMARK    2  A    between atoms: C_4  and  C_8
REMARK    3  A    between atoms: C_5  and  C_7
REMARK    4  A    between atoms: C_17  and  C_29
REMARK    5  A    between atoms: N_19  and  C_20
REMARK                            x       y       z     vdW  Elec       q    Type
REMARK                         _______ _______ _______ _____ _____    ______ ____
ROOT
ATOM      1  C   UNL     1      -1.912  -3.224  -0.008  0.00  0.00    +0.059 C 
ATOM      2  C   UNL     1      -2.814  -2.998  -1.231  0.00  0.00    +0.108 C 
ATOM      3  C   UNL     1      -3.797  -1.895  -1.004  0.00  0.00    +0.215 C 
ATOM      4  O   UNL     1      -4.295  -1.410  -1.998  0.00  0.00    -0.276 OA
ATOM      5  N   UNL     1      -4.191  -1.381   0.162  0.00  0.00    -0.295 N 
ATOM      6  C   UNL     1      -3.527  -1.701   1.418  0.00  0.00    +0.194 C 
ATOM      7  C   UNL     1      -2.787  -3.015   1.204  0.00  0.00    -0.008 C 
ATOM      8  C   UNL     1      -3.095  -3.799   2.196  0.00  0.00    +0.019 C 
ATOM      9  N   UNL     1      -4.047  -3.218   3.020  0.00  0.00    -0.277 N 
ATOM     10  N   UNL     1      -4.446  -1.976   2.527  0.00  0.00    -0.164 NA
ATOM     11  C   UNL     1      -2.495  -5.163   2.420  0.00  0.00    +0.062 C 
ATOM     12  H   UNL     1      -4.947  -0.773   0.174  0.00  0.00    +0.151 HD
ATOM     13  H   UNL     1      -4.387  -3.618   3.835  0.00  0.00    +0.166 HD
ENDROOT
BRANCH  10  14
ATOM     14  C   UNL     1      -4.357  -0.931   3.556  0.00  0.00    +0.270 C 
ATOM     15  N   UNL     1      -4.750   0.366   2.991  0.00  0.00    -0.350 N 
ATOM     16  C   UNL     1      -3.727   1.164   3.098  0.00  0.00    +0.061 A 
ATOM     17  C   UNL     1      -3.510   2.567   2.718  0.00  0.00    +0.027 A 
ATOM     18  C   UNL     1      -2.315   3.144   2.958  0.00  0.00    +0.002 A 
ATOM     19  C   UNL     1      -1.249   2.456   3.565  0.00  0.00    +0.002 A 
ATOM     20  C   UNL     1      -1.342   1.168   3.952  0.00  0.00    +0.027 A 
ATOM     21  C   UNL     1      -2.598   0.436   3.741  0.00  0.00    +0.061 A 
ATOM     22  N   UNL     1      -2.968  -0.784   4.006  0.00  0.00    -0.350 N 
ATOM     23  H   UNL     1      -5.613   0.588   2.609  0.00  0.00    +0.163 HD
ATOM     24  H   UNL     1      -2.424  -1.470   4.425  0.00  0.00    +0.163 HD
ENDBRANCH  10  14
BRANCH   1  28
ATOM     25  C   UNL     1      -0.018   1.503   0.010  0.00  0.00    +0.051 C 
ATOM     26  C   UNL     1       0.002  -0.004   0.002  0.00  0.00    -0.013 A 
ATOM     27  C   UNL     1      -1.039  -0.872   0.002  0.00  0.00    +0.015 A 
ATOM     28  C   UNL     1      -0.780  -2.230  -0.007  0.00  0.00    -0.029 A 
ATOM     29  C   UNL     1       0.507  -2.653  -0.016  0.00  0.00    -0.009 A 
ATOM     30  S   UNL     1       1.404  -1.109  -0.018  0.00  0.00    -0.098 S 
ATOM     31  C   UNL     1       1.043  -4.062  -0.027  0.00  0.00    +0.052 C 
ENDBRANCH   1  28
TORSDOF 2
