REMARK  Name = ZINC06195354
REMARK  12 active torsions:
REMARK  status: ('A' for Active; 'I' for Inactive)
REMARK    1  A    between atoms: C_1  and  C_2
REMARK    2  A    between atoms: C_5  and  N_9
REMARK    3  A    between atoms: C_6  and  C_8
REMARK    4  A    between atoms: N_9  and  C_10
REMARK    5  A    between atoms: C_10  and  N_12
REMARK    6  A    between atoms: N_12  and  C_13
REMARK    7  A    between atoms: N_12  and  C_17
REMARK    8  A    between atoms: C_13  and  C_14
REMARK    9  A    between atoms: C_14  and  N_60
REMARK   10  A    between atoms: C_15  and  N_60
REMARK   11  A    between atoms: C_16  and  N_60
REMARK   12  A    between atoms: C_17  and  C_18
REMARK                            x       y       z     vdW  Elec       q    Type
REMARK                         _______ _______ _______ _____ _____    ______ ____
ROOT
ATOM      1  N   UNL     1       0.225   0.990   0.293  0.00  0.00    -0.310 N 
ENDROOT
BRANCH   1   2
ATOM      2  C   UNL     1       0.472  -0.332   0.201  0.00  0.00    +0.137 C 
ATOM      3  S   UNL     1       2.084  -0.906   0.238  0.00  0.00    -0.018 S 
BRANCH   2   4
ATOM      4  N   UNL     1      -0.551  -1.202   0.081  0.00  0.00    -0.297 N 
ATOM      5  H   UNL     1      -1.459  -0.873  -0.010  0.00  0.00    +0.154 HD
BRANCH   4  10
ATOM      6  C   UNL     1       0.457  -6.785   0.105  0.00  0.00    +0.044 C 
ATOM      7  C   UNL     1       0.189  -5.302   0.099  0.00  0.00    -0.050 A 
ATOM      8  C   UNL     1       0.963  -4.464  -0.684  0.00  0.00    +0.005 A 
ATOM      9  C   UNL     1       0.720  -3.105  -0.693  0.00  0.00    +0.024 A 
ATOM     10  C   UNL     1      -0.302  -2.579   0.087  0.00  0.00    +0.036 A 
ATOM     11  C   UNL     1      -1.073  -3.421   0.876  0.00  0.00    -0.029 A 
ATOM     12  C   UNL     1      -0.829  -4.781   0.876  0.00  0.00    +0.008 A 
ATOM     13  C   UNL     1      -2.179  -2.854   1.728  0.00  0.00    +0.045 C 
ENDBRANCH   4  10
ENDBRANCH   2   4
ENDBRANCH   1   2
BRANCH   1  14
ATOM     14  C   UNL     1      -1.143   1.492   0.139  0.00  0.00    +0.088 C 
BRANCH  14  15
ATOM     15  C   UNL     1      -1.830   1.528   1.505  0.00  0.00    -0.060 C 
BRANCH  15  18
ATOM     16  C   UNL     1      -4.021   1.094   0.571  0.00  0.00    -0.097 C 
ATOM     17  C   UNL     1      -3.813   2.305   2.657  0.00  0.00    -0.097 C 
ATOM     18  N   UNL     1      -3.200   2.057   1.335  0.00  0.00    +0.377 N 
ATOM     19  H   UNL     1      -3.154   2.942   0.817  0.00  0.00    -0.083 HD
ENDBRANCH  15  18
ENDBRANCH  14  15
ENDBRANCH   1  14
BRANCH   1  20
ATOM     20  C   UNL     1       1.325   1.925   0.542  0.00  0.00    +0.147 C 
BRANCH  20  21
ATOM     21  C   UNL     1       1.521   2.087   2.027  0.00  0.00    +0.035 A 
ATOM     22  C   UNL     1       2.432   1.318   2.677  0.00  0.00    +0.020 A 
ATOM     23  C   UNL     1       2.599   1.500   4.118  0.00  0.00    +0.003 A 
ATOM     24  C   UNL     1       3.526   0.737   4.839  0.00  0.00    +0.059 A 
ATOM     25  C   UNL     1       3.662   0.930   6.196  0.00  0.00    +0.167 A 
ATOM     26  C   UNL     1       2.878   1.887   6.854  0.00  0.00    +0.168 A 
ATOM     27  C   UNL     1       1.960   2.644   6.150  0.00  0.00    +0.075 A 
ATOM     28  C   UNL     1       1.812   2.461   4.781  0.00  0.00    +0.053 A 
ATOM     29  N   UNL     1       0.902   3.210   4.062  0.00  0.00    -0.322 N 
ATOM     30  H   UNL     1       0.360   3.872   4.519  0.00  0.00    +0.169 HD
ATOM     31  C   UNL     1       0.761   3.039   2.736  0.00  0.00    +0.254 A 
ATOM     32  O   UNL     1      -0.049   3.722   2.132  0.00  0.00    -0.268 OA
ATOM     33  O   UNL     1       3.206   1.878   8.179  0.00  0.00    -0.453 OA
ATOM     34  C   UNL     1       4.478   1.208   8.257  0.00  0.00    +0.466 C 
ATOM     35  O   UNL     1       4.476   0.331   7.115  0.00  0.00    -0.453 OA
ENDBRANCH  20  21
ENDBRANCH   1  20
TORSDOF 8
