REMARK  Name = ZINC08980471
REMARK  12 active torsions:
REMARK  status: ('A' for Active; 'I' for Inactive)
REMARK    1  A    between atoms: C_1  and  C_2
REMARK    2  A    between atoms: C_2  and  C_4
REMARK    3  A    between atoms: C_2  and  N_16
REMARK    4  A    between atoms: C_7  and  C_10
REMARK    5  A    between atoms: C_17  and  C_19
REMARK    6  A    between atoms: C_19  and  N_20
REMARK    7  A    between atoms: C_23  and  C_27
REMARK    8  A    between atoms: C_23  and  C_28
REMARK    9  A    between atoms: C_31  and  C_34
REMARK   10  A    between atoms: C_34  and  C_35
REMARK   11  A    between atoms: C_34  and  C_36
REMARK   12  A    between atoms: C_34  and  C_37
REMARK                            x       y       z     vdW  Elec       q    Type
REMARK                         _______ _______ _______ _____ _____    ______ ____
ROOT
ATOM      1  C   UNL     1       7.182  -3.879   2.280  0.00  0.00    +0.213 C 
ENDROOT
BRANCH   1   2
ATOM      2  N   UNL     1       8.526  -4.234   2.741  0.00  0.00    -0.215 N 
ATOM      3  C   UNL     1       9.097  -3.743   3.859  0.00  0.00    +0.251 C 
ATOM      4  O   UNL     1       8.615  -2.954   4.642  0.00  0.00    -0.272 OA
ATOM      5  C   UNL     1      10.470  -4.383   3.933  0.00  0.00    +0.135 C 
ATOM      6  N   UNL     1      10.517  -5.241   2.736  0.00  0.00    -0.281 N 
ATOM      7  C   UNL     1       9.336  -5.090   2.108  0.00  0.00    +0.310 C 
ATOM      8  O   UNL     1       9.040  -5.665   1.079  0.00  0.00    -0.252 OA
ATOM      9  C   UNL     1      10.604  -5.225   5.203  0.00  0.00    +0.047 C 
ATOM     10  H   UNL     1      11.254  -5.806   2.456  0.00  0.00    +0.152 HD
BRANCH   5  11
ATOM     11  C   UNL     1      11.548  -3.332   3.875  0.00  0.00    -0.015 A 
ATOM     12  C   UNL     1      11.306  -2.065   4.371  0.00  0.00    +0.006 A 
ATOM     13  C   UNL     1      12.297  -1.103   4.322  0.00  0.00    +0.004 A 
ATOM     14  C   UNL     1      13.527  -1.404   3.768  0.00  0.00    -0.042 A 
ATOM     15  C   UNL     1      13.767  -2.670   3.267  0.00  0.00    +0.004 A 
ATOM     16  C   UNL     1      12.778  -3.634   3.320  0.00  0.00    +0.006 A 
BRANCH  14  17
ATOM     17  C   UNL     1      14.605  -0.353   3.709  0.00  0.00    -0.013 C 
ATOM     18  C   UNL     1      14.997  -0.105   2.251  0.00  0.00    +0.015 C 
ATOM     19  C   UNL     1      14.085   0.947   4.325  0.00  0.00    +0.015 C 
ATOM     20  C   UNL     1      15.829  -0.834   4.491  0.00  0.00    +0.015 C 
ENDBRANCH  14  17
ENDBRANCH   5  11
ENDBRANCH   1   2
BRANCH   1  22
ATOM     21  N   UNL     1       6.140  -2.172   0.825  0.00  0.00    -0.307 N 
ATOM     22  C   UNL     1       7.262  -2.680   1.372  0.00  0.00    +0.231 C 
ATOM     23  O   UNL     1       8.337  -2.171   1.133  0.00  0.00    -0.274 OA
ATOM     24  H   UNL     1       5.280  -2.578   1.016  0.00  0.00    +0.149 HD
BRANCH  21  26
ATOM     25  C   UNL     1       6.530  -1.465  -1.484  0.00  0.00    +0.033 C 
ATOM     26  C   UNL     1       6.219  -1.005  -0.058  0.00  0.00    +0.100 C 
BRANCH  26  27
ATOM     27  C   UNL     1       4.901  -0.274  -0.043  0.00  0.00    -0.027 A 
ATOM     28  C   UNL     1       4.881   1.109  -0.036  0.00  0.00    +0.006 A 
ATOM     29  C   UNL     1       3.677   1.784  -0.022  0.00  0.00    +0.009 A 
ATOM     30  C   UNL     1       2.481   1.070  -0.015  0.00  0.00    -0.018 A 
ATOM     31  C   UNL     1       2.507  -0.323  -0.016  0.00  0.00    +0.009 A 
ATOM     32  C   UNL     1       3.717  -0.988  -0.036  0.00  0.00    +0.006 A 
BRANCH  30  33
ATOM     33  C   UNL     1       1.184   1.790   0.000  0.00  0.00    -0.018 A 
ATOM     34  C   UNL     1      -0.013   1.076   0.008  0.00  0.00    +0.008 A 
ATOM     35  C   UNL     1      -1.216   1.751   0.017  0.00  0.00    +0.001 A 
ATOM     36  C   UNL     1      -1.236   3.134   0.030  0.00  0.00    +0.000 A 
ATOM     37  C   UNL     1      -0.052   3.848   0.022  0.00  0.00    +0.001 A 
ATOM     38  C   UNL     1       1.157   3.183   0.008  0.00  0.00    +0.008 A 
ENDBRANCH  30  33
ENDBRANCH  26  27
ENDBRANCH  21  26
ENDBRANCH   1  22
TORSDOF 7
