REMARK  Name = ZINC33906693
REMARK  10 active torsions:
REMARK  status: ('A' for Active; 'I' for Inactive)
REMARK    1  A    between atoms: C_1  and  C_2
REMARK    2  A    between atoms: C_2  and  C_3
REMARK    3  A    between atoms: C_2  and  C_4
REMARK    4  A    between atoms: C_7  and  C_10
REMARK    5  A    between atoms: C_11  and  C_12
REMARK    6  A    between atoms: C_17  and  O_35
REMARK    7  A    between atoms: C_24  and  C_26
REMARK    8  A    between atoms: C_29  and  O_34
REMARK    9  A    between atoms: C_30  and  O_32
REMARK   10  A    between atoms: O_32  and  C_33
REMARK                            x       y       z     vdW  Elec       q    Type
REMARK                         _______ _______ _______ _____ _____    ______ ____
ROOT
ATOM      1  C   UNL     1       2.808  -3.213   6.719  0.00  0.00    +0.240 C 
ATOM      2  O   UNL     1       3.992  -2.956   6.840  0.00  0.00    -0.271 OA
ATOM      3  N   UNL     1       2.173  -3.925   7.672  0.00  0.00    -0.290 N 
ATOM      4  C   UNL     1       0.778  -4.347   7.486  0.00  0.00    +0.111 C 
ATOM      5  C   UNL     1       0.692  -5.862   7.695  0.00  0.00    +0.054 C 
ATOM      6  C   UNL     1       1.278  -6.221   9.063  0.00  0.00    +0.072 C 
ATOM      7  C   UNL     1       1.162  -7.731   9.280  0.00  0.00    +0.035 C 
ATOM      8  C   UNL     1       1.751  -8.100  10.643  0.00  0.00    +0.003 C 
ATOM      9  C   UNL     1       3.225  -7.692  10.687  0.00  0.00    +0.001 C 
ATOM     10  C   UNL     1       3.341  -6.182  10.475  0.00  0.00    +0.008 C 
ATOM     11  C   UNL     1       2.752  -5.809   9.113  0.00  0.00    +0.046 C 
ATOM     12  C   UNL     1       2.864  -4.298   8.914  0.00  0.00    +0.112 C 
ENDROOT
BRANCH  12  13
ATOM     13  C   UNL     1       2.223  -3.590  10.080  0.00  0.00    -0.023 A 
ATOM     14  C   UNL     1       2.757  -3.728  11.348  0.00  0.00    +0.009 A 
ATOM     15  C   UNL     1       2.173  -3.080  12.421  0.00  0.00    +0.049 A 
ATOM     16  C   UNL     1       1.051  -2.291  12.227  0.00  0.00    +0.158 A 
ATOM     17  C   UNL     1       0.514  -2.152  10.950  0.00  0.00    +0.162 A 
ATOM     18  C   UNL     1       1.107  -2.800   9.878  0.00  0.00    +0.055 A 
BRANCH  17  19
ATOM     19  O   UNL     1      -0.587  -1.379  10.755  0.00  0.00    -0.491 OA
ATOM     20  C   UNL     1      -1.083  -1.283   9.418  0.00  0.00    +0.277 C 
ENDBRANCH  17  19
BRANCH  16  21
ATOM     21  O   UNL     1       0.475  -1.654  13.281  0.00  0.00    -0.503 OA
ATOM     22  H   UNL     1       0.827  -0.768  13.445  0.00  0.00    +0.292 HD
ENDBRANCH  16  21
ENDBRANCH  12  13
BRANCH   1  24
ATOM     23  C   UNL     1       2.683  -1.955   4.637  0.00  0.00    +0.013 C 
ATOM     24  C   UNL     1       2.075  -2.750   5.540  0.00  0.00    +0.068 C 
BRANCH  23  28
ATOM     25  C   UNL     1       0.558  -0.615   1.219  0.00  0.00    -0.045 A 
ATOM     26  C   UNL     1       1.875  -0.234   1.404  0.00  0.00    +0.004 A 
ATOM     27  C   UNL     1       2.573  -0.665   2.512  0.00  0.00    +0.008 A 
ATOM     28  C   UNL     1       1.945  -1.490   3.451  0.00  0.00    -0.025 A 
ATOM     29  C   UNL     1       0.614  -1.871   3.257  0.00  0.00    +0.008 A 
ATOM     30  C   UNL     1      -0.072  -1.427   2.146  0.00  0.00    +0.004 A 
BRANCH  25  32
ATOM     31  C   UNL     1      -0.243   1.390  -0.001  0.00  0.00    +0.012 C 
ATOM     32  C   UNL     1      -0.197  -0.140   0.004  0.00  0.00    +0.013 C 
ATOM     33  C   UNL     1       0.509  -0.633  -1.260  0.00  0.00    +0.012 C 
ENDBRANCH  25  32
ENDBRANCH  23  28
ENDBRANCH   1  24
BRANCH   6  34
ATOM     34  O   UNL     1       0.556  -5.533  10.087  0.00  0.00    -0.388 OA
ATOM     35  H   UNL     1      -0.386  -5.747  10.115  0.00  0.00    +0.210 HD
ENDBRANCH   6  34
TORSDOF 7
