REMARK  Name = ZINC18058166
REMARK  5 active torsions:
REMARK  status: ('A' for Active; 'I' for Inactive)
REMARK    1  A    between atoms: C_4  and  C_7
REMARK    2  A    between atoms: C_8  and  C_17
REMARK    3  A    between atoms: C_12  and  C_13
REMARK    4  A    between atoms: C_20  and  O_24
REMARK    5  A    between atoms: C_22  and  O_23
REMARK                            x       y       z     vdW  Elec       q    Type
REMARK                         _______ _______ _______ _____ _____    ______ ____
ROOT
ATOM      1  C   UNL     1       3.698  -0.688  -0.038  0.00  0.00    +0.039 A 
ATOM      2  C   UNL     1       4.180  -1.491  -1.064  0.00  0.00    +0.077 A 
ATOM      3  N   UNL     1       5.399  -1.953  -0.668  0.00  0.00    -0.276 N 
ATOM      4  H   UNL     1       5.979  -2.539  -1.179  0.00  0.00    +0.189 HD
ATOM      5  N   UNL     1       5.670  -1.432   0.603  0.00  0.00    -0.169 NA
ATOM      6  C   UNL     1       4.670  -0.680   0.978  0.00  0.00    +0.173 A 
ENDROOT
BRANCH   1  10
ATOM      7  C   UNL     1      -0.017   1.379   0.010  0.00  0.00    +0.000 A 
ATOM      8  C   UNL     1       1.169   2.092   0.002  0.00  0.00    +0.001 A 
ATOM      9  C   UNL     1       2.377   1.427  -0.013  0.00  0.00    +0.008 A 
ATOM     10  C   UNL     1       2.403   0.033  -0.021  0.00  0.00    -0.014 A 
ATOM     11  C   UNL     1       1.205  -0.680  -0.013  0.00  0.00    +0.008 A 
ATOM     12  C   UNL     1       0.002  -0.004   0.002  0.00  0.00    +0.001 A 
ENDBRANCH   1  10
BRANCH   2  13
ATOM     13  C   UNL     1       3.499  -1.790  -2.339  0.00  0.00    +0.042 A 
ATOM     14  C   UNL     1       3.088  -3.093  -2.626  0.00  0.00    +0.017 A 
ATOM     15  C   UNL     1       2.453  -3.368  -3.818  0.00  0.00    +0.046 A 
ATOM     16  C   UNL     1       2.220  -2.351  -4.737  0.00  0.00    +0.120 A 
ATOM     17  C   UNL     1       2.626  -1.054  -4.461  0.00  0.00    +0.091 A 
ATOM     18  C   UNL     1       3.258  -0.765  -3.264  0.00  0.00    +0.129 A 
BRANCH  18  19
ATOM     19  O   UNL     1       3.651   0.506  -2.990  0.00  0.00    -0.506 OA
ATOM     20  H   UNL     1       4.546   0.715  -3.291  0.00  0.00    +0.292 HD
ENDBRANCH  18  19
BRANCH  16  21
ATOM     21  O   UNL     1       1.595  -2.630  -5.910  0.00  0.00    -0.507 OA
ATOM     22  H   UNL     1       0.632  -2.547  -5.872  0.00  0.00    +0.292 HD
ENDBRANCH  16  21
ENDBRANCH   2  13
BRANCH   6  23
ATOM     23  C   UNL     1       4.573   0.069   2.282  0.00  0.00    +0.437 C 
ATOM     24  F   UNL     1       3.968  -0.747   3.244  0.00  0.00    -0.164 F 
ATOM     25  F   UNL     1       5.856   0.424   2.713  0.00  0.00    -0.164 F 
ATOM     26  F   UNL     1       3.806   1.224   2.101  0.00  0.00    -0.164 F 
ENDBRANCH   6  23
TORSDOF 5
