REMARK  Name = ZINC15936369
REMARK  8 active torsions:
REMARK  status: ('A' for Active; 'I' for Inactive)
REMARK    1  A    between atoms: C_1  and  C_2
REMARK    2  A    between atoms: C_2  and  C_3
REMARK    3  A    between atoms: C_8  and  N_9
REMARK    4  A    between atoms: C_10  and  C_12
REMARK    5  A    between atoms: C_20  and  S_23
REMARK    6  A    between atoms: S_23  and  C_26
REMARK    7  A    between atoms: C_29  and  O_32
REMARK    8  A    between atoms: O_32  and  C_33
REMARK                            x       y       z     vdW  Elec       q    Type
REMARK                         _______ _______ _______ _____ _____    ______ ____
ROOT
ATOM      1  C   UNL     1       4.932  -0.225   1.148  0.00  0.00    +0.039 A 
ATOM      2  C   UNL     1       4.271   0.221   2.298  0.00  0.00    +0.014 A 
ATOM      3  C   UNL     1       4.968   0.456   3.448  0.00  0.00    +0.014 A 
ATOM      4  C   UNL     1       6.348   0.251   3.479  0.00  0.00    +0.047 A 
ATOM      5  C   UNL     1       7.024  -0.196   2.332  0.00  0.00    +0.054 A 
ATOM      6  C   UNL     1       6.306  -0.438   1.166  0.00  0.00    +0.039 A 
ATOM      7  N   UNL     1       8.389  -0.393   2.378  0.00  0.00    -0.320 N 
ATOM      8  C   UNL     1       9.101  -0.165   3.512  0.00  0.00    +0.278 A 
ATOM      9  C   UNL     1       8.516   0.270   4.663  0.00  0.00    +0.204 A 
ATOM     10  C   UNL     1       7.130   0.497   4.707  0.00  0.00    +0.218 A 
ATOM     11  O   UNL     1       6.588   0.886   5.730  0.00  0.00    -0.285 OA
ATOM     12  O   UNL     1      10.435  -0.376   3.498  0.00  0.00    -0.266 OA
ATOM     13  H   UNL     1       8.850  -0.702   1.583  0.00  0.00    +0.169 HD
ENDROOT
BRANCH   1  15
ATOM     14  N   UNL     1       2.833  -0.269  -0.113  0.00  0.00    -0.281 N 
ATOM     15  C   UNL     1       4.165  -0.475  -0.092  0.00  0.00    +0.248 C 
ATOM     16  O   UNL     1       4.735  -0.867  -1.091  0.00  0.00    -0.270 OA
ATOM     17  H   UNL     1       2.387   0.105   0.663  0.00  0.00    +0.155 HD
BRANCH  14  23
ATOM     18  C   UNL     1       0.800  -1.085  -1.129  0.00  0.00    -0.026 A 
ATOM     19  C   UNL     1       0.070  -1.401  -2.258  0.00  0.00    +0.005 A 
ATOM     20  C   UNL     1       0.627  -1.234  -3.513  0.00  0.00    +0.000 A 
ATOM     21  C   UNL     1       1.917  -0.751  -3.641  0.00  0.00    +0.002 A 
ATOM     22  C   UNL     1       2.652  -0.433  -2.516  0.00  0.00    +0.023 A 
ATOM     23  C   UNL     1       2.093  -0.595  -1.254  0.00  0.00    +0.037 A 
BRANCH  18  25
ATOM     24  C   UNL     1      -0.422   0.056   0.702  0.00  0.00    +0.009 C 
ATOM     25  C   UNL     1       0.191  -1.266   0.238  0.00  0.00    +0.033 C 
ENDBRANCH  18  25
ENDBRANCH  14  23
ENDBRANCH   1  15
BRANCH   9  26
ATOM     26  S   UNL     1       9.499   0.546   6.099  0.00  0.00    +0.034 S 
ATOM     27  O   UNL     1       8.843  -0.114   7.173  0.00  0.00    -0.164 OA
ATOM     28  O   UNL     1      10.841   0.257   5.734  0.00  0.00    -0.164 OA
BRANCH  26  29
ATOM     29  C   UNL     1       9.433   2.271   6.452  0.00  0.00    +0.094 A 
ATOM     30  C   UNL     1      10.365   3.126   5.894  0.00  0.00    +0.031 A 
ATOM     31  C   UNL     1      10.315   4.478   6.169  0.00  0.00    +0.047 A 
ATOM     32  C   UNL     1       9.329   4.979   7.006  0.00  0.00    +0.120 A 
ATOM     33  C   UNL     1       8.395   4.119   7.565  0.00  0.00    +0.047 A 
ATOM     34  C   UNL     1       8.445   2.768   7.283  0.00  0.00    +0.031 A 
BRANCH  32  35
ATOM     35  O   UNL     1       9.279   6.309   7.279  0.00  0.00    -0.495 OA
ATOM     36  C   UNL     1       8.236   6.754   8.149  0.00  0.00    +0.277 C 
ENDBRANCH  32  35
ENDBRANCH  26  29
ENDBRANCH   9  26
TORSDOF 6
