REMARK  Name = ZINC12639750
REMARK  4 active torsions:
REMARK  status: ('A' for Active; 'I' for Inactive)
REMARK    1  A    between atoms: C_6  and  C_11
REMARK    2  A    between atoms: C_13  and  C_16
REMARK    3  A    between atoms: C_16  and  N_17
REMARK    4  A    between atoms: C_18  and  C_20
REMARK                            x       y       z     vdW  Elec       q    Type
REMARK                         _______ _______ _______ _____ _____    ______ ____
ROOT
ATOM      1  C   UNL     1      -4.758   7.112   0.087  0.00  0.00    +0.163 C 
ENDROOT
BRANCH   1   4
ATOM      2  C   UNL     1      -2.477   4.249   0.049  0.00  0.00    +0.168 A 
ATOM      3  C   UNL     1      -2.627   5.609   0.063  0.00  0.00    +0.077 A 
ATOM      4  C   UNL     1      -4.025   5.795   0.072  0.00  0.00    +0.101 A 
ATOM      5  N   UNL     1      -4.559   4.607   0.071  0.00  0.00    -0.081 NA
ATOM      6  O   UNL     1      -3.721   3.736   0.059  0.00  0.00    -0.354 OA
BRANCH   2  12
ATOM      7  C   UNL     1       2.398   0.039  -0.021  0.00  0.00    +0.001 A 
ATOM      8  C   UNL     1       1.194  -0.661  -0.013  0.00  0.00    +0.001 A 
ATOM      9  C   UNL     1       0.002  -0.004   0.002  0.00  0.00    +0.008 A 
ATOM     10  C   UNL     1      -0.017   1.402   0.010  0.00  0.00    -0.017 A 
ATOM     11  C   UNL     1      -1.228   2.111   0.019  0.00  0.00    +0.020 A 
ATOM     12  C   UNL     1      -1.206   3.495   0.033  0.00  0.00    +0.021 A 
ATOM     13  C   UNL     1       0.017   4.191   0.025  0.00  0.00    +0.012 A 
ATOM     14  C   UNL     1       1.198   3.521   0.010  0.00  0.00    +0.009 A 
ATOM     15  C   UNL     1       1.209   2.114   0.002  0.00  0.00    -0.018 A 
ATOM     16  C   UNL     1       2.419   1.400  -0.013  0.00  0.00    +0.008 A 
ENDBRANCH   2  12
ENDBRANCH   1   4
BRANCH   1  17
ATOM     17  N   UNL     1      -5.114   7.488  -1.284  0.00  0.00    -0.303 N 
ATOM     18  C   UNL     1      -5.779   8.636  -1.516  0.00  0.00    +0.280 C 
ATOM     19  O   UNL     1      -6.084   9.360  -0.590  0.00  0.00    -0.267 OA
ATOM     20  H   UNL     1      -4.870   6.910  -2.024  0.00  0.00    +0.149 HD
BRANCH  18  21
ATOM     21  C   UNL     1      -6.139   9.016  -2.903  0.00  0.00    +0.193 A 
ATOM     22  C   UNL     1      -6.808  10.176  -3.107  0.00  0.00    +0.103 A 
ATOM     23  C   UNL     1      -7.166  10.555  -4.482  0.00  0.00    +0.193 A 
ATOM     24  O   UNL     1      -7.767  11.586  -4.725  0.00  0.00    -0.287 OA
ATOM     25  C   UNL     1      -6.762   9.625  -5.555  0.00  0.00    +0.064 A 
ATOM     26  C   UNL     1      -7.053   9.891  -6.893  0.00  0.00    +0.015 A 
ATOM     27  C   UNL     1      -6.662   9.006  -7.859  0.00  0.00    +0.001 A 
ATOM     28  C   UNL     1      -5.979   7.847  -7.515  0.00  0.00    +0.004 A 
ATOM     29  C   UNL     1      -5.683   7.568  -6.199  0.00  0.00    +0.047 A 
ATOM     30  C   UNL     1      -6.071   8.455  -5.199  0.00  0.00    +0.139 A 
ATOM     31  O   UNL     1      -5.785   8.201  -3.907  0.00  0.00    -0.450 OA
ENDBRANCH  18  21
ENDBRANCH   1  17
TORSDOF 4
