REMARK  Name = ZINC00658826
REMARK  13 active torsions:
REMARK  status: ('A' for Active; 'I' for Inactive)
REMARK    1  A    between atoms: C_1  and  C_2
REMARK    2  A    between atoms: C_2  and  O_3
REMARK    3  A    between atoms: O_3  and  C_4
REMARK    4  A    between atoms: C_7  and  C_13
REMARK    5  A    between atoms: C_9  and  O_10
REMARK    6  A    between atoms: O_10  and  C_11
REMARK    7  A    between atoms: C_11  and  C_12
REMARK    8  A    between atoms: N_18  and  C_32
REMARK    9  A    between atoms: C_22  and  C_30
REMARK   10  A    between atoms: C_23  and  N_29
REMARK   11  A    between atoms: C_24  and  C_25
REMARK   12  A    between atoms: C_24  and  C_27
REMARK   13  A    between atoms: C_32  and  C_33
REMARK                            x       y       z     vdW  Elec       q    Type
REMARK                         _______ _______ _______ _____ _____    ______ ____
ROOT
ATOM      1  C   UNL     1      -1.124   7.566   1.856  0.00  0.00    +0.068 C 
ATOM      2  C   UNL     1       0.270   8.171   2.027  0.00  0.00    +0.044 C 
ATOM      3  C   UNL     1       0.896   7.794   3.349  0.00  0.00    +0.094 C 
ATOM      4  N   UNL     1       1.875   6.713   3.208  0.00  0.00    -0.294 NA
ATOM      5  C   UNL     1       2.950   7.117   2.285  0.00  0.00    +0.112 C 
ATOM      6  C   UNL     1       2.326   7.330   0.919  0.00  0.00    -0.006 C 
ATOM      7  C   UNL     1       1.092   7.789   0.826  0.00  0.00    -0.026 C 
ATOM      8  C   UNL     1       0.456   7.942  -0.506  0.00  0.00    +0.074 C 
ATOM      9  C   UNL     1      -0.889   8.112  -0.581  0.00  0.00    +0.054 C 
ATOM     10  C   UNL     1      -1.784   8.179   0.620  0.00  0.00    +0.188 C 
ENDROOT
BRANCH   1  14
ATOM     11  C   UNL     1      -0.797   3.331   1.360  0.00  0.00    +0.162 A 
ATOM     12  C   UNL     1      -0.921   3.876   2.628  0.00  0.00    +0.050 A 
ATOM     13  C   UNL     1      -1.021   5.245   2.785  0.00  0.00    +0.008 A 
ATOM     14  C   UNL     1      -1.009   6.074   1.679  0.00  0.00    -0.037 A 
ATOM     15  C   UNL     1      -0.891   5.537   0.411  0.00  0.00    +0.053 A 
ATOM     16  C   UNL     1      -0.784   4.165   0.246  0.00  0.00    +0.162 A 
BRANCH  11  17
ATOM     17  O   UNL     1      -0.693   1.984   1.204  0.00  0.00    -0.489 OA
BRANCH  17  19
ATOM     18  C   UNL     1      -0.585  -0.288   2.019  0.00  0.00    +0.048 C 
ATOM     19  C   UNL     1      -0.712   1.190   2.392  0.00  0.00    +0.226 C 
ENDBRANCH  17  19
ENDBRANCH  11  17
BRANCH  16  20
ATOM     20  O   UNL     1      -0.668   3.635  -1.001  0.00  0.00    -0.489 OA
BRANCH  20  21
ATOM     21  C   UNL     1      -0.663   4.551  -2.097  0.00  0.00    +0.226 C 
ATOM     22  C   UNL     1      -0.525   3.776  -3.409  0.00  0.00    +0.048 C 
ENDBRANCH  20  21
ENDBRANCH  16  20
ENDBRANCH   1  14
BRANCH   9  23
ATOM     23  N   UNL     1      -1.459   8.227  -1.818  0.00  0.00    -0.358 N 
ATOM     24  H   UNL     1      -2.546   8.365  -1.913  0.00  0.00    +0.142 HD
ATOM     25  H   UNL     1      -0.830   8.181  -2.719  0.00  0.00    +0.142 HD
ENDBRANCH   9  23
BRANCH  10  26
ATOM     26  C   UNL     1      -3.030   7.450   0.331  0.00  0.00    +0.091 C 
ATOM     27  N   UNL     1      -3.992   6.888   0.108  0.00  0.00    -0.194 NA
ENDBRANCH  10  26
BRANCH  10  28
ATOM     28  C   UNL     1      -2.107   9.588   0.897  0.00  0.00    +0.091 C 
ATOM     29  N   UNL     1      -2.356  10.675   1.111  0.00  0.00    -0.194 NA
ENDBRANCH  10  28
BRANCH   8  30
ATOM     30  C   UNL     1       1.250   7.913  -1.697  0.00  0.00    +0.101 C 
ATOM     31  N   UNL     1       1.880   7.889  -2.642  0.00  0.00    -0.191 NA
ENDBRANCH   8  30
BRANCH   4  32
ATOM     32  C   UNL     1       2.421   6.323   4.514  0.00  0.00    +0.120 C 
BRANCH  32  33
ATOM     33  C   UNL     1       3.228   5.059   4.364  0.00  0.00    -0.033 A 
ATOM     34  C   UNL     1       2.619   3.827   4.516  0.00  0.00    +0.005 A 
ATOM     35  C   UNL     1       3.359   2.668   4.374  0.00  0.00    +0.000 A 
ATOM     36  C   UNL     1       4.710   2.741   4.089  0.00  0.00    +0.000 A 
ATOM     37  C   UNL     1       5.320   3.973   3.942  0.00  0.00    +0.000 A 
ATOM     38  C   UNL     1       4.579   5.131   4.080  0.00  0.00    +0.005 A 
ENDBRANCH  32  33
ENDBRANCH   4  32
TORSDOF 11
