REMARK  Name = ZINC51559504
REMARK  10 active torsions:
REMARK  status: ('A' for Active; 'I' for Inactive)
REMARK    1  A    between atoms: C_1  and  C_2
REMARK    2  A    between atoms: C_2  and  C_3
REMARK    3  A    between atoms: C_8  and  N_9
REMARK    4  A    between atoms: C_10  and  C_12
REMARK    5  A    between atoms: C_12  and  N_13
REMARK    6  A    between atoms: N_13  and  C_14
REMARK    7  A    between atoms: N_13  and  C_15
REMARK    8  A    between atoms: C_15  and  C_16
REMARK    9  A    between atoms: N_18  and  C_19
REMARK   10  A    between atoms: C_19  and  C_20
REMARK                            x       y       z     vdW  Elec       q    Type
REMARK                         _______ _______ _______ _____ _____    ______ ____
ROOT
ATOM      1  N   UNL     1      -2.439  -0.285  -5.955  0.00  0.00    +0.389 N 
ATOM      2  C   UNL     1      -2.591  -1.745  -5.887  0.00  0.00    -0.095 C 
ATOM      3  H   UNL     1      -3.346   0.151  -5.886  0.00  0.00    -0.081 HD
ENDROOT
BRANCH   1   4
ATOM      4  C   UNL     1      -1.590   0.171  -4.847  0.00  0.00    +0.019 C 
BRANCH   4   6
ATOM      5  N   UNL     1      -1.692   0.241  -2.376  0.00  0.00    -0.287 N 
ATOM      6  C   UNL     1      -2.286  -0.097  -3.538  0.00  0.00    +0.201 C 
ATOM      7  O   UNL     1      -3.382  -0.616  -3.529  0.00  0.00    -0.278 OA
ATOM      8  H   UNL     1      -0.848   0.720  -2.385  0.00  0.00    +0.155 HD
BRANCH   5  14
ATOM      9  C   UNL     1      -1.502  -0.429  -0.064  0.00  0.00    -0.026 A 
ATOM     10  C   UNL     1      -2.097  -0.759   1.139  0.00  0.00    +0.005 A 
ATOM     11  C   UNL     1      -3.474  -0.767   1.252  0.00  0.00    +0.000 A 
ATOM     12  C   UNL     1      -4.262  -0.443   0.162  0.00  0.00    +0.002 A 
ATOM     13  C   UNL     1      -3.674  -0.112  -1.043  0.00  0.00    +0.023 A 
ATOM     14  C   UNL     1      -2.290  -0.099  -1.158  0.00  0.00    +0.036 A 
BRANCH   9  16
ATOM     15  C   UNL     1       0.523   0.996   0.051  0.00  0.00    +0.009 C 
ATOM     16  C   UNL     1      -0.000  -0.422  -0.186  0.00  0.00    +0.033 C 
ENDBRANCH   9  16
ENDBRANCH   5  14
ENDBRANCH   4   6
ENDBRANCH   1   4
BRANCH   1  17
ATOM     17  C   UNL     1      -1.815   0.083  -7.234  0.00  0.00    +0.019 C 
BRANCH  17  18
ATOM     18  C   UNL     1      -2.742  -0.275  -8.366  0.00  0.00    +0.196 C 
ATOM     19  O   UNL     1      -3.817  -0.786  -8.132  0.00  0.00    -0.278 OA
ATOM     20  N   UNL     1      -2.377  -0.027  -9.640  0.00  0.00    -0.316 N 
ATOM     21  H   UNL     1      -1.518   0.382  -9.827  0.00  0.00    +0.149 HD
BRANCH  20  22
ATOM     22  C   UNL     1      -3.279  -0.374 -10.741  0.00  0.00    +0.112 C 
BRANCH  22  23
ATOM     23  C   UNL     1      -2.581  -0.104 -12.076  0.00  0.00    +0.036 C 
ATOM     24  C   UNL     1      -2.281   1.388 -12.194  0.00  0.00    +0.010 C 
ATOM     25  C   UNL     1      -1.785   1.670 -13.617  0.00  0.00    +0.005 C 
ATOM     26  C   UNL     1      -2.960   1.503 -14.579  0.00  0.00    +0.035 C 
ATOM     27  C   UNL     1      -3.644   0.179 -14.354  0.00  0.00    -0.044 A 
ATOM     28  C   UNL     1      -3.473  -0.556 -13.203  0.00  0.00    -0.040 A 
ATOM     29  C   UNL     1      -4.139  -1.766 -13.055  0.00  0.00    +0.004 A 
ATOM     30  C   UNL     1      -4.967  -2.236 -14.054  0.00  0.00    +0.000 A 
ATOM     31  C   UNL     1      -5.135  -1.499 -15.211  0.00  0.00    +0.000 A 
ATOM     32  C   UNL     1      -4.475  -0.298 -15.358  0.00  0.00    +0.004 A 
ENDBRANCH  22  23
ENDBRANCH  20  22
ENDBRANCH  17  18
ENDBRANCH   1  17
TORSDOF 8
