REMARK  Name = ZINC18087703
REMARK  6 active torsions:
REMARK  status: ('A' for Active; 'I' for Inactive)
REMARK    1  A    between atoms: C_1  and  C_2
REMARK    2  A    between atoms: C_5  and  C_18
REMARK    3  A    between atoms: C_7  and  N_8
REMARK    4  A    between atoms: C_9  and  C_10
REMARK    5  A    between atoms: C_15  and  O_16
REMARK    6  A    between atoms: C_27  and  O_30
REMARK                            x       y       z     vdW  Elec       q    Type
REMARK                         _______ _______ _______ _____ _____    ______ ____
ROOT
ATOM      1  C   UNL     1      -1.363  -4.405   1.608  0.00  0.00    +0.046 C 
ATOM      2  C   UNL     1      -2.528  -3.927   0.780  0.00  0.00    -0.025 A 
ATOM      3  C   UNL     1      -3.713  -4.633   0.783  0.00  0.00    +0.006 A 
ATOM      4  C   UNL     1      -4.784  -4.195   0.023  0.00  0.00    +0.004 A 
ATOM      5  C   UNL     1      -4.674  -3.047  -0.743  0.00  0.00    -0.039 A 
ATOM      6  C   UNL     1      -3.496  -2.330  -0.750  0.00  0.00    +0.032 A 
ATOM      7  C   UNL     1      -2.409  -2.769   0.009  0.00  0.00    +0.067 A 
ENDROOT
BRANCH   5   8
ATOM      8  C   UNL     1      -5.846  -2.578  -1.566  0.00  0.00    -0.001 C 
ATOM      9  C   UNL     1      -6.258  -1.176  -1.114  0.00  0.00    +0.015 C 
ATOM     10  C   UNL     1      -7.447  -0.699  -1.950  0.00  0.00    -0.007 C 
ATOM     11  C   UNL     1      -7.051  -0.663  -3.427  0.00  0.00    +0.007 C 
ATOM     12  C   UNL     1      -6.638  -2.065  -3.879  0.00  0.00    -0.007 C 
ATOM     13  C   UNL     1      -5.449  -2.542  -3.043  0.00  0.00    +0.015 C 
ATOM     14  C   UNL     1      -7.813  -3.028  -3.690  0.00  0.00    +0.038 C 
ATOM     15  C   UNL     1      -8.209  -3.064  -2.213  0.00  0.00    +0.067 C 
ATOM     16  C   UNL     1      -8.621  -1.662  -1.761  0.00  0.00    +0.038 C 
ATOM     17  C   UNL     1      -7.020  -3.541  -1.377  0.00  0.00    +0.046 C 
BRANCH  15  18
ATOM     18  O   UNL     1      -9.306  -3.963  -2.036  0.00  0.00    -0.389 OA
ATOM     19  H   UNL     1      -9.732  -4.121  -1.034  0.00  0.00    +0.210 HD
ENDBRANCH  15  18
ENDBRANCH   5   8
BRANCH   7  20
ATOM     20  N   UNL     1      -1.236  -2.064   0.002  0.00  0.00    -0.255 NA
ATOM     21  C   UNL     1      -1.258  -0.761   0.009  0.00  0.00    +0.123 C 
BRANCH  21  22
ATOM     22  C   UNL     1       0.002  -0.004   0.002  0.00  0.00    +0.036 A 
ATOM     23  C   UNL     1      -0.017   1.395   0.010  0.00  0.00    +0.028 A 
ATOM     24  C   UNL     1       1.169   2.097   0.002  0.00  0.00    +0.019 A 
ATOM     25  C   UNL     1       2.381   1.424  -0.013  0.00  0.00    +0.019 A 
ATOM     26  C   UNL     1       2.413   0.043  -0.021  0.00  0.00    +0.047 A 
ATOM     27  C   UNL     1       1.231  -0.680  -0.013  0.00  0.00    +0.125 A 
ATOM     28 BR   UNL     1       1.143   3.988   0.013  0.00  0.00    -0.050 Br
BRANCH  27  29
ATOM     29  O   UNL     1       1.263  -2.037  -0.021  0.00  0.00    -0.506 OA
ATOM     30  H   UNL     1       2.228  -2.565  -0.033  0.00  0.00    +0.292 HD
ENDBRANCH  27  29
ENDBRANCH  21  22
ENDBRANCH   7  20
TORSDOF 5
