REMARK  Name = ZINC03667200
REMARK  8 active torsions:
REMARK  status: ('A' for Active; 'I' for Inactive)
REMARK    1  A    between atoms: C_1  and  C_2
REMARK    2  A    between atoms: C_2  and  C_3
REMARK    3  A    between atoms: C_3  and  N_4
REMARK    4  A    between atoms: C_14  and  S_17
REMARK    5  A    between atoms: S_17  and  C_18
REMARK    6  A    between atoms: C_18  and  C_20
REMARK    7  A    between atoms: C_18  and  C_22
REMARK    8  A    between atoms: C_20  and  C_21
REMARK                            x       y       z     vdW  Elec       q    Type
REMARK                         _______ _______ _______ _____ _____    ______ ____
ROOT
ATOM      1  C   UNL     1      -0.028   1.855   0.131  0.00  0.00    +0.141 C 
ENDROOT
BRANCH   1   2
ATOM      2  C   UNL     1       1.346   2.421  -0.122  0.00  0.00    +0.238 C 
ATOM      3  O   UNL     1       2.326   1.720   0.017  0.00  0.00    -0.274 OA
ATOM      4  N   UNL     1       1.485   3.707  -0.501  0.00  0.00    -0.237 N 
ATOM      5  C   UNL     1       0.339   4.493  -0.677  0.00  0.00    +0.055 A 
ATOM      6  C   UNL     1      -0.813   3.946  -1.213  0.00  0.00    +0.025 A 
ATOM      7  C   UNL     1      -1.940   4.730  -1.380  0.00  0.00    +0.002 A 
ATOM      8  C   UNL     1      -1.928   6.061  -1.010  0.00  0.00    +0.001 A 
ATOM      9  C   UNL     1      -0.784   6.620  -0.467  0.00  0.00    +0.017 A 
ATOM     10  C   UNL     1       0.346   5.841  -0.298  0.00  0.00    +0.035 A 
ATOM     11  S   UNL     1       1.820   6.524   0.392  0.00  0.00    -0.086 S 
ATOM     12  C   UNL     1       3.079   5.531  -0.346  0.00  0.00    +0.035 A 
ATOM     13  C   UNL     1       2.771   4.219  -0.715  0.00  0.00    +0.055 A 
ATOM     14  C   UNL     1       3.751   3.429  -1.295  0.00  0.00    +0.025 A 
ATOM     15  C   UNL     1       5.019   3.941  -1.504  0.00  0.00    +0.002 A 
ATOM     16  C   UNL     1       5.318   5.240  -1.138  0.00  0.00    +0.001 A 
ATOM     17  C   UNL     1       4.348   6.038  -0.557  0.00  0.00    +0.017 A 
ENDBRANCH   1   2
BRANCH   1  18
ATOM     18  C   UNL     1      -0.754   2.719   1.164  0.00  0.00    +0.020 C 
ATOM     19  C   UNL     1      -2.196   2.231   1.314  0.00  0.00    +0.005 C 
ENDBRANCH   1  18
BRANCH   1  20
ATOM     20  S   UNL     1       0.123   0.164   0.758  0.00  0.00    -0.072 S 
BRANCH  20  31
ATOM     21  N   UNL     1       1.901  -3.824  -1.982  0.00  0.00    -0.323 N 
ATOM     22  C   UNL     1       2.256  -3.958  -3.315  0.00  0.00    +0.053 A 
ATOM     23  C   UNL     1       2.735  -5.037  -4.052  0.00  0.00    +0.026 A 
ATOM     24  C   UNL     1       3.013  -4.887  -5.394  0.00  0.00    +0.002 A 
ATOM     25  C   UNL     1       2.819  -3.667  -6.022  0.00  0.00    +0.001 A 
ATOM     26  C   UNL     1       2.346  -2.586  -5.309  0.00  0.00    +0.012 A 
ATOM     27  C   UNL     1       2.061  -2.724  -3.952  0.00  0.00    +0.029 A 
ATOM     28  C   UNL     1       1.555  -1.800  -2.922  0.00  0.00    +0.138 A 
ATOM     29  C   UNL     1       1.479  -2.543  -1.726  0.00  0.00    +0.165 A 
ATOM     30  N   UNL     1       1.044  -1.930  -0.629  0.00  0.00    -0.201 NA
ATOM     31  C   UNL     1       0.700  -0.651  -0.694  0.00  0.00    +0.212 A 
ATOM     32  N   UNL     1       0.775   0.027  -1.835  0.00  0.00    -0.122 NA
ATOM     33  N   UNL     1       1.196  -0.525  -2.921  0.00  0.00    -0.143 NA
BRANCH  21  34
ATOM     34  C   UNL     1       1.966  -4.898  -0.987  0.00  0.00    +0.123 C 
BRANCH  34  36
ATOM     35  C   UNL     1       0.704  -6.774   0.076  0.00  0.00    +0.005 C 
ATOM     36  C   UNL     1       0.636  -5.653  -0.963  0.00  0.00    +0.018 C 
ENDBRANCH  34  36
ENDBRANCH  21  34
ENDBRANCH  20  31
ENDBRANCH   1  20
TORSDOF 6
