REMARK  Name = ZINC29689529
REMARK  8 active torsions:
REMARK  status: ('A' for Active; 'I' for Inactive)
REMARK    1  A    between atoms: C_1  and  C_2
REMARK    2  A    between atoms: C_2  and  C_4
REMARK    3  A    between atoms: C_2  and  N_11
REMARK    4  A    between atoms: N_14  and  C_17
REMARK    5  A    between atoms: C_17  and  C_19
REMARK    6  A    between atoms: C_17  and  C_20
REMARK    7  A    between atoms: N_26  and  C_27
REMARK    8  A    between atoms: N_26  and  C_28
REMARK                            x       y       z     vdW  Elec       q    Type
REMARK                         _______ _______ _______ _____ _____    ______ ____
ROOT
ATOM      1  N   UNL     1       3.588   3.314  -0.841  0.00  0.00    -0.299 NA
ATOM      2  C   UNL     1       3.465   1.957  -0.290  0.00  0.00    +0.066 C 
ATOM      3  C   UNL     1       4.436   1.024  -1.017  0.00  0.00    -0.062 C 
ATOM      4  N   UNL     1       5.806   1.530  -0.862  0.00  0.00    +0.388 N 
ATOM      5  C   UNL     1       5.929   2.887  -1.413  0.00  0.00    -0.062 C 
ATOM      6  C   UNL     1       4.959   3.820  -0.685  0.00  0.00    +0.066 C 
ATOM      7  H   UNL     1       6.031   1.579   0.213  0.00  0.00    -0.081 HD
ENDROOT
BRANCH   1   9
ATOM      8  C   UNL     1       1.228   3.583  -0.242  0.00  0.00    +0.029 C 
ATOM      9  C   UNL     1       2.617   4.225  -0.219  0.00  0.00    +0.085 C 
BRANCH   9  10
ATOM     10  C   UNL     1       2.583   5.522  -0.985  0.00  0.00    -0.012 A 
ATOM     11  C   UNL     1       2.914   5.541  -2.327  0.00  0.00    +0.006 A 
ATOM     12  C   UNL     1       2.884   6.731  -3.029  0.00  0.00    +0.000 A 
ATOM     13  C   UNL     1       2.527   7.904  -2.389  0.00  0.00    +0.001 A 
ATOM     14  C   UNL     1       2.190   7.885  -1.049  0.00  0.00    +0.020 A 
ATOM     15  C   UNL     1       2.221   6.694  -0.345  0.00  0.00    +0.046 A 
ATOM     16 CL   UNL     1       1.804   6.670   1.340  0.00  0.00    -0.083 Cl
ENDBRANCH   9  10
ENDBRANCH   1   9
BRANCH   4  17
ATOM     17  C   UNL     1       6.777   0.620  -1.484  0.00  0.00    -0.002 C 
ATOM     18  C   UNL     1       6.594  -0.788  -0.914  0.00  0.00    -0.005 C 
BRANCH  17  19
ATOM     19  C   UNL     1       8.175   1.102  -1.193  0.00  0.00    +0.123 A 
ATOM     20  N   UNL     1       8.481   1.549   0.012  0.00  0.00    -0.201 NA
ATOM     21  C   UNL     1       9.715   1.974   0.273  0.00  0.00    +0.217 A 
ATOM     22  N   UNL     1      10.640   1.950  -0.681  0.00  0.00    -0.181 NA
ATOM     23  C   UNL     1      10.329   1.500  -1.891  0.00  0.00    +0.222 A 
ATOM     24  N   UNL     1       9.094   1.071  -2.143  0.00  0.00    -0.201 NA
ATOM     25  N   UNL     1      11.285   1.472  -2.885  0.00  0.00    -0.306 N 
ATOM     26  C   UNL     1      12.646   1.939  -2.606  0.00  0.00    +0.132 C 
ATOM     27  C   UNL     1      10.941   0.976  -4.220  0.00  0.00    +0.132 C 
ATOM     28  N   UNL     1      10.033   2.441   1.532  0.00  0.00    -0.327 N 
ATOM     29  H   UNL     1      11.053   2.793   1.746  0.00  0.00    +0.145 HD
ATOM     30  H   UNL     1       9.267   2.462   2.321  0.00  0.00    +0.145 HD
ENDBRANCH  17  19
ENDBRANCH   4  17
TORSDOF 4
