REMARK  Name = ZINC20533801
REMARK  5 active torsions:
REMARK  status: ('A' for Active; 'I' for Inactive)
REMARK    1  A    between atoms: C_7  and  C_11
REMARK    2  A    between atoms: C_11  and  C_12
REMARK    3  A    between atoms: N_14  and  N_15
REMARK    4  A    between atoms: C_16  and  C_17
REMARK    5  A    between atoms: C_20  and  C_22
REMARK                            x       y       z     vdW  Elec       q    Type
REMARK                         _______ _______ _______ _____ _____    ______ ____
ROOT
ATOM      1  C   UNL     1      -5.167   5.389   0.080  0.00  0.00    +0.237 C 
ATOM      2  O   UNL     1      -5.611   4.260   0.079  0.00  0.00    -0.274 OA
ATOM      3  N   UNL     1      -3.834   5.589   0.069  0.00  0.00    -0.207 N 
ATOM      4  H   UNL     1      -3.431   6.613   0.070  0.00  0.00    +0.177 HD
ENDROOT
BRANCH   3   5
ATOM      5  N   UNL     1      -2.961   4.494   0.054  0.00  0.00    -0.185 NA
ATOM      6  C   UNL     1      -1.674   4.687   0.043  0.00  0.00    +0.176 C 
BRANCH   6   7
ATOM      7  C   UNL     1      -0.762   3.542   0.028  0.00  0.00    +0.148 A 
ATOM      8  C   UNL     1       0.614   3.604   0.016  0.00  0.00    +0.051 A 
ATOM      9  C   UNL     1       1.079   2.282   0.004  0.00  0.00    +0.050 A 
ATOM     10  C   UNL     1      -0.018   1.472   0.010  0.00  0.00    +0.136 A 
ATOM     11  O   UNL     1      -1.122   2.242   0.019  0.00  0.00    -0.454 OA
BRANCH  10  12
ATOM     12  C   UNL     1       0.002  -0.004   0.002  0.00  0.00    +0.017 A 
ATOM     13  C   UNL     1       1.219  -0.689  -0.019  0.00  0.00    +0.012 A 
ATOM     14  C   UNL     1       1.231  -2.068  -0.021  0.00  0.00    +0.016 A 
ATOM     15  C   UNL     1       0.040  -2.774  -0.013  0.00  0.00    +0.018 A 
ATOM     16  C   UNL     1      -1.171  -2.101   0.002  0.00  0.00    +0.016 A 
ATOM     17  C   UNL     1      -1.196  -0.722   0.010  0.00  0.00    +0.012 A 
ATOM     18 BR   UNL     1       0.065  -4.664  -0.024  0.00  0.00    -0.050 Br
ENDBRANCH  10  12
ENDBRANCH   6   7
ENDBRANCH   3   5
BRANCH   1  19
ATOM     19  C   UNL     1      -6.106   6.568   0.096  0.00  0.00    +0.134 C 
BRANCH  19  26
ATOM     20  C   UNL     1      -9.006   5.220   3.522  0.00  0.00    +0.001 A 
ATOM     21  C   UNL     1     -10.256   4.837   3.054  0.00  0.00    +0.002 A 
ATOM     22  C   UNL     1     -10.543   4.875   1.707  0.00  0.00    +0.026 A 
ATOM     23  C   UNL     1      -9.573   5.301   0.805  0.00  0.00    +0.047 A 
ATOM     24  C   UNL     1      -8.309   5.688   1.285  0.00  0.00    +0.003 A 
ATOM     25  C   UNL     1      -8.039   5.641   2.654  0.00  0.00    +0.010 A 
ATOM     26  C   UNL     1      -7.530   6.075   0.107  0.00  0.00    -0.014 A 
ATOM     27  C   UNL     1      -8.327   5.915  -0.961  0.00  0.00    +0.087 A 
ATOM     28  N   UNL     1      -9.550   5.447  -0.564  0.00  0.00    -0.360 N 
ATOM     29  H   UNL     1     -10.441   5.197  -1.158  0.00  0.00    +0.165 HD
ENDBRANCH  19  26
ENDBRANCH   1  19
TORSDOF 5
