REMARK  Name = ZINC39678434
REMARK  8 active torsions:
REMARK  status: ('A' for Active; 'I' for Inactive)
REMARK    1  A    between atoms: C_4  and  C_7
REMARK    2  A    between atoms: C_7  and  C_8
REMARK    3  A    between atoms: C_8  and  C_9
REMARK    4  A    between atoms: C_13  and  C_22
REMARK    5  A    between atoms: N_24  and  C_25
REMARK    6  A    between atoms: C_25  and  C_26
REMARK    7  A    between atoms: C_30  and  O_32
REMARK    8  A    between atoms: O_32  and  C_33
REMARK                            x       y       z     vdW  Elec       q    Type
REMARK                         _______ _______ _______ _____ _____    ______ ____
ROOT
ATOM      1  C   UNL     1       5.641  -1.745   1.345  0.00  0.00    +0.216 C 
ATOM      2  O   UNL     1       6.154  -2.096   0.303  0.00  0.00    -0.276 OA
ATOM      3  N   UNL     1       6.196  -2.095   2.522  0.00  0.00    -0.300 N 
ATOM      4  C   UNL     1       5.715  -1.769   3.885  0.00  0.00    +0.121 C 
ATOM      5  C   UNL     1       5.966  -3.055   4.705  0.00  0.00    +0.100 C 
ATOM      6  C   UNL     1       7.090  -3.786   3.953  0.00  0.00    -0.004 C 
ATOM      7  C   UNL     1       7.422  -2.898   2.745  0.00  0.00    +0.115 C 
ATOM      8  C   UNL     1       8.315  -3.938   4.851  0.00  0.00    -0.010 C 
ATOM      9  C   UNL     1       9.398  -4.719   4.101  0.00  0.00    -0.082 C 
ATOM     10  N   UNL     1       8.878  -6.038   3.722  0.00  0.00    +0.379 N 
ATOM     11  C   UNL     1       7.759  -5.885   2.785  0.00  0.00    -0.082 C 
ATOM     12  C   UNL     1       6.606  -5.153   3.478  0.00  0.00    -0.010 C 
ATOM     13  H   UNL     1       9.612  -6.574   3.282  0.00  0.00    -0.086 HD
ATOM     14  H   UNL     1       8.560  -6.523   4.547  0.00  0.00    -0.086 HD
ENDROOT
BRANCH   5  15
ATOM     15  C   UNL     1       6.406  -2.707   6.104  0.00  0.00    +0.218 C 
ATOM     16  O   UNL     1       7.035  -1.690   6.306  0.00  0.00    -0.275 OA
ATOM     17  N   UNL     1       6.101  -3.527   7.129  0.00  0.00    -0.311 N 
ATOM     18  H   UNL     1       5.598  -4.340   6.967  0.00  0.00    +0.149 HD
BRANCH  17  19
ATOM     19  C   UNL     1       6.529  -3.189   8.489  0.00  0.00    +0.139 C 
BRANCH  19  20
ATOM     20  C   UNL     1       6.065  -4.260   9.442  0.00  0.00    -0.027 A 
ATOM     21  C   UNL     1       4.827  -4.155  10.049  0.00  0.00    +0.005 A 
ATOM     22  C   UNL     1       4.398  -5.136  10.924  0.00  0.00    +0.004 A 
ATOM     23  C   UNL     1       5.207  -6.223  11.195  0.00  0.00    +0.046 A 
ATOM     24  C   UNL     1       6.449  -6.330  10.588  0.00  0.00    +0.127 A 
ATOM     25  C   UNL     1       6.875  -5.348   9.705  0.00  0.00    +0.051 A 
BRANCH  24  26
ATOM     26  O   UNL     1       7.246  -7.399  10.853  0.00  0.00    -0.434 OA
BRANCH  26  27
ATOM     27  C   UNL     1       6.741  -8.374  11.767  0.00  0.00    +0.541 C 
ATOM     28  F   UNL     1       6.497  -7.771  13.005  0.00  0.00    -0.166 F 
ATOM     29  F   UNL     1       5.550  -8.909  11.266  0.00  0.00    -0.166 F 
ENDBRANCH  26  27
ENDBRANCH  24  26
ENDBRANCH  19  20
ENDBRANCH  17  19
ENDBRANCH   5  15
BRANCH   1  30
ATOM     30  C   UNL     1       4.381  -0.918   1.322  0.00  0.00    +0.100 C 
BRANCH  30  31
ATOM     31  C   UNL     1       3.965  -0.663  -0.128  0.00  0.00    +0.044 C 
BRANCH  31  35
ATOM     32  C   UNL     1       0.395   1.682  -0.195  0.00  0.00    +0.000 A 
ATOM     33  C   UNL     1       1.630   2.303  -0.196  0.00  0.00    +0.000 A 
ATOM     34  C   UNL     1       2.785   1.544  -0.175  0.00  0.00    +0.003 A 
ATOM     35  C   UNL     1       2.705   0.164  -0.151  0.00  0.00    -0.047 A 
ATOM     36  C   UNL     1       1.470  -0.457  -0.149  0.00  0.00    +0.003 A 
ATOM     37  C   UNL     1       0.315   0.302  -0.173  0.00  0.00    +0.000 A 
ENDBRANCH  31  35
ENDBRANCH  30  31
ENDBRANCH   1  30
TORSDOF 8
