REMARK  Name = ZINC43705246
REMARK  4 active torsions:
REMARK  status: ('A' for Active; 'I' for Inactive)
REMARK    1  A    between atoms: C_3  and  O_30
REMARK    2  A    between atoms: C_4  and  C_8
REMARK    3  A    between atoms: C_19  and  C_22
REMARK    4  A    between atoms: C_27  and  O_28
REMARK                            x       y       z     vdW  Elec       q    Type
REMARK                         _______ _______ _______ _____ _____    ______ ____
ROOT
ATOM      1  C   UNL     1       3.717  -0.715  -0.194  0.00  0.00    +0.098 C 
ATOM      2  C   UNL     1       4.270  -0.842  -1.616  0.00  0.00    +0.077 C 
ATOM      3  C   UNL     1       5.761  -1.190  -1.551  0.00  0.00    +0.013 C 
ATOM      4  C   UNL     1       5.969  -2.519  -0.829  0.00  0.00    +0.001 C 
ATOM      5  C   UNL     1       5.212  -3.650  -1.519  0.00  0.00    +0.013 C 
ATOM      6  C   UNL     1       3.713  -3.333  -1.585  0.00  0.00    +0.077 C 
ATOM      7  C   UNL     1       3.555  -1.999  -2.293  0.00  0.00    +0.143 C 
ATOM      8  O   UNL     1       2.917  -1.869  -3.311  0.00  0.00    -0.297 OA
ATOM      9  C   UNL     1       3.163  -3.179  -0.165  0.00  0.00    +0.098 C 
ATOM     10  N   UNL     1       3.589  -1.972   0.495  0.00  0.00    -0.301 NA
ATOM     11  H   UNL     1       4.204  -2.101   1.270  0.00  0.00    +0.123 HD
ENDROOT
BRANCH   1  15
ATOM     12  C   UNL     1      -0.010   1.385  -0.298  0.00  0.00    +0.019 A 
ATOM     13  C   UNL     1       0.705   1.312   0.881  0.00  0.00    +0.047 A 
ATOM     14  C   UNL     1       1.913   0.632   0.918  0.00  0.00    +0.122 A 
ATOM     15  C   UNL     1       2.401   0.026  -0.231  0.00  0.00    +0.013 A 
ATOM     16  C   UNL     1       1.683   0.102  -1.409  0.00  0.00    +0.024 A 
ATOM     17  C   UNL     1       0.478   0.781  -1.443  0.00  0.00    +0.018 A 
ATOM     18 BR   UNL     1      -0.503   0.883  -3.057  0.00  0.00    -0.050 Br
BRANCH  14  19
ATOM     19  O   UNL     1       2.618   0.558   2.078  0.00  0.00    -0.506 OA
ATOM     20  H   UNL     1       2.396  -0.207   2.625  0.00  0.00    +0.292 HD
ENDBRANCH  14  19
ENDBRANCH   1  15
BRANCH   9  21
ATOM     21  C   UNL     1       1.660  -3.283  -0.196  0.00  0.00    +0.013 A 
ATOM     22  C   UNL     1       0.986  -3.203  -1.399  0.00  0.00    +0.024 A 
ATOM     23  C   UNL     1      -0.394  -3.298  -1.428  0.00  0.00    +0.018 A 
ATOM     24  C   UNL     1      -1.101  -3.474  -0.253  0.00  0.00    +0.019 A 
ATOM     25  C   UNL     1      -0.431  -3.555   0.953  0.00  0.00    +0.047 A 
ATOM     26  C   UNL     1       0.953  -3.465   0.983  0.00  0.00    +0.122 A 
ATOM     27 BR   UNL     1      -1.314  -3.187  -3.076  0.00  0.00    -0.050 Br
BRANCH  26  28
ATOM     28  O   UNL     1       1.614  -3.549   2.168  0.00  0.00    -0.506 OA
ATOM     29  H   UNL     1       1.743  -2.697   2.608  0.00  0.00    +0.292 HD
ENDBRANCH  26  28
ENDBRANCH   9  21
TORSDOF 4
