REMARK  Name = ZINC00091382
REMARK  2 active torsions:
REMARK  status: ('A' for Active; 'I' for Inactive)
REMARK    1  A    between atoms: C_9  and  S_11
REMARK    2  A    between atoms: S_11  and  C_12
REMARK                            x       y       z     vdW  Elec       q    Type
REMARK                         _______ _______ _______ _____ _____    ______ ____
ROOT
ATOM      1  C   UNL     1       1.196   3.158   0.007  0.00  0.00    +0.021 A 
ATOM      2  C   UNL     1       0.002   3.857   0.022  0.00  0.00    +0.018 A 
ATOM      3  C   UNL     1      -1.185   3.171   0.030  0.00  0.00    +0.040 A 
ATOM      4  C   UNL     1      -1.251   1.758   0.018  0.00  0.00    +0.081 A 
ATOM      5  C   UNL     1      -0.013   1.076   0.008  0.00  0.00    +0.049 A 
ATOM      6  C   UNL     1       1.171   1.770   0.000  0.00  0.00    +0.043 A 
ATOM      7 CL   UNL     1       2.669   0.894  -0.019  0.00  0.00    -0.083 Cl
ATOM      8  N   UNL     1      -2.494   1.230   0.020  0.00  0.00    -0.232 NA
ATOM      9  C   UNL     1      -3.577   1.974   0.029  0.00  0.00    +0.142 A 
ATOM     10  S   UNL     1      -2.902   3.629   0.049  0.00  0.00    -0.061 S 
ENDROOT
BRANCH   9  11
ATOM     11  S   UNL     1      -5.265   1.469   0.034  0.00  0.00    -0.034 S 
BRANCH  11  12
ATOM     12  C   UNL     1      -6.055   3.044   0.046  0.00  0.00    +0.166 A 
ATOM     13  N   UNL     1      -5.519   4.248   0.049  0.00  0.00    -0.133 NA
ATOM     14  N   UNL     1      -6.330   5.359   0.059  0.00  0.00    -0.125 NA
ATOM     15  C   UNL     1      -7.641   5.215   0.065  0.00  0.00    +0.180 A 
ATOM     16  S   UNL     1      -7.798   3.435   0.049  0.00  0.00    -0.024 S 
ATOM     17  N   UNL     1      -8.634   6.186   0.074  0.00  0.00    -0.336 N 
ATOM     18  H   UNL     1      -8.393   7.126   0.077  0.00  0.00    +0.144 HD
ATOM     19  H   UNL     1      -9.568   5.925   0.077  0.00  0.00    +0.144 HD
ENDBRANCH  11  12
ENDBRANCH   9  11
TORSDOF 2
