REMARK  Name = ZINC15418417
REMARK  10 active torsions:
REMARK  status: ('A' for Active; 'I' for Inactive)
REMARK    1  A    between atoms: C_1  and  C_2
REMARK    2  A    between atoms: C_2  and  C_3
REMARK    3  A    between atoms: C_3  and  C_4
REMARK    4  A    between atoms: C_4  and  N_5
REMARK    5  A    between atoms: C_6  and  N_35
REMARK    6  A    between atoms: C_7  and  N_14
REMARK    7  A    between atoms: N_14  and  C_15
REMARK    8  A    between atoms: C_15  and  C_16
REMARK    9  A    between atoms: C_22  and  C_24
REMARK   10  A    between atoms: C_24  and  N_25
REMARK                            x       y       z     vdW  Elec       q    Type
REMARK                         _______ _______ _______ _____ _____    ______ ____
ROOT
ATOM      1  N   UNL     1       2.269   4.387  -0.338  0.00  0.00    -0.259 N 
ATOM      2  C   UNL     1       3.456   3.764  -0.488  0.00  0.00    +0.238 C 
ATOM      3  O   UNL     1       3.498   2.643  -0.950  0.00  0.00    -0.274 OA
ENDROOT
BRANCH   1   6
ATOM      4  N   UNL     1      -0.898   3.397  -1.917  0.00  0.00    -0.280 N 
ATOM      5  C   UNL     1       0.265   4.089  -1.668  0.00  0.00    +0.127 A 
ATOM      6  C   UNL     1       1.070   3.698  -0.618  0.00  0.00    +0.140 A 
ATOM      7  C   UNL     1       0.674   2.599   0.169  0.00  0.00    +0.277 A 
ATOM      8  O   UNL     1       1.367   2.232   1.103  0.00  0.00    -0.266 OA
ATOM      9  N   UNL     1      -0.474   1.956  -0.118  0.00  0.00    -0.273 N 
ATOM     10  H   UNL     1      -0.754   1.173   0.438  0.00  0.00    +0.173 HD
ATOM     11  C   UNL     1      -1.249   2.355  -1.142  0.00  0.00    +0.331 A 
ATOM     12  O   UNL     1      -2.283   1.759  -1.375  0.00  0.00    -0.246 OA
BRANCH   5  13
ATOM     13  N   UNL     1       0.621   5.157  -2.457  0.00  0.00    -0.343 N 
ATOM     14  H   UNL     1       0.089   5.383  -3.236  0.00  0.00    +0.144 HD
ATOM     15  H   UNL     1       1.403   5.685  -2.234  0.00  0.00    +0.144 HD
ENDBRANCH   5  13
BRANCH   4  16
ATOM     16  C   UNL     1      -1.762   3.802  -3.028  0.00  0.00    +0.128 C 
BRANCH  16  17
ATOM     17  C   UNL     1      -1.346   3.054  -4.297  0.00  0.00    +0.021 C 
BRANCH  17  19
ATOM     18  C   UNL     1      -1.833   2.729  -6.726  0.00  0.00    +0.004 C 
ATOM     19  C   UNL     1      -2.249   3.477  -5.457  0.00  0.00    -0.002 C 
ENDBRANCH  17  19
ENDBRANCH  16  17
ENDBRANCH   4  16
ENDBRANCH   1   6
BRANCH   1  20
ATOM     20  C   UNL     1       2.224   5.779   0.117  0.00  0.00    +0.149 C 
BRANCH  20  21
ATOM     21  C   UNL     1       2.006   5.813   1.608  0.00  0.00    -0.030 A 
ATOM     22  C   UNL     1       0.725   5.729   2.121  0.00  0.00    +0.005 A 
ATOM     23  C   UNL     1       0.526   5.755   3.489  0.00  0.00    +0.000 A 
ATOM     24  C   UNL     1       1.606   5.877   4.343  0.00  0.00    +0.000 A 
ATOM     25  C   UNL     1       2.886   5.967   3.830  0.00  0.00    +0.000 A 
ATOM     26  C   UNL     1       3.086   5.935   2.462  0.00  0.00    +0.005 A 
ENDBRANCH  20  21
ENDBRANCH   1  20
BRANCH   2  27
ATOM     27  C   UNL     1       4.729   4.460  -0.083  0.00  0.00    +0.201 C 
BRANCH  27  28
ATOM     28  N   UNL     1       5.880   3.610  -0.416  0.00  0.00    -0.319 N 
ATOM     29  C   UNL     1       5.911   2.422   0.426  0.00  0.00    +0.116 C 
ATOM     30  C   UNL     1       7.267   1.716   0.255  0.00  0.00    +0.093 C 
ATOM     31  S   UNL     1       7.277   1.009  -1.423  0.00  0.00    -0.122 S 
ATOM     32  C   UNL     1       6.575   2.310  -2.391  0.00  0.00    +0.029 A 
ATOM     33  C   UNL     1       5.970   3.408  -1.789  0.00  0.00    +0.044 A 
ATOM     34  C   UNL     1       5.410   4.392  -2.607  0.00  0.00    +0.024 A 
ATOM     35  C   UNL     1       5.465   4.285  -3.980  0.00  0.00    +0.002 A 
ATOM     36  C   UNL     1       6.081   3.197  -4.570  0.00  0.00    +0.001 A 
ATOM     37  C   UNL     1       6.634   2.212  -3.776  0.00  0.00    +0.016 A 
ENDBRANCH  27  28
ENDBRANCH   2  27
TORSDOF 9
