REMARK  Name = ZINC39595657
REMARK  7 active torsions:
REMARK  status: ('A' for Active; 'I' for Inactive)
REMARK    1  A    between atoms: C_1  and  C_2
REMARK    2  A    between atoms: C_2  and  C_4
REMARK    3  A    between atoms: C_2  and  O_28
REMARK    4  A    between atoms: C_4  and  N_5
REMARK    5  A    between atoms: C_6  and  C_8
REMARK    6  A    between atoms: C_19  and  C_21
REMARK    7  A    between atoms: O_28  and  C_29
REMARK                            x       y       z     vdW  Elec       q    Type
REMARK                         _______ _______ _______ _____ _____    ______ ____
ROOT
ATOM      1  C   UNL     1       0.985  -4.180  -2.554  0.00  0.00    +0.100 C 
ATOM      2  C   UNL     1      -0.459  -4.629  -2.872  0.00  0.00    +0.121 C 
ATOM      3  N   UNL     1      -0.481  -4.806  -4.343  0.00  0.00    -0.296 N 
ATOM      4  C   UNL     1       0.831  -5.420  -4.660  0.00  0.00    +0.115 C 
ATOM      5  C   UNL     1       1.829  -4.704  -3.728  0.00  0.00    -0.004 C 
ATOM      6  C   UNL     1       2.881  -5.688  -3.225  0.00  0.00    -0.010 C 
ATOM      7  C   UNL     1       3.745  -6.151  -4.401  0.00  0.00    -0.082 C 
ATOM      8  N   UNL     1       4.391  -4.989  -5.023  0.00  0.00    +0.379 N 
ATOM      9  C   UNL     1       3.374  -4.093  -5.587  0.00  0.00    -0.082 C 
ATOM     10  C   UNL     1       2.494  -3.543  -4.461  0.00  0.00    -0.010 C 
ATOM     11  C   UNL     1      -1.470  -4.483  -5.199  0.00  0.00    +0.247 C 
ATOM     12  O   UNL     1      -2.449  -3.883  -4.799  0.00  0.00    -0.270 OA
ATOM     13  H   UNL     1       4.927  -4.492  -4.328  0.00  0.00    -0.086 HD
ATOM     14  H   UNL     1       5.006  -5.302  -5.759  0.00  0.00    -0.086 HD
ENDROOT
BRANCH  11  15
ATOM     15  C   UNL     1      -1.365  -4.858  -6.625  0.00  0.00    +0.038 A 
ATOM     16  C   UNL     1      -0.571  -5.939  -7.009  0.00  0.00    +0.013 A 
ATOM     17  C   UNL     1      -0.477  -6.284  -8.341  0.00  0.00    +0.002 A 
ATOM     18  C   UNL     1      -1.167  -5.560  -9.297  0.00  0.00    +0.015 A 
ATOM     19  C   UNL     1      -1.956  -4.486  -8.924  0.00  0.00    +0.019 A 
ATOM     20  C   UNL     1      -2.064  -4.135  -7.593  0.00  0.00    +0.028 A 
ATOM     21 BR   UNL     1      -2.894  -3.502 -10.239  0.00  0.00    -0.050 Br
ENDBRANCH  11  15
BRANCH   1  23
ATOM     22  N   UNL     1       2.083  -2.085  -1.828  0.00  0.00    -0.312 N 
ATOM     23  C   UNL     1       1.063  -2.677  -2.482  0.00  0.00    +0.218 C 
ATOM     24  O   UNL     1       0.209  -1.999  -3.013  0.00  0.00    -0.275 OA
ATOM     25  H   UNL     1       2.766  -2.627  -1.403  0.00  0.00    +0.149 HD
BRANCH  22  26
ATOM     26  C   UNL     1       2.159  -0.624  -1.758  0.00  0.00    +0.148 C 
BRANCH  26  28
ATOM     27  C   UNL     1       3.415   1.304  -0.785  0.00  0.00    +0.053 C 
ATOM     28  C   UNL     1       3.402  -0.215  -0.965  0.00  0.00    +0.187 C 
BRANCH  28  29
ATOM     29  O   UNL     1       4.574  -0.622  -1.674  0.00  0.00    -0.488 OA
BRANCH  29  30
ATOM     30  C   UNL     1       5.702  -0.819  -0.940  0.00  0.00    +0.121 A 
ATOM     31  C   UNL     1       5.654  -0.729   0.443  0.00  0.00    +0.048 A 
ATOM     32  C   UNL     1       6.801  -0.930   1.187  0.00  0.00    +0.042 A 
ATOM     33  C   UNL     1       7.997  -1.220   0.553  0.00  0.00    +0.124 A 
ATOM     34  C   UNL     1       8.045  -1.310  -0.828  0.00  0.00    +0.042 A 
ATOM     35  C   UNL     1       6.899  -1.116  -1.574  0.00  0.00    +0.048 A 
ATOM     36  F   UNL     1       9.117  -1.416   1.282  0.00  0.00    -0.205 F 
ENDBRANCH  29  30
ENDBRANCH  28  29
ENDBRANCH  26  28
ENDBRANCH  22  26
ENDBRANCH   1  23
TORSDOF 6
