REMARK  Name = ZINC47337779
REMARK  6 active torsions:
REMARK  status: ('A' for Active; 'I' for Inactive)
REMARK    1  A    between atoms: C_1  and  C_2
REMARK    2  A    between atoms: C_5  and  N_9
REMARK    3  A    between atoms: N_12  and  C_13
REMARK    4  A    between atoms: C_13  and  C_15
REMARK    5  A    between atoms: C_13  and  C_16
REMARK    6  A    between atoms: C_20  and  N_22
REMARK                            x       y       z     vdW  Elec       q    Type
REMARK                         _______ _______ _______ _____ _____    ______ ____
ROOT
ATOM      1  N   UNL     1       0.059  -4.173  -0.025  0.00  0.00    -0.267 N 
ATOM      2  C   UNL     1      -0.040  -4.840  -1.192  0.00  0.00    +0.304 C 
ATOM      3  O   UNL     1      -0.054  -4.229  -2.243  0.00  0.00    -0.252 OA
ATOM      4  N   UNL     1      -0.124  -6.185  -1.194  0.00  0.00    -0.293 N 
ATOM      5  H   UNL     1       0.135  -4.662   0.809  0.00  0.00    +0.156 HD
ATOM      6  H   UNL     1      -0.113  -6.673  -0.355  0.00  0.00    +0.151 HD
ENDROOT
BRANCH   1  11
ATOM      7  C   UNL     1       0.030   1.503   0.005  0.00  0.00    +0.044 C 
ATOM      8  C   UNL     1       0.037  -0.004  -0.002  0.00  0.00    -0.048 A 
ATOM      9  C   UNL     1       0.633  -0.686  -1.046  0.00  0.00    +0.005 A 
ATOM     10  C   UNL     1       0.641  -2.067  -1.057  0.00  0.00    +0.026 A 
ATOM     11  C   UNL     1       0.052  -2.772  -0.017  0.00  0.00    +0.070 A 
ATOM     12  C   UNL     1      -0.547  -2.084   1.033  0.00  0.00    +0.145 A 
ATOM     13  C   UNL     1      -0.548  -0.701   1.039  0.00  0.00    +0.043 A 
ATOM     14  F   UNL     1      -1.123  -2.766   2.047  0.00  0.00    -0.204 F 
ENDBRANCH   1  11
BRANCH   4  15
ATOM     15  C   UNL     1      -0.232  -6.911  -2.462  0.00  0.00    +0.102 C 
ATOM     16  C   UNL     1      -1.698  -6.965  -2.895  0.00  0.00    +0.033 C 
BRANCH  15  17
ATOM     17  C   UNL     1       0.292  -8.313  -2.284  0.00  0.00    -0.025 A 
ATOM     18  C   UNL     1       0.007  -9.016  -1.129  0.00  0.00    +0.005 A 
ATOM     19  C   UNL     1       0.488 -10.302  -0.966  0.00  0.00    +0.003 A 
ATOM     20  C   UNL     1       1.253 -10.885  -1.959  0.00  0.00    +0.033 A 
ATOM     21  C   UNL     1       1.537 -10.182  -3.115  0.00  0.00    +0.127 A 
ATOM     22  C   UNL     1       1.053  -8.897  -3.279  0.00  0.00    +0.038 A 
BRANCH  21  23
ATOM     23  N   UNL     1       2.357 -10.805  -4.178  0.00  0.00    +0.056 N 
ATOM     24  O   UNL     1       2.778 -11.930  -4.035  0.00  0.00    -0.126 OA
ATOM     25  O   UNL     1       2.606 -10.190  -5.189  0.00  0.00    -0.126 OA
ENDBRANCH  21  23
ENDBRANCH  15  17
ENDBRANCH   4  15
TORSDOF 4
