REMARK  Name = ZINC09042259
REMARK  7 active torsions:
REMARK  status: ('A' for Active; 'I' for Inactive)
REMARK    1  A    between atoms: C_1  and  O_2
REMARK    2  A    between atoms: O_2  and  C_3
REMARK    3  A    between atoms: C_15  and  C_16
REMARK    4  A    between atoms: C_15  and  N_66
REMARK    5  A    between atoms: C_26  and  C_28
REMARK    6  A    between atoms: C_33  and  O_34
REMARK    7  A    between atoms: O_34  and  C_35
REMARK                            x       y       z     vdW  Elec       q    Type
REMARK                         _______ _______ _______ _____ _____    ______ ____
ROOT
ATOM      1  C   UNL     1       5.653  -1.467  -6.757  0.00  0.00    +0.162 A 
ATOM      2  C   UNL     1       6.636  -2.314  -7.234  0.00  0.00    +0.049 A 
ATOM      3  C   UNL     1       7.127  -3.327  -6.431  0.00  0.00    +0.004 A 
ATOM      4  C   UNL     1       6.637  -3.484  -5.149  0.00  0.00    +0.009 A 
ATOM      5  C   UNL     1       5.659  -2.635  -4.664  0.00  0.00    +0.020 A 
ATOM      6  C   UNL     1       5.148  -1.624  -5.462  0.00  0.00    +0.170 A 
ATOM      7  O   UNL     1       4.170  -0.767  -5.066  0.00  0.00    -0.463 OA
ATOM      8  C   UNL     1       3.789  -0.701  -3.691  0.00  0.00    +0.190 C 
ATOM      9  C   UNL     1       4.731   0.230  -2.929  0.00  0.00    +0.052 C 
ATOM     10  C   UNL     1       4.284   0.317  -1.467  0.00  0.00    -0.073 C 
ATOM     11  C   UNL     1       1.977  -0.098  -2.086  0.00  0.00    -0.073 C 
ATOM     12  C   UNL     1       2.353  -0.198  -3.567  0.00  0.00    +0.052 C 
ATOM     13  N   UNL     1       3.892  -2.062  -3.157  0.00  0.00    -0.207 N 
ATOM     14  C   UNL     1       5.163  -2.816  -3.253  0.00  0.00    +0.136 C 
ATOM     15  C   UNL     1       4.722  -4.260  -2.980  0.00  0.00    +0.086 C 
ATOM     16  C   UNL     1       3.303  -4.110  -2.470  0.00  0.00    +0.072 C 
ATOM     17  N   UNL     1       2.933  -2.876  -2.584  0.00  0.00    -0.184 NA
ATOM     18  N   UNL     1       2.903   0.843  -1.419  0.00  0.00    +0.383 N 
ATOM     19  H   UNL     1       2.873   1.744  -1.911  0.00  0.00    -0.081 HD
ENDROOT
BRANCH  16  20
ATOM     20  C   UNL     1       2.474  -5.201  -1.927  0.00  0.00    +0.040 A 
ATOM     21  C   UNL     1       2.981  -6.500  -1.857  0.00  0.00    +0.013 A 
ATOM     22  C   UNL     1       2.201  -7.516  -1.343  0.00  0.00    +0.001 A 
ATOM     23  C   UNL     1       0.914  -7.255  -0.907  0.00  0.00    +0.004 A 
ATOM     24  C   UNL     1       0.399  -5.974  -0.976  0.00  0.00    +0.046 A 
ATOM     25  C   UNL     1       1.170  -4.941  -1.483  0.00  0.00    +0.136 A 
BRANCH  25  26
ATOM     26  O   UNL     1       0.665  -3.682  -1.551  0.00  0.00    -0.434 OA
BRANCH  26  27
ATOM     27  C   UNL     1      -0.671  -3.493  -1.081  0.00  0.00    +0.541 C 
ATOM     28  F   UNL     1      -1.546  -4.290  -1.828  0.00  0.00    -0.166 F 
ATOM     29  F   UNL     1      -0.747  -3.857   0.268  0.00  0.00    -0.166 F 
ENDBRANCH  26  27
ENDBRANCH  25  26
ENDBRANCH  16  20
BRANCH   1  31
ATOM     30  C   UNL     1       5.731  -0.366  -8.864  0.00  0.00    +0.277 C 
ATOM     31  O   UNL     1       5.173  -0.474  -7.553  0.00  0.00    -0.491 OA
ENDBRANCH   1  31
BRANCH  18  32
ATOM     32  C   UNL     1       2.490   1.048  -0.016  0.00  0.00    -0.043 C 
BRANCH  32  33
ATOM     33  C   UNL     1       1.175   1.783   0.000  0.00  0.00    -0.064 A 
ATOM     34  C   UNL     1      -0.013   1.076   0.008  0.00  0.00    +0.002 A 
ATOM     35  C   UNL     1      -1.219   1.751   0.017  0.00  0.00    +0.000 A 
ATOM     36  C   UNL     1      -1.238   3.133   0.029  0.00  0.00    +0.000 A 
ATOM     37  C   UNL     1      -0.050   3.840   0.022  0.00  0.00    +0.000 A 
ATOM     38  C   UNL     1       1.156   3.165   0.008  0.00  0.00    +0.002 A 
ENDBRANCH  32  33
ENDBRANCH  18  32
TORSDOF 6
