REMARK  Name = ZINC09124719
REMARK  7 active torsions:
REMARK  status: ('A' for Active; 'I' for Inactive)
REMARK    1  A    between atoms: C_1  and  C_2
REMARK    2  A    between atoms: C_4  and  C_34
REMARK    3  A    between atoms: C_5  and  O_33
REMARK    4  A    between atoms: C_6  and  C_8
REMARK    5  A    between atoms: N_16  and  C_26
REMARK    6  A    between atoms: C_17  and  C_19
REMARK    7  A    between atoms: C_26  and  C_27
REMARK                            x       y       z     vdW  Elec       q    Type
REMARK                         _______ _______ _______ _____ _____    ______ ____
ROOT
ATOM      1  C   UNL     1      -0.236  -2.950   2.695  0.00  0.00    +0.075 A 
ATOM      2  C   UNL     1       0.837  -3.602   3.212  0.00  0.00    +0.035 A 
ATOM      3  C   UNL     1       0.435  -4.064   4.486  0.00  0.00    +0.153 A 
ATOM      4  N   UNL     1      -0.813  -3.678   4.658  0.00  0.00    -0.168 NA
ATOM      5  N   UNL     1      -1.227  -3.022   3.632  0.00  0.00    -0.276 N 
ATOM      6  H   UNL     1      -2.112  -2.638   3.537  0.00  0.00    +0.189 HD
ATOM      7  C   UNL     1       1.574  -4.780   5.088  0.00  0.00    +0.268 C 
ATOM      8  O   UNL     1       1.563  -5.304   6.185  0.00  0.00    -0.268 OA
ATOM      9  N   UNL     1       2.627  -4.774   4.253  0.00  0.00    -0.281 N 
ATOM     10  C   UNL     1       2.262  -4.049   3.030  0.00  0.00    +0.142 C 
ENDROOT
BRANCH   1  16
ATOM     11  C   UNL     1      -2.173  -2.686  -1.895  0.00  0.00    +0.044 C 
ATOM     12  C   UNL     1      -1.244  -2.154  -0.835  0.00  0.00    -0.049 A 
ATOM     13  C   UNL     1      -0.463  -1.042  -1.098  0.00  0.00    +0.010 A 
ATOM     14  C   UNL     1       0.393  -0.546  -0.132  0.00  0.00    -0.008 A 
ATOM     15  C   UNL     1       0.473  -1.161   1.106  0.00  0.00    +0.129 A 
ATOM     16  C   UNL     1      -0.315  -2.286   1.376  0.00  0.00    +0.042 A 
ATOM     17  C   UNL     1      -1.179  -2.774   0.396  0.00  0.00    +0.017 A 
ATOM     18  C   UNL     1       1.240   0.665  -0.428  0.00  0.00    +0.047 C 
BRANCH  15  19
ATOM     19  O   UNL     1       1.314  -0.675   2.056  0.00  0.00    -0.506 OA
ATOM     20  H   UNL     1       0.913  -0.012   2.635  0.00  0.00    +0.292 HD
ENDBRANCH  15  19
ENDBRANCH   1  16
BRANCH  10  21
ATOM     21  C   UNL     1       2.369  -4.962   1.835  0.00  0.00    -0.021 A 
ATOM     22  C   UNL     1       1.790  -6.217   1.871  0.00  0.00    +0.006 A 
ATOM     23  C   UNL     1       1.888  -7.054   0.775  0.00  0.00    +0.002 A 
ATOM     24  C   UNL     1       2.565  -6.638  -0.355  0.00  0.00    +0.020 A 
ATOM     25  C   UNL     1       3.144  -5.382  -0.391  0.00  0.00    +0.041 A 
ATOM     26  C   UNL     1       3.041  -4.542   0.703  0.00  0.00    +0.025 A 
ATOM     27 CL   UNL     1       3.995  -4.858  -1.811  0.00  0.00    -0.084 Cl
ENDBRANCH  10  21
BRANCH   9  28
ATOM     28  C   UNL     1       3.929  -5.390   4.520  0.00  0.00    +0.145 C 
BRANCH  28  29
ATOM     29  C   UNL     1       3.922  -6.814   4.028  0.00  0.00    -0.012 A 
ATOM     30  C   UNL     1       3.520  -7.844   4.866  0.00  0.00    +0.008 A 
ATOM     31  C   UNL     1       3.529  -9.139   4.371  0.00  0.00    +0.020 A 
ATOM     32  C   UNL     1       3.935  -9.359   3.068  0.00  0.00    +0.111 A 
ATOM     33  N   UNL     1       4.311  -8.355   2.300  0.00  0.00    -0.263 NA
ATOM     34  C   UNL     1       4.309  -7.110   2.735  0.00  0.00    +0.115 A 
ENDBRANCH  28  29
ENDBRANCH   9  28
TORSDOF 5
