REMARK  Name = ZINC15675580
REMARK  7 active torsions:
REMARK  status: ('A' for Active; 'I' for Inactive)
REMARK    1  A    between atoms: C_1  and  C_2
REMARK    2  A    between atoms: C_2  and  C_3
REMARK    3  A    between atoms: C_3  and  C_5
REMARK    4  A    between atoms: C_3  and  N_6
REMARK    5  A    between atoms: C_15  and  C_16
REMARK    6  A    between atoms: C_15  and  C_17
REMARK    7  A    between atoms: N_19  and  C_20
REMARK                            x       y       z     vdW  Elec       q    Type
REMARK                         _______ _______ _______ _____ _____    ______ ____
ROOT
ATOM      1  N   UNL     1       2.063   5.304   5.292  0.00  0.00    -0.278 N 
ATOM      2  C   UNL     1       2.938   4.518   5.958  0.00  0.00    +0.264 C 
ATOM      3  O   UNL     1       2.766   4.207   7.122  0.00  0.00    -0.268 OA
ATOM      4  C   UNL     1       4.109   4.058   5.200  0.00  0.00    +0.109 A 
ATOM      5  C   UNL     1       5.056   3.127   5.509  0.00  0.00    +0.079 A 
ATOM      6  C   UNL     1       5.941   3.050   4.422  0.00  0.00    +0.153 A 
ATOM      7  C   UNL     1       5.503   3.957   3.457  0.00  0.00    +0.088 A 
ATOM      8  N   UNL     1       4.390   4.578   3.939  0.00  0.00    -0.331 N 
ATOM      9  C   UNL     1       3.559   5.624   3.336  0.00  0.00    +0.157 C 
ATOM     10  C   UNL     1       2.126   5.483   3.846  0.00  0.00    +0.129 C 
ATOM     11  C   UNL     1       1.341   6.741   3.469  0.00  0.00    +0.043 C 
ATOM     12  C   UNL     1       6.409   3.846   2.375  0.00  0.00    +0.067 A 
ATOM     13  C   UNL     1       7.323   2.920   2.713  0.00  0.00    +0.198 A 
ATOM     14  O   UNL     1       7.045   2.444   3.938  0.00  0.00    -0.461 OA
ENDROOT
BRANCH  10  15
ATOM     15  C   UNL     1       1.486   4.292   3.180  0.00  0.00    +0.238 C 
ATOM     16  O   UNL     1       0.837   4.441   2.167  0.00  0.00    -0.273 OA
ATOM     17  N   UNL     1       1.636   3.062   3.710  0.00  0.00    -0.311 N 
ATOM     18  H   UNL     1       2.155   2.943   4.521  0.00  0.00    +0.149 HD
BRANCH  17  19
ATOM     19  C   UNL     1       1.014   1.905   3.062  0.00  0.00    +0.073 C 
ATOM     20  C   UNL     1       1.936   1.381   1.959  0.00  0.00    +0.022 C 
ATOM     21  C   UNL     1       1.157   1.282   0.646  0.00  0.00    +0.002 C 
ATOM     22  C   UNL     1      -0.216   0.661   0.914  0.00  0.00    +0.000 C 
ATOM     23  C   UNL     1      -0.061  -0.847   1.123  0.00  0.00    +0.000 C 
ATOM     24  C   UNL     1       0.509  -1.112   2.517  0.00  0.00    +0.000 C 
ATOM     25  C   UNL     1      -0.203  -0.224   3.539  0.00  0.00    +0.002 C 
ATOM     26  C   UNL     1       0.783   0.803   4.099  0.00  0.00    +0.022 C 
ENDBRANCH  17  19
ENDBRANCH  10  15
BRANCH   1  27
ATOM     27  C   UNL     1       1.018   5.997   6.049  0.00  0.00    +0.074 C 
ATOM     28  C   UNL     1       0.065   4.968   6.662  0.00  0.00    +0.028 C 
BRANCH  27  30
ATOM     29  C   UNL     1       2.515   7.934   6.548  0.00  0.00    +0.005 C 
ATOM     30  C   UNL     1       1.659   6.825   7.164  0.00  0.00    +0.019 C 
ENDBRANCH  27  30
ENDBRANCH   1  27
TORSDOF 4
