REMARK  Name = ZINC35549211
REMARK  6 active torsions:
REMARK  status: ('A' for Active; 'I' for Inactive)
REMARK    1  A    between atoms: C_10  and  N_11
REMARK    2  A    between atoms: C_12  and  C_14
REMARK    3  A    between atoms: C_14  and  C_15
REMARK    4  A    between atoms: C_15  and  N_16
REMARK    5  A    between atoms: C_20  and  C_21
REMARK    6  A    between atoms: C_25  and  N_27
REMARK                            x       y       z     vdW  Elec       q    Type
REMARK                         _______ _______ _______ _____ _____    ______ ____
ROOT
ATOM      1  N   UNL     1       9.786  -0.041   0.331  0.00  0.00    -0.228 N 
ATOM      2  C   UNL     1      10.419   0.315  -0.775  0.00  0.00    +0.260 C 
ATOM      3  O   UNL     1       9.996   0.020  -1.877  0.00  0.00    -0.269 OA
ATOM      4  C   UNL     1      11.665   1.091  -0.603  0.00  0.00    +0.080 C 
ATOM      5  C   UNL     1      12.513   1.584  -1.539  0.00  0.00    +0.028 C 
ATOM      6  S   UNL     1      11.749   1.199   1.180  0.00  0.00    -0.026 S 
ATOM      7  C   UNL     1      10.255   0.294   1.550  0.00  0.00    +0.286 C 
ATOM      8  O   UNL     1       9.777   0.039   2.639  0.00  0.00    -0.262 OA
ENDROOT
BRANCH   5   9
ATOM      9  C   UNL     1      13.771   2.224  -1.128  0.00  0.00    -0.022 A 
ATOM     10  C   UNL     1      14.356   1.900   0.102  0.00  0.00    +0.008 A 
ATOM     11  C   UNL     1      15.535   2.505   0.480  0.00  0.00    +0.003 A 
ATOM     12  C   UNL     1      16.142   3.430  -0.353  0.00  0.00    +0.033 A 
ATOM     13  C   UNL     1      15.570   3.756  -1.570  0.00  0.00    +0.127 A 
ATOM     14  C   UNL     1      14.393   3.155  -1.966  0.00  0.00    +0.040 A 
BRANCH  13  15
ATOM     15  N   UNL     1      16.226   4.746  -2.453  0.00  0.00    +0.056 N 
ATOM     16  O   UNL     1      17.261   5.269  -2.110  0.00  0.00    -0.126 OA
ATOM     17  O   UNL     1      15.728   5.032  -3.517  0.00  0.00    -0.126 OA
ENDBRANCH  13  15
ENDBRANCH   5   9
BRANCH   1  18
ATOM     18  C   UNL     1       8.544  -0.811   0.228  0.00  0.00    +0.127 C 
BRANCH  18  19
ATOM     19  C   UNL     1       7.355   0.147   0.147  0.00  0.00    +0.115 C 
BRANCH  19  21
ATOM     20  N   UNL     1       4.893  -0.007  -0.042  0.00  0.00    -0.285 N 
ATOM     21  C   UNL     1       6.077  -0.645   0.042  0.00  0.00    +0.219 C 
ATOM     22  O   UNL     1       6.115  -1.857   0.032  0.00  0.00    -0.275 OA
ATOM     23  H   UNL     1       4.868   0.960  -0.120  0.00  0.00    +0.155 HD
BRANCH  20  33
ATOM     24  C   UNL     1       0.205   0.779  -1.740  0.00  0.00    +0.001 A 
ATOM     25  C   UNL     1       1.382   1.525  -1.777  0.00  0.00    +0.001 A 
ATOM     26  C   UNL     1       2.531   1.048  -1.222  0.00  0.00    +0.010 A 
ATOM     27  C   UNL     1       2.533  -0.211  -0.602  0.00  0.00    +0.003 A 
ATOM     28  C   UNL     1       1.336  -0.969  -0.563  0.00  0.00    -0.016 A 
ATOM     29  C   UNL     1       0.170  -0.446  -1.148  0.00  0.00    +0.008 A 
ATOM     30  C   UNL     1       1.337  -2.230   0.057  0.00  0.00    +0.008 A 
ATOM     31  C   UNL     1       2.481  -2.713   0.615  0.00  0.00    +0.002 A 
ATOM     32  C   UNL     1       3.662  -1.977   0.584  0.00  0.00    +0.024 A 
ATOM     33  C   UNL     1       3.703  -0.737  -0.015  0.00  0.00    +0.041 A 
ENDBRANCH  20  33
ENDBRANCH  19  21
ENDBRANCH  18  19
ENDBRANCH   1  18
TORSDOF 6
