REMARK  Name = ZINC37350999
REMARK  4 active torsions:
REMARK  status: ('A' for Active; 'I' for Inactive)
REMARK    1  A    between atoms: C_1  and  C_2
REMARK    2  A    between atoms: C_5  and  C_7
REMARK    3  A    between atoms: C_8  and  C_13
REMARK    4  A    between atoms: C_9  and  N_12
REMARK                            x       y       z     vdW  Elec       q    Type
REMARK                         _______ _______ _______ _____ _____    ______ ____
ROOT
ATOM      1  C   UNL     1       1.038  -4.033  -0.024  0.00  0.00    +0.130 A 
ATOM      2  C   UNL     1       2.251  -4.498  -0.703  0.00  0.00    +0.071 A 
ATOM      3  C   UNL     1       2.357  -5.848  -0.444  0.00  0.00    +0.224 A 
ATOM      4  O   UNL     1       1.316  -6.207   0.323  0.00  0.00    -0.339 OA
ATOM      5  N   UNL     1       0.510  -5.074   0.580  0.00  0.00    -0.075 NA
ENDROOT
BRANCH   2   6
ATOM      6  C   UNL     1       3.183  -3.676  -1.511  0.00  0.00    -0.007 A 
ATOM      7  C   UNL     1       2.747  -3.090  -2.699  0.00  0.00    +0.012 A 
ATOM      8  C   UNL     1       3.615  -2.326  -3.451  0.00  0.00    +0.050 A 
ATOM      9  C   UNL     1       4.923  -2.137  -3.029  0.00  0.00    +0.166 A 
ATOM     10  C   UNL     1       5.364  -2.720  -1.843  0.00  0.00    +0.167 A 
ATOM     11  C   UNL     1       4.495  -3.482  -1.083  0.00  0.00    +0.058 A 
ATOM     12  O   UNL     1       6.674  -2.385  -1.654  0.00  0.00    -0.453 OA
ATOM     13  C   UNL     1       7.145  -1.934  -2.938  0.00  0.00    +0.466 C 
ATOM     14  O   UNL     1       5.957  -1.438  -3.582  0.00  0.00    -0.453 OA
ENDBRANCH   2   6
BRANCH   1  19
ATOM     15  C   UNL     1      -0.018   1.503   0.010  0.00  0.00    +0.051 C 
ATOM     16  C   UNL     1       0.002  -0.004   0.002  0.00  0.00    -0.013 A 
ATOM     17  C   UNL     1      -1.043  -0.872   0.002  0.00  0.00    +0.011 A 
ATOM     18  C   UNL     1      -0.790  -2.226  -0.007  0.00  0.00    +0.018 A 
ATOM     19  C   UNL     1       0.511  -2.653  -0.015  0.00  0.00    +0.042 A 
ATOM     20  S   UNL     1       1.405  -1.107  -0.018  0.00  0.00    -0.092 S 
ENDBRANCH   1  19
BRANCH   3  21
ATOM     21  N   UNL     1       3.358  -6.685  -0.895  0.00  0.00    -0.327 N 
ATOM     22  H   UNL     1       4.073  -6.332  -1.448  0.00  0.00    +0.145 HD
ATOM     23  H   UNL     1       3.347  -7.625  -0.659  0.00  0.00    +0.145 HD
ENDBRANCH   3  21
TORSDOF 3
