REMARK  Name = ZINC37496070
REMARK  4 active torsions:
REMARK  status: ('A' for Active; 'I' for Inactive)
REMARK    1  A    between atoms: C_1  and  C_2
REMARK    2  A    between atoms: C_2  and  C_3
REMARK    3  A    between atoms: C_2  and  C_4
REMARK    4  A    between atoms: C_12  and  C_14
REMARK                            x       y       z     vdW  Elec       q    Type
REMARK                         _______ _______ _______ _____ _____    ______ ____
ROOT
ATOM      1  C   UNL     1      -1.965  -1.185  -1.489  0.00  0.00    +0.218 C 
ATOM      2  O   UNL     1      -2.868  -0.376  -1.472  0.00  0.00    -0.275 OA
ATOM      3  N   UNL     1      -2.155  -2.417  -0.977  0.00  0.00    -0.298 N 
ATOM      4  C   UNL     1      -1.040  -3.370  -0.889  0.00  0.00    +0.127 C 
ATOM      5  C   UNL     1      -0.909  -3.839   0.565  0.00  0.00    +0.127 C 
ATOM      6  N   UNL     1      -2.235  -4.254   1.046  0.00  0.00    -0.293 N 
ATOM      7  C   UNL     1      -3.350  -3.300   0.958  0.00  0.00    +0.127 C 
ATOM      8  C   UNL     1      -3.479  -2.830  -0.492  0.00  0.00    +0.127 C 
ATOM      9  C   UNL     1      -2.425  -5.486   1.558  0.00  0.00    +0.263 C 
ATOM     10  O   UNL     1      -3.531  -5.824   1.935  0.00  0.00    -0.268 OA
ENDROOT
BRANCH   9  11
ATOM     11  C   UNL     1      -1.298  -6.419   1.659  0.00  0.00    +0.103 A 
ATOM     12  C   UNL     1      -1.377  -7.796   1.659  0.00  0.00    +0.047 A 
ATOM     13  C   UNL     1      -0.071  -8.283   1.773  0.00  0.00    +0.036 A 
ATOM     14  C   UNL     1       0.765  -7.219   1.840  0.00  0.00    +0.098 A 
ATOM     15  N   UNL     1       0.032  -6.080   1.766  0.00  0.00    -0.356 N 
ATOM     16  H   UNL     1       0.386  -5.178   1.787  0.00  0.00    +0.165 HD
ATOM     17 BR   UNL     1       0.437 -10.104   1.826  0.00  0.00    -0.049 Br
ENDBRANCH   9  11
BRANCH   1  19
ATOM     18  C   UNL     1      -0.827   0.283  -3.132  0.00  0.00    +0.017 C 
ATOM     19  C   UNL     1      -0.631  -0.813  -2.082  0.00  0.00    +0.069 C 
ATOM     20  C   UNL     1       0.293  -0.299  -0.977  0.00  0.00    +0.017 C 
ENDBRANCH   1  19
TORSDOF 2
