REMARK  Name = ZINC12041093
REMARK  11 active torsions:
REMARK  status: ('A' for Active; 'I' for Inactive)
REMARK    1  A    between atoms: C_1  and  C_2
REMARK    2  A    between atoms: C_4  and  C_35
REMARK    3  A    between atoms: C_6  and  C_8
REMARK    4  A    between atoms: C_13  and  C_16
REMARK    5  A    between atoms: C_16  and  C_27
REMARK    6  A    between atoms: N_19  and  C_23
REMARK    7  A    between atoms: C_23  and  C_24
REMARK    8  A    between atoms: C_24  and  N_71
REMARK    9  A    between atoms: C_25  and  N_71
REMARK   10  A    between atoms: C_26  and  N_71
REMARK   11  A    between atoms: C_27  and  C_28
REMARK                            x       y       z     vdW  Elec       q    Type
REMARK                         _______ _______ _______ _____ _____    ______ ____
ROOT
ATOM      1  C   UNL     1       4.096   1.716   2.013  0.00  0.00    +0.119 C 
ATOM      2  C   UNL     1       3.907   1.238   3.439  0.00  0.00    +0.247 C 
ATOM      3  O   UNL     1       2.979   1.488   4.178  0.00  0.00    -0.273 OA
ATOM      4  N   UNL     1       4.989   0.475   3.711  0.00  0.00    -0.226 N 
ATOM      5  C   UNL     1       5.824   0.411   2.667  0.00  0.00    +0.309 C 
ATOM      6  O   UNL     1       6.866  -0.214   2.672  0.00  0.00    -0.252 OA
ATOM      7  N   UNL     1       5.380   1.117   1.610  0.00  0.00    -0.284 N 
ATOM      8  H   UNL     1       5.820   1.211   0.751  0.00  0.00    +0.151 HD
ENDROOT
BRANCH   1  14
ATOM      9  C   UNL     1      -0.667  -0.705   0.939  0.00  0.00    +0.247 C 
ATOM     10  O   UNL     1      -1.651  -0.073   1.272  0.00  0.00    -0.270 OA
ATOM     11  N   UNL     1       0.480  -0.061   0.646  0.00  0.00    -0.298 N 
ATOM     12  C   UNL     1       0.525   1.407   0.606  0.00  0.00    +0.108 C 
ATOM     13  C   UNL     1       1.652   1.890   1.524  0.00  0.00    +0.025 C 
ATOM     14  C   UNL     1       2.962   1.210   1.120  0.00  0.00    +0.025 C 
ATOM     15  C   UNL     1       2.823  -0.306   1.283  0.00  0.00    +0.025 C 
ATOM     16  C   UNL     1       1.709  -0.814   0.362  0.00  0.00    +0.108 C 
BRANCH   9  22
ATOM     17  C   UNL     1       0.699  -4.964  -1.273  0.00  0.00    +0.044 C 
ATOM     18  C   UNL     1      -0.075  -4.232  -0.207  0.00  0.00    -0.049 A 
ATOM     19  C   UNL     1      -0.848  -4.942   0.695  0.00  0.00    +0.006 A 
ATOM     20  C   UNL     1      -1.562  -4.277   1.676  0.00  0.00    -0.049 A 
ATOM     21  C   UNL     1      -1.507  -2.902   1.761  0.00  0.00    +0.016 A 
ATOM     22  C   UNL     1      -0.730  -2.180   0.854  0.00  0.00    +0.037 A 
ATOM     23  C   UNL     1      -0.016  -2.856  -0.137  0.00  0.00    +0.016 A 
ATOM     24  C   UNL     1      -2.401  -5.059   2.654  0.00  0.00    +0.044 C 
ENDBRANCH   9  22
ENDBRANCH   1  14
BRANCH   4  25
ATOM     25  C   UNL     1       5.221  -0.196   4.992  0.00  0.00    +0.099 C 
BRANCH  25  26
ATOM     26  C   UNL     1       5.998   0.737   5.923  0.00  0.00    -0.060 C 
BRANCH  26  29
ATOM     27  C   UNL     1       7.124  -1.091   7.043  0.00  0.00    -0.097 C 
ATOM     28  C   UNL     1       6.761   1.002   8.206  0.00  0.00    -0.097 C 
ATOM     29  N   UNL     1       6.205   0.054   7.217  0.00  0.00    +0.377 N 
ATOM     30  H   UNL     1       5.302  -0.293   7.560  0.00  0.00    -0.083 HD
ENDBRANCH  26  29
ENDBRANCH  25  26
ENDBRANCH   4  25
BRANCH   1  31
ATOM     31  C   UNL     1       4.177   3.244   1.964  0.00  0.00    +0.070 C 
BRANCH  31  32
ATOM     32  C   UNL     1       5.374   3.709   2.751  0.00  0.00    -0.042 A 
ATOM     33  C   UNL     1       6.599   3.855   2.125  0.00  0.00    +0.004 A 
ATOM     34  C   UNL     1       7.698   4.282   2.846  0.00  0.00    +0.003 A 
ATOM     35  C   UNL     1       7.574   4.564   4.194  0.00  0.00    +0.038 A 
ATOM     36  C   UNL     1       6.349   4.418   4.822  0.00  0.00    +0.124 A 
ATOM     37  C   UNL     1       5.247   3.995   4.097  0.00  0.00    +0.042 A 
ATOM     38  F   UNL     1       6.227   4.693   6.139  0.00  0.00    -0.205 F 
ENDBRANCH  31  32
ENDBRANCH   1  31
TORSDOF 7
