REMARK  Name = ZINC05776831
REMARK  4 active torsions:
REMARK  status: ('A' for Active; 'I' for Inactive)
REMARK    1  A    between atoms: C_7  and  C_11
REMARK    2  A    between atoms: C_11  and  C_12
REMARK    3  A    between atoms: N_14  and  N_15
REMARK    4  A    between atoms: C_16  and  C_17
REMARK                            x       y       z     vdW  Elec       q    Type
REMARK                         _______ _______ _______ _____ _____    ______ ____
ROOT
ATOM      1  C   UNL     1      -7.185  -0.192   0.042  0.00  0.00    +0.237 C 
ATOM      2  O   UNL     1      -7.197   1.021   0.050  0.00  0.00    -0.274 OA
ATOM      3  N   UNL     1      -6.011  -0.854   0.031  0.00  0.00    -0.207 N 
ATOM      4  H   UNL     1      -6.001  -1.824   0.024  0.00  0.00    +0.177 HD
ENDROOT
BRANCH   3   5
ATOM      5  N   UNL     1      -4.805  -0.141   0.028  0.00  0.00    -0.188 NA
ATOM      6  C   UNL     1      -3.674  -0.778   0.018  0.00  0.00    +0.138 C 
BRANCH   6   7
ATOM      7  C   UNL     1      -2.405  -0.028   0.015  0.00  0.00    -0.002 A 
ATOM      8  C   UNL     1      -2.417   1.369   0.025  0.00  0.00    +0.013 A 
ATOM      9  C   UNL     1      -1.228   2.067   0.019  0.00  0.00    +0.050 A 
ATOM     10  C   UNL     1      -0.017   1.388   0.010  0.00  0.00    +0.162 A 
ATOM     11  C   UNL     1       0.002  -0.004   0.002  0.00  0.00    +0.163 A 
ATOM     12  C   UNL     1      -1.187  -0.712   0.004  0.00  0.00    +0.059 A 
ATOM     13  O   UNL     1       1.181  -0.685  -0.006  0.00  0.00    -0.485 OA
ATOM     14  C   UNL     1       2.348   0.054  -0.386  0.00  0.00    +0.270 C 
ATOM     15  C   UNL     1       2.334   1.392   0.366  0.00  0.00    +0.270 C 
ATOM     16  O   UNL     1       1.144   2.099   0.002  0.00  0.00    -0.485 OA
ENDBRANCH   6   7
ENDBRANCH   3   5
BRANCH   1  17
ATOM     17  C   UNL     1      -8.482  -0.959   0.044  0.00  0.00    +0.134 C 
BRANCH  17  24
ATOM     18  C   UNL     1     -10.769   1.350  -3.334  0.00  0.00    +0.001 A 
ATOM     19  C   UNL     1     -11.792   2.151  -2.845  0.00  0.00    +0.002 A 
ATOM     20  C   UNL     1     -12.051   2.212  -1.493  0.00  0.00    +0.026 A 
ATOM     21  C   UNL     1     -11.282   1.464  -0.607  0.00  0.00    +0.047 A 
ATOM     22  C   UNL     1     -10.246   0.654  -1.108  0.00  0.00    +0.003 A 
ATOM     23  C   UNL     1     -10.001   0.608  -2.482  0.00  0.00    +0.010 A 
ATOM     24  C   UNL     1      -9.637   0.009   0.057  0.00  0.00    -0.014 A 
ATOM     25  C   UNL     1     -10.308   0.438   1.138  0.00  0.00    +0.087 A 
ATOM     26  N   UNL     1     -11.290   1.312   0.761  0.00  0.00    -0.360 N 
ATOM     27  H   UNL     1     -11.904   1.756   1.367  0.00  0.00    +0.165 HD
ENDBRANCH  17  24
ENDBRANCH   1  17
TORSDOF 4
