REMARK  Name = ZINC39324905
REMARK  11 active torsions:
REMARK  status: ('A' for Active; 'I' for Inactive)
REMARK    1  A    between atoms: C_1  and  O_2
REMARK    2  A    between atoms: O_2  and  C_3
REMARK    3  A    between atoms: C_6  and  C_9
REMARK    4  A    between atoms: C_16  and  N_38
REMARK    5  A    between atoms: C_17  and  C_36
REMARK    6  A    between atoms: C_18  and  C_20
REMARK    7  A    between atoms: C_23  and  O_34
REMARK    8  A    between atoms: C_24  and  O_26
REMARK    9  A    between atoms: O_26  and  C_27
REMARK   10  A    between atoms: C_27  and  C_28
REMARK   11  A    between atoms: O_34  and  C_35
REMARK                            x       y       z     vdW  Elec       q    Type
REMARK                         _______ _______ _______ _____ _____    ______ ____
ROOT
ATOM      1  C   UNL     1      -4.960  -2.618   0.035  0.00  0.00    +0.074 A 
ATOM      2  C   UNL     1      -5.308  -3.673   0.812  0.00  0.00    +0.054 A 
ATOM      3  C   UNL     1      -6.638  -4.021   0.506  0.00  0.00    +0.245 A 
ATOM      4  N   UNL     1      -7.073  -3.208  -0.414  0.00  0.00    -0.135 NA
ATOM      5  N   UNL     1      -6.046  -2.307  -0.733  0.00  0.00    -0.273 N 
ATOM      6  H   UNL     1      -6.098  -1.590  -1.385  0.00  0.00    +0.189 HD
ATOM      7  O   UNL     1      -7.273  -5.052   1.126  0.00  0.00    -0.421 OA
ATOM      8  C   UNL     1      -6.517  -5.907   1.843  0.00  0.00    +0.201 C 
ATOM      9  C   UNL     1      -5.237  -5.677   2.205  0.00  0.00    +0.098 C 
ATOM     10  C   UNL     1      -4.497  -4.413   1.844  0.00  0.00    +0.102 C 
ENDROOT
BRANCH   1  14
ATOM     11  C   UNL     1      -1.200  -0.637   0.010  0.00  0.00    +0.120 A 
ATOM     12  C   UNL     1      -2.374   0.105   0.019  0.00  0.00    +0.046 A 
ATOM     13  C   UNL     1      -3.595  -0.534   0.028  0.00  0.00    +0.013 A 
ATOM     14  C   UNL     1      -3.651  -1.929   0.026  0.00  0.00    +0.000 A 
ATOM     15  C   UNL     1      -2.470  -2.671   0.016  0.00  0.00    +0.013 A 
ATOM     16  C   UNL     1      -1.252  -2.025   0.003  0.00  0.00    +0.046 A 
BRANCH  11  18
ATOM     17  C   UNL     1      -0.017   1.425   0.010  0.00  0.00    +0.277 C 
ATOM     18  O   UNL     1       0.002  -0.004   0.002  0.00  0.00    -0.495 OA
ENDBRANCH  11  18
ENDBRANCH   1  14
BRANCH  10  19
ATOM     19  C   UNL     1      -4.330  -3.554   3.071  0.00  0.00    -0.031 A 
ATOM     20  C   UNL     1      -5.442  -3.129   3.773  0.00  0.00    +0.008 A 
ATOM     21  C   UNL     1      -5.294  -2.341   4.899  0.00  0.00    +0.050 A 
ATOM     22  C   UNL     1      -4.028  -1.976   5.327  0.00  0.00    +0.162 A 
ATOM     23  C   UNL     1      -2.908  -2.404   4.621  0.00  0.00    +0.163 A 
ATOM     24  C   UNL     1      -3.063  -3.198   3.496  0.00  0.00    +0.054 A 
BRANCH  22  25
ATOM     25  O   UNL     1      -3.880  -1.200   6.434  0.00  0.00    -0.491 OA
ATOM     26  C   UNL     1      -5.074  -0.797   7.108  0.00  0.00    +0.277 C 
ENDBRANCH  22  25
BRANCH  23  27
ATOM     27  O   UNL     1      -1.663  -2.048   5.037  0.00  0.00    -0.484 OA
BRANCH  27  28
ATOM     28  C   UNL     1      -0.560  -2.524   4.263  0.00  0.00    +0.264 C 
BRANCH  28  29
ATOM     29  C   UNL     1       0.729  -2.032   4.871  0.00  0.00    -0.010 A 
ATOM     30  C   UNL     1       1.264  -0.821   4.473  0.00  0.00    +0.007 A 
ATOM     31  C   UNL     1       2.446  -0.371   5.030  0.00  0.00    +0.000 A 
ATOM     32  C   UNL     1       3.093  -1.131   5.986  0.00  0.00    +0.000 A 
ATOM     33  C   UNL     1       2.558  -2.341   6.385  0.00  0.00    +0.000 A 
ATOM     34  C   UNL     1       1.373  -2.790   5.831  0.00  0.00    +0.007 A 
ENDBRANCH  28  29
ENDBRANCH  27  28
ENDBRANCH  23  27
ENDBRANCH  10  19
BRANCH   8  35
ATOM     35  N   UNL     1      -7.088  -7.093   2.233  0.00  0.00    -0.328 N 
ATOM     36  H   UNL     1      -8.006  -7.292   1.991  0.00  0.00    +0.145 HD
ATOM     37  H   UNL     1      -6.573  -7.732   2.750  0.00  0.00    +0.145 HD
ENDBRANCH   8  35
BRANCH   9  38
ATOM     38  C   UNL     1      -4.552  -6.678   2.965  0.00  0.00    +0.101 C 
ATOM     39  N   UNL     1      -4.007  -7.472   3.569  0.00  0.00    -0.191 NA
ENDBRANCH   9  38
TORSDOF 9
