REMARK  Name = ZINC20918693
REMARK  9 active torsions:
REMARK  status: ('A' for Active; 'I' for Inactive)
REMARK    1  A    between atoms: C_4  and  C_7
REMARK    2  A    between atoms: C_7  and  C_8
REMARK    3  A    between atoms: C_8  and  C_27
REMARK    4  A    between atoms: N_9  and  N_10
REMARK    5  A    between atoms: C_14  and  S_17
REMARK    6  A    between atoms: N_15  and  N_16
REMARK    7  A    between atoms: S_17  and  C_18
REMARK    8  A    between atoms: C_18  and  C_19
REMARK    9  A    between atoms: C_27  and  C_28
REMARK                            x       y       z     vdW  Elec       q    Type
REMARK                         _______ _______ _______ _____ _____    ______ ____
ROOT
ATOM      1  N   UNL     1       0.811   0.512  -6.242  0.00  0.00    -0.204 N 
ATOM      2  C   UNL     1       0.730   0.570  -4.858  0.00  0.00    +0.254 A 
ATOM      3  N   UNL     1       1.557   0.003  -4.013  0.00  0.00    -0.109 NA
ATOM      4  N   UNL     1       1.126   0.307  -2.715  0.00  0.00    -0.119 NA
ATOM      5  C   UNL     1       0.045   1.043  -2.809  0.00  0.00    +0.210 A 
ATOM      6  N   UNL     1      -0.226   1.228  -4.135  0.00  0.00    -0.211 N 
ATOM      7  H   UNL     1       0.060   1.028  -6.859  0.00  0.00    +0.177 HD
ENDROOT
BRANCH   6   8
ATOM      8  N   UNL     1      -1.270   1.943  -4.649  0.00  0.00    -0.294 N 
ATOM      9  H   UNL     1      -1.985   2.435  -3.974  0.00  0.00    +0.163 HD
ATOM     10  H   UNL     1      -1.395   2.027  -5.739  0.00  0.00    +0.163 HD
ENDBRANCH   6   8
BRANCH   1  12
ATOM     11  C   UNL     1       1.925  -0.255  -8.131  0.00  0.00    +0.045 C 
ATOM     12  N   UNL     1       1.850  -0.202  -6.854  0.00  0.00    -0.188 NA
BRANCH  11  13
ATOM     13  C   UNL     1       3.042  -1.023  -8.789  0.00  0.00    +0.088 C 
BRANCH  13  17
ATOM     14  C   UNL     1       1.417  -4.338 -10.939  0.00  0.00    +0.000 A 
ATOM     15  C   UNL     1       1.576  -3.117 -11.568  0.00  0.00    +0.000 A 
ATOM     16  C   UNL     1       2.101  -2.044 -10.872  0.00  0.00    +0.004 A 
ATOM     17  C   UNL     1       2.469  -2.192  -9.548  0.00  0.00    -0.042 A 
ATOM     18  C   UNL     1       2.316  -3.415  -8.921  0.00  0.00    +0.004 A 
ATOM     19  C   UNL     1       1.785  -4.486  -9.615  0.00  0.00    +0.000 A 
ENDBRANCH  13  17
ENDBRANCH  11  13
BRANCH  11  20
ATOM     20  C   UNL     1       0.896   0.451  -8.976  0.00  0.00    +0.088 C 
BRANCH  20  21
ATOM     21  C   UNL     1       1.357   1.858  -9.259  0.00  0.00    -0.042 A 
ATOM     22  C   UNL     1       1.011   2.884  -8.401  0.00  0.00    +0.004 A 
ATOM     23  C   UNL     1       1.439   4.174  -8.658  0.00  0.00    +0.000 A 
ATOM     24  C   UNL     1       2.203   4.438  -9.779  0.00  0.00    +0.000 A 
ATOM     25  C   UNL     1       2.545   3.412 -10.640  0.00  0.00    +0.000 A 
ATOM     26  C   UNL     1       2.122   2.122 -10.380  0.00  0.00    +0.004 A 
ENDBRANCH  20  21
ENDBRANCH  11  20
ENDBRANCH   1  12
BRANCH   5  27
ATOM     27  S   UNL     1      -0.890   1.687  -1.462  0.00  0.00    -0.075 S 
BRANCH  27  28
ATOM     28  C   UNL     1      -0.013   1.086   0.008  0.00  0.00    +0.173 C 
BRANCH  28  29
ATOM     29  C   UNL     1      -0.718   1.572   1.248  0.00  0.00    +0.229 C 
ATOM     30  O   UNL     1      -1.715   2.256   1.150  0.00  0.00    -0.275 OA
ATOM     31  N   UNL     1      -0.242   1.246   2.466  0.00  0.00    -0.263 N 
ATOM     32  C   UNL     1      -0.892   1.694   3.610  0.00  0.00    +0.187 A 
ATOM     33  N   UNL     1      -1.978   2.440   3.724  0.00  0.00    -0.126 NA
ATOM     34  N   UNL     1      -2.449   2.765   4.849  0.00  0.00    -0.148 NA
ATOM     35  C   UNL     1      -1.866   2.366   5.962  0.00  0.00    +0.183 A 
ATOM     36  S   UNL     1      -0.506   1.422   5.284  0.00  0.00    -0.039 S 
ATOM     37  H   UNL     1       0.662   0.625   2.555  0.00  0.00    +0.157 HD
ENDBRANCH  28  29
ENDBRANCH  27  28
ENDBRANCH   5  27
TORSDOF 9
