REMARK  Name = ZINC07739432
REMARK  11 active torsions:
REMARK  status: ('A' for Active; 'I' for Inactive)
REMARK    1  A    between atoms: C_1  and  C_2
REMARK    2  A    between atoms: C_2  and  C_3
REMARK    3  A    between atoms: C_2  and  C_4
REMARK    4  A    between atoms: C_4  and  C_5
REMARK    5  A    between atoms: C_5  and  N_6
REMARK    6  A    between atoms: C_7  and  C_9
REMARK    7  A    between atoms: C_9  and  O_10
REMARK    8  A    between atoms: O_10  and  C_11
REMARK    9  A    between atoms: C_11  and  C_13
REMARK   10  A    between atoms: N_16  and  S_19
REMARK   11  A    between atoms: S_19  and  C_22
REMARK                            x       y       z     vdW  Elec       q    Type
REMARK                         _______ _______ _______ _____ _____    ______ ____
ROOT
ATOM      1  C   UNL     1      -3.073  -2.618   3.782  0.00  0.00    +0.100 C 
ATOM      2  C   UNL     1      -3.753  -1.546   2.928  0.00  0.00    +0.032 C 
ATOM      3  C   UNL     1      -2.685  -0.629   2.321  0.00  0.00    +0.110 C 
ATOM      4  N   UNL     1      -1.713  -1.455   1.592  0.00  0.00    -0.176 NA
ATOM      5  C   UNL     1      -1.071  -2.575   2.293  0.00  0.00    +0.110 C 
ATOM      6  C   UNL     1      -2.152  -3.466   2.901  0.00  0.00    +0.032 C 
ENDROOT
BRANCH   4   7
ATOM      7  S   UNL     1      -1.351  -1.132   0.008  0.00  0.00    +0.067 S 
ATOM      8  O   UNL     1      -2.466  -0.432  -0.528  0.00  0.00    -0.152 OA
ATOM      9  O   UNL     1      -0.871  -2.346  -0.554  0.00  0.00    -0.152 OA
BRANCH   7  10
ATOM     10  C   UNL     1       0.002  -0.004   0.002  0.00  0.00    +0.143 A 
ATOM     11  C   UNL     1       1.332  -0.266  -0.012  0.00  0.00    +0.036 A 
ATOM     12  C   UNL     1       2.223   0.790  -0.015  0.00  0.00    +0.010 A 
ATOM     13  C   UNL     1       1.742   2.057  -0.004  0.00  0.00    +0.047 A 
ATOM     14  S   UNL     1      -0.022   1.781   0.012  0.00  0.00    -0.077 S 
ENDBRANCH   7  10
ENDBRANCH   4   7
BRANCH   1  15
ATOM     15  C   UNL     1      -4.122  -3.501   4.408  0.00  0.00    +0.311 C 
ATOM     16  O   UNL     1      -5.293  -3.293   4.193  0.00  0.00    -0.251 OA
BRANCH  15  17
ATOM     17  O   UNL     1      -3.756  -4.517   5.204  0.00  0.00    -0.455 OA
BRANCH  17  18
ATOM     18  C   UNL     1      -4.820  -5.326   5.772  0.00  0.00    +0.327 C 
BRANCH  18  20
ATOM     19  N   UNL     1      -5.026  -7.287   7.265  0.00  0.00    -0.313 N 
ATOM     20  C   UNL     1      -4.223  -6.410   6.631  0.00  0.00    +0.251 C 
ATOM     21  O   UNL     1      -3.019  -6.493   6.753  0.00  0.00    -0.272 OA
ATOM     22  H   UNL     1      -5.989  -7.221   7.168  0.00  0.00    +0.149 HD
BRANCH  19  23
ATOM     23  C   UNL     1      -4.445  -8.341   8.100  0.00  0.00    +0.104 C 
BRANCH  23  24
ATOM     24  C   UNL     1      -5.566  -9.193   8.699  0.00  0.00    +0.022 C 
BRANCH  24  26
ATOM     25  C   UNL     1      -4.248  -9.662  10.769  0.00  0.00    +0.007 C 
ATOM     26  C   UNL     1      -4.960 -10.294   9.572  0.00  0.00    -0.016 C 
ATOM     27  C   UNL     1      -6.071 -11.221  10.069  0.00  0.00    +0.007 C 
ENDBRANCH  24  26
ENDBRANCH  23  24
ENDBRANCH  19  23
ENDBRANCH  18  20
ENDBRANCH  17  18
ENDBRANCH  15  17
ENDBRANCH   1  15
TORSDOF 9
