REMARK  Name = ZINC04550191
REMARK  7 active torsions:
REMARK  status: ('A' for Active; 'I' for Inactive)
REMARK    1  A    between atoms: C_1  and  C_2
REMARK    2  A    between atoms: C_6  and  C_24
REMARK    3  A    between atoms: C_16  and  C_17
REMARK    4  A    between atoms: C_24  and  O_26
REMARK    5  A    between atoms: O_26  and  C_27
REMARK    6  A    between atoms: C_27  and  C_29
REMARK    7  A    between atoms: C_27  and  C_30
REMARK                            x       y       z     vdW  Elec       q    Type
REMARK                         _______ _______ _______ _____ _____    ______ ____
ROOT
ATOM      1  C   UNL     1       0.009   5.500   0.741  0.00  0.00    +0.008 C 
ATOM      2  C   UNL     1      -0.017   3.972   0.658  0.00  0.00    -0.005 C 
ATOM      3  C   UNL     1       1.192   3.484  -0.135  0.00  0.00    +0.041 C 
ATOM      4  C   UNL     1       1.137   1.998  -0.357  0.00  0.00    -0.007 A 
ATOM      5  C   UNL     1       2.318   1.316  -0.621  0.00  0.00    +0.073 A 
ATOM      6  C   UNL     1       2.231  -0.127  -0.847  0.00  0.00    +0.015 A 
ATOM      7  C   UNL     1       3.368  -0.894  -1.121  0.00  0.00    +0.011 A 
ATOM      8  C   UNL     1       3.240  -2.236  -1.329  0.00  0.00    +0.001 A 
ATOM      9  C   UNL     1       1.992  -2.853  -1.272  0.00  0.00    +0.002 A 
ATOM     10  C   UNL     1       0.866  -2.136  -1.006  0.00  0.00    +0.028 A 
ATOM     11  C   UNL     1       0.958  -0.749  -0.785  0.00  0.00    +0.072 A 
ATOM     12  N   UNL     1      -0.125  -0.020  -0.520  0.00  0.00    -0.247 NA
ATOM     13  C   UNL     1      -0.074   1.284  -0.310  0.00  0.00    +0.072 A 
ATOM     14  C   UNL     1      -1.331   2.006  -0.011  0.00  0.00    -0.021 C 
ATOM     15  C   UNL     1      -2.461   1.340   0.283  0.00  0.00    +0.013 C 
ATOM     16  C   UNL     1      -1.302   3.518  -0.046  0.00  0.00    +0.041 C 
ENDROOT
BRANCH  15  17
ATOM     17  C   UNL     1      -3.735   2.069   0.409  0.00  0.00    -0.025 A 
ATOM     18  C   UNL     1      -4.709   1.632   1.310  0.00  0.00    +0.008 A 
ATOM     19  C   UNL     1      -5.896   2.323   1.427  0.00  0.00    +0.001 A 
ATOM     20  C   UNL     1      -6.130   3.441   0.645  0.00  0.00    +0.000 A 
ATOM     21  C   UNL     1      -5.172   3.877  -0.254  0.00  0.00    +0.001 A 
ATOM     22  C   UNL     1      -3.977   3.199  -0.377  0.00  0.00    +0.008 A 
ENDBRANCH  15  17
BRANCH   5  23
ATOM     23  C   UNL     1       3.615   2.022  -0.673  0.00  0.00    +0.341 C 
ATOM     24  O   UNL     1       4.015   2.481  -1.724  0.00  0.00    -0.245 OA
BRANCH  23  25
ATOM     25  O   UNL     1       4.353   2.157   0.446  0.00  0.00    -0.449 OA
BRANCH  25  26
ATOM     26  C   UNL     1       5.616   2.862   0.321  0.00  0.00    +0.259 C 
ATOM     27  C   UNL     1       6.727   1.864  -0.013  0.00  0.00    +0.062 C 
BRANCH  26  28
ATOM     28  C   UNL     1       5.937   3.553   1.621  0.00  0.00    +0.251 C 
ATOM     29  O   UNL     1       5.223   3.387   2.588  0.00  0.00    -0.272 OA
ATOM     30  N   UNL     1       7.016   4.356   1.710  0.00  0.00    -0.326 N 
ATOM     31  H   UNL     1       7.586   4.488   0.937  0.00  0.00    +0.145 HD
ATOM     32  H   UNL     1       7.222   4.801   2.547  0.00  0.00    +0.145 HD
ENDBRANCH  26  28
ENDBRANCH  25  26
ENDBRANCH  23  25
ENDBRANCH   5  23
TORSDOF 5
