REMARK  Name = ZINC35729063
REMARK  8 active torsions:
REMARK  status: ('A' for Active; 'I' for Inactive)
REMARK    1  A    between atoms: C_1  and  C_2
REMARK    2  A    between atoms: C_2  and  C_3
REMARK    3  A    between atoms: C_3  and  C_5
REMARK    4  A    between atoms: C_3  and  C_6
REMARK    5  A    between atoms: C_6  and  C_8
REMARK    6  A    between atoms: C_6  and  N_23
REMARK    7  A    between atoms: C_14  and  C_16
REMARK    8  A    between atoms: N_26  and  C_27
REMARK                            x       y       z     vdW  Elec       q    Type
REMARK                         _______ _______ _______ _____ _____    ______ ____
ROOT
ATOM      1  C   UNL     1      -0.040  -0.065  -2.593  0.00  0.00    +0.163 C 
ENDROOT
BRANCH   1   2
ATOM      2  C   UNL     1       0.387  -0.680  -3.901  0.00  0.00    +0.239 C 
ATOM      3  O   UNL     1       0.565   0.024  -4.872  0.00  0.00    -0.273 OA
ATOM      4  N   UNL     1       0.572  -2.012  -3.991  0.00  0.00    -0.262 N 
ATOM      5  C   UNL     1       1.065  -2.567  -5.165  0.00  0.00    +0.188 A 
ATOM      6  N   UNL     1       1.421  -1.981  -6.301  0.00  0.00    -0.125 NA
ATOM      7  N   UNL     1       1.855  -2.642  -7.285  0.00  0.00    -0.140 NA
ATOM      8  C   UNL     1       1.982  -3.962  -7.241  0.00  0.00    +0.134 A 
ATOM      9  S   UNL     1       1.409  -4.276  -5.574  0.00  0.00    -0.030 S 
ATOM     10  H   UNL     1       0.361  -2.583  -3.236  0.00  0.00    +0.157 HD
BRANCH   8  11
ATOM     11  C   UNL     1       2.464  -4.905  -8.273  0.00  0.00    +0.009 A 
ATOM     12  C   UNL     1       2.507  -6.274  -8.005  0.00  0.00    +0.013 A 
ATOM     13  C   UNL     1       2.958  -7.149  -8.972  0.00  0.00    +0.039 A 
ATOM     14  C   UNL     1       3.367  -6.670 -10.206  0.00  0.00    +0.123 A 
ATOM     15  C   UNL     1       3.326  -5.312 -10.477  0.00  0.00    +0.039 A 
ATOM     16  C   UNL     1       2.872  -4.429  -9.520  0.00  0.00    +0.013 A 
ATOM     17  F   UNL     1       3.808  -7.532 -11.149  0.00  0.00    -0.205 F 
ENDBRANCH   8  11
ENDBRANCH   1   2
BRANCH   1  18
ATOM     18  N   UNL     1      -0.193   1.383  -2.761  0.00  0.00    -0.288 N 
ATOM     19  C   UNL     1      -1.166   2.038  -2.097  0.00  0.00    +0.305 C 
ATOM     20  O   UNL     1      -1.859   1.446  -1.293  0.00  0.00    -0.252 OA
ATOM     21  N   UNL     1      -1.371   3.351  -2.326  0.00  0.00    -0.268 N 
ATOM     22  H   UNL     1       0.405   1.869  -3.349  0.00  0.00    +0.151 HD
ATOM     23  H   UNL     1      -0.866   3.807  -3.017  0.00  0.00    +0.156 HD
BRANCH  21  24
ATOM     24  C   UNL     1      -2.312   4.055  -1.566  0.00  0.00    +0.049 A 
ATOM     25  C   UNL     1      -3.397   3.389  -1.011  0.00  0.00    +0.024 A 
ATOM     26  C   UNL     1      -4.324   4.087  -0.262  0.00  0.00    +0.002 A 
ATOM     27  C   UNL     1      -4.173   5.447  -0.063  0.00  0.00    +0.001 A 
ATOM     28  C   UNL     1      -3.094   6.114  -0.614  0.00  0.00    +0.017 A 
ATOM     29  C   UNL     1      -2.160   5.421  -1.361  0.00  0.00    +0.039 A 
ATOM     30 BR   UNL     1      -0.681   6.331  -2.108  0.00  0.00    -0.048 Br
ENDBRANCH  21  24
ENDBRANCH   1  18
BRANCH   1  31
ATOM     31  C   UNL     1       1.022  -0.345  -1.527  0.00  0.00    +0.015 C 
ATOM     32  C   UNL     1       0.506   0.113  -0.161  0.00  0.00    +0.010 C 
BRANCH  31  34
ATOM     33  C   UNL     1       2.912  -0.157  -3.150  0.00  0.00    +0.004 C 
ATOM     34  C   UNL     1       2.303   0.419  -1.870  0.00  0.00    +0.002 C 
ENDBRANCH  31  34
ENDBRANCH   1  31
TORSDOF 6
