REMARK  Name = ZINC12832930
REMARK  9 active torsions:
REMARK  status: ('A' for Active; 'I' for Inactive)
REMARK    1  A    between atoms: C_1  and  C_2
REMARK    2  A    between atoms: C_7  and  C_15
REMARK    3  A    between atoms: C_13  and  C_14
REMARK    4  A    between atoms: C_15  and  N_60
REMARK    5  A    between atoms: C_16  and  C_17
REMARK    6  A    between atoms: C_16  and  N_60
REMARK    7  A    between atoms: C_22  and  C_23
REMARK    8  A    between atoms: C_22  and  N_60
REMARK    9  A    between atoms: N_27  and  C_28
REMARK                            x       y       z     vdW  Elec       q    Type
REMARK                         _______ _______ _______ _____ _____    ______ ____
ROOT
ATOM      1  N   UNL     1       2.520  -0.857  -1.424  0.00  0.00    +0.390 N 
ATOM      2  H   UNL     1       1.782  -0.402  -1.974  0.00  0.00    -0.080 HD
ENDROOT
BRANCH   1   3
ATOM      3  C   UNL     1       2.276  -2.315  -1.408  0.00  0.00    -0.036 C 
BRANCH   3  10
ATOM      4  C   UNL     1      -5.593  -3.617  -1.416  0.00  0.00    +0.044 C 
ATOM      5  C   UNL     1      -4.123  -3.380  -1.648  0.00  0.00    -0.046 A 
ATOM      6  C   UNL     1      -3.631  -3.331  -2.945  0.00  0.00    +0.004 A 
ATOM      7  C   UNL     1      -2.302  -3.118  -3.176  0.00  0.00    +0.010 A 
ATOM      8  C   UNL     1      -1.429  -2.945  -2.097  0.00  0.00    -0.001 A 
ATOM      9  C   UNL     1       0.001  -2.709  -2.309  0.00  0.00    +0.017 A 
ATOM     10  C   UNL     1       0.800  -2.555  -1.224  0.00  0.00    +0.001 A 
ATOM     11  C   UNL     1       0.253  -2.613   0.075  0.00  0.00    +0.251 A 
ATOM     12  O   UNL     1       0.988  -2.467   1.036  0.00  0.00    -0.268 OA
ATOM     13  N   UNL     1      -1.059  -2.825   0.280  0.00  0.00    -0.322 N 
ATOM     14  H   UNL     1      -1.402  -2.859   1.187  0.00  0.00    +0.169 HD
ATOM     15  C   UNL     1      -1.924  -2.994  -0.780  0.00  0.00    +0.052 A 
ATOM     16  C   UNL     1      -3.281  -3.213  -0.569  0.00  0.00    -0.024 A 
ATOM     17  C   UNL     1      -3.829  -3.269   0.834  0.00  0.00    +0.046 C 
ENDBRANCH   3  10
ENDBRANCH   1   3
BRANCH   1  18
ATOM     18  C   UNL     1       3.830  -0.571  -2.047  0.00  0.00    -0.035 C 
BRANCH  18  19
ATOM     19  C   UNL     1       3.718  -0.797  -3.533  0.00  0.00    -0.027 A 
ATOM     20  C   UNL     1       3.265   0.046  -4.493  0.00  0.00    +0.009 A 
ATOM     21  C   UNL     1       3.257  -0.378  -5.808  0.00  0.00    +0.008 A 
ATOM     22  C   UNL     1       3.693  -1.628  -6.098  0.00  0.00    +0.045 A 
ATOM     23  S   UNL     1       4.143  -2.246  -4.485  0.00  0.00    -0.103 S 
ENDBRANCH  18  19
ENDBRANCH   1  18
BRANCH   1  24
ATOM     24  C   UNL     1       2.490  -0.325  -0.045  0.00  0.00    +0.001 C 
BRANCH  24  25
ATOM     25  C   UNL     1       2.520   1.181  -0.105  0.00  0.00    +0.135 A 
ATOM     26  N   UNL     1       3.586   1.944  -0.093  0.00  0.00    -0.115 NA
ATOM     27  N   UNL     1       3.198   3.171  -0.153  0.00  0.00    -0.023 NA
ATOM     28  N   UNL     1       1.912   3.211  -0.210  0.00  0.00    -0.044 NA
ATOM     29  N   UNL     1       1.457   2.003  -0.186  0.00  0.00    -0.228 N 
BRANCH  29  30
ATOM     30  C   UNL     1       0.049   1.603  -0.231  0.00  0.00    +0.111 C 
ATOM     31  C   UNL     1      -0.721   2.244   0.943  0.00  0.00    +0.027 C 
ATOM     32  C   UNL     1      -1.347   3.523   0.333  0.00  0.00    +0.002 C 
ATOM     33  C   UNL     1      -1.751   3.062  -1.090  0.00  0.00    +0.002 C 
ATOM     34  C   UNL     1      -0.606   2.124  -1.523  0.00  0.00    +0.027 C 
ENDBRANCH  29  30
ENDBRANCH  24  25
ENDBRANCH   1  24
TORSDOF 7
