REMARK  Name = ZINC06405587
REMARK  8 active torsions:
REMARK  status: ('A' for Active; 'I' for Inactive)
REMARK    1  A    between atoms: C_1  and  C_2
REMARK    2  A    between atoms: C_5  and  C_39
REMARK    3  A    between atoms: C_9  and  C_14
REMARK    4  A    between atoms: C_14  and  C_16
REMARK    5  A    between atoms: C_14  and  N_76
REMARK    6  A    between atoms: N_20  and  C_21
REMARK    7  A    between atoms: C_29  and  C_32
REMARK    8  A    between atoms: C_32  and  C_33
REMARK                            x       y       z     vdW  Elec       q    Type
REMARK                         _______ _______ _______ _____ _____    ______ ____
ROOT
ATOM      1  C   UNL     1       3.510   0.737  -0.027  0.00  0.00    +0.039 C 
ENDROOT
BRANCH   1  10
ATOM      2  C   UNL     1       6.231  -1.605  -3.799  0.00  0.00    +0.044 C 
ATOM      3  C   UNL     1       5.888  -0.222  -4.288  0.00  0.00    -0.041 A 
ATOM      4  C   UNL     1       6.294   0.189  -5.526  0.00  0.00    +0.004 A 
ATOM      5  C   UNL     1       5.982   1.461  -5.985  0.00  0.00    +0.005 A 
ATOM      6  C   UNL     1       5.258   2.335  -5.202  0.00  0.00    -0.026 A 
ATOM      7  C   UNL     1       4.835   1.939  -3.938  0.00  0.00    +0.052 A 
ATOM      8  C   UNL     1       5.152   0.647  -3.476  0.00  0.00    +0.002 A 
ATOM      9  C   UNL     1       4.700   0.240  -2.144  0.00  0.00    +0.018 A 
ATOM     10  C   UNL     1       3.990   1.125  -1.402  0.00  0.00    +0.011 A 
ATOM     11  C   UNL     1       3.693   2.406  -1.915  0.00  0.00    +0.251 A 
ATOM     12  O   UNL     1       3.049   3.184  -1.233  0.00  0.00    -0.268 OA
ATOM     13  N   UNL     1       4.109   2.791  -3.134  0.00  0.00    -0.322 N 
ATOM     14  H   UNL     1       3.891   3.681  -3.454  0.00  0.00    +0.169 HD
ATOM     15  C   UNL     1       4.927   3.713  -5.714  0.00  0.00    +0.046 C 
ENDBRANCH   1  10
BRANCH   1  21
ATOM     16  C   UNL     1       5.444   1.862   0.898  0.00  0.00    -0.077 C 
ATOM     17  C   UNL     1       5.886   2.997   1.824  0.00  0.00    -0.015 C 
ATOM     18  C   UNL     1       5.438   2.685   3.255  0.00  0.00    -0.010 C 
ATOM     19  C   UNL     1       3.918   2.498   3.276  0.00  0.00    -0.015 C 
ATOM     20  C   UNL     1       3.534   1.377   2.307  0.00  0.00    -0.077 C 
ATOM     21  N   UNL     1       3.971   1.750   0.945  0.00  0.00    +0.389 N 
ATOM     22  H   UNL     1       3.559   2.658   0.700  0.00  0.00    -0.080 HD
BRANCH  18  23
ATOM     23  C   UNL     1       5.823   3.844   4.177  0.00  0.00    +0.038 C 
BRANCH  23  24
ATOM     24  C   UNL     1       7.324   3.949   4.251  0.00  0.00    -0.047 A 
ATOM     25  C   UNL     1       8.019   3.254   5.224  0.00  0.00    +0.003 A 
ATOM     26  C   UNL     1       9.396   3.347   5.290  0.00  0.00    +0.000 A 
ATOM     27  C   UNL     1      10.079   4.142   4.388  0.00  0.00    +0.000 A 
ATOM     28  C   UNL     1       9.384   4.840   3.417  0.00  0.00    +0.000 A 
ATOM     29  C   UNL     1       8.007   4.743   3.349  0.00  0.00    +0.003 A 
ENDBRANCH  23  24
ENDBRANCH  18  23
ENDBRANCH   1  21
BRANCH   1  30
ATOM     30  C   UNL     1       2.004   0.697  -0.013  0.00  0.00    +0.143 A 
ATOM     31  N   UNL     1       1.194   1.728  -0.000  0.00  0.00    -0.115 NA
ATOM     32  N   UNL     1      -0.015   1.283   0.009  0.00  0.00    -0.023 NA
ATOM     33  N   UNL     1       0.002  -0.004   0.002  0.00  0.00    -0.044 NA
ATOM     34  N   UNL     1       1.229  -0.403  -0.012  0.00  0.00    -0.227 N 
BRANCH  34  35
ATOM     35  C   UNL     1       1.691  -1.793  -0.024  0.00  0.00    +0.111 C 
ATOM     36  C   UNL     1       1.156  -2.498  -1.272  0.00  0.00    +0.027 C 
ATOM     37  C   UNL     1       1.639  -3.950  -1.285  0.00  0.00    +0.002 C 
ATOM     38  C   UNL     1       1.128  -4.668  -0.035  0.00  0.00    +0.000 C 
ATOM     39  C   UNL     1       1.663  -3.964   1.213  0.00  0.00    +0.002 C 
ATOM     40  C   UNL     1       1.180  -2.512   1.226  0.00  0.00    +0.027 C 
ENDBRANCH  34  35
ENDBRANCH   1  30
TORSDOF 6
