REMARK  Name = ZINC43741820
REMARK  6 active torsions:
REMARK  status: ('A' for Active; 'I' for Inactive)
REMARK    1  A    between atoms: C_1  and  C_2
REMARK    2  A    between atoms: N_6  and  N_7
REMARK    3  A    between atoms: N_7  and  C_8
REMARK    4  A    between atoms: C_8  and  N_10
REMARK    5  A    between atoms: C_22  and  C_33
REMARK    6  A    between atoms: C_26  and  C_27
REMARK                            x       y       z     vdW  Elec       q    Type
REMARK                         _______ _______ _______ _____ _____    ______ ____
ROOT
ATOM      1  C   UNL     1      -0.811   2.466   0.621  0.00  0.00    +0.012 C 
ATOM      2  C   UNL     1      -0.407   0.993   0.518  0.00  0.00    -0.025 C 
ATOM      3  C   UNL     1       0.508   0.797  -0.693  0.00  0.00    +0.013 C 
ATOM      4  C   UNL     1       1.733   1.708  -0.565  0.00  0.00    +0.053 C 
ATOM      5  C   UNL     1       2.403   1.425   0.762  0.00  0.00    +0.037 C 
ATOM      6  N   UNL     1       3.655   1.168   0.825  0.00  0.00    -0.190 NA
ATOM      7  C   UNL     1       1.551   1.456   2.011  0.00  0.00    +0.056 C 
ATOM      8  C   UNL     1       0.326   0.574   1.794  0.00  0.00    +0.001 C 
ATOM      9  C   UNL     1       0.757  -0.888   1.661  0.00  0.00    +0.005 C 
ATOM     10  C   UNL     1      -0.487  -1.762   1.503  0.00  0.00    +0.008 C 
ATOM     11  C   UNL     1      -1.264  -1.351   0.250  0.00  0.00    +0.019 C 
ATOM     12  C   UNL     1      -1.658   0.131   0.350  0.00  0.00    +0.002 C 
ATOM     13  C   UNL     1      -2.618   0.348   1.514  0.00  0.00    +0.006 C 
ATOM     14  C   UNL     1      -3.938  -0.402   1.292  0.00  0.00    +0.016 C 
ATOM     15  C   UNL     1      -3.643  -1.902   1.267  0.00  0.00    +0.015 C 
ATOM     16  C   UNL     1      -2.566  -2.119   0.221  0.00  0.00    -0.056 C 
ATOM     17  C   UNL     1      -3.010  -3.031  -0.621  0.00  0.00    +0.001 C 
ATOM     18  C   UNL     1      -4.386  -3.398  -0.301  0.00  0.00    +0.005 C 
ATOM     19  C   UNL     1      -4.812  -2.719   0.792  0.00  0.00    -0.031 C 
ATOM     20  C   UNL     1      -3.181  -2.379   2.646  0.00  0.00    +0.021 C 
ENDROOT
BRANCH  19  21
ATOM     21  C   UNL     1      -6.096  -2.771   1.370  0.00  0.00    +0.000 C 
ATOM     22  C   UNL     1      -6.529  -2.089   2.465  0.00  0.00    +0.098 C 
ATOM     23  C   UNL     1      -7.875  -2.416   2.719  0.00  0.00    +0.333 C 
ATOM     24  O   UNL     1      -8.534  -1.960   3.635  0.00  0.00    -0.246 OA
ATOM     25  O   UNL     1      -8.337  -3.298   1.813  0.00  0.00    -0.457 OA
ATOM     26  C   UNL     1      -7.276  -3.590   0.895  0.00  0.00    +0.268 C 
ENDBRANCH  19  21
BRANCH   6  27
ATOM     27  N   UNL     1       4.406   1.047  -0.351  0.00  0.00    -0.219 N 
ATOM     28  H   UNL     1       3.994   1.230  -1.210  0.00  0.00    +0.176 HD
BRANCH  27  29
ATOM     29  C   UNL     1       5.700   0.676  -0.290  0.00  0.00    +0.147 C 
ATOM     30  S   UNL     1       6.617   0.527  -1.728  0.00  0.00    -0.017 S 
BRANCH  29  31
ATOM     31  N   UNL     1       6.272   0.422   0.904  0.00  0.00    -0.339 N 
ATOM     32  H   UNL     1       5.752   0.506   1.719  0.00  0.00    +0.144 HD
ATOM     33  H   UNL     1       7.204   0.155   0.948  0.00  0.00    +0.144 HD
ENDBRANCH  29  31
ENDBRANCH  27  29
ENDBRANCH   6  27
TORSDOF 4
