REMARK  Name = ZINC66924935
REMARK  7 active torsions:
REMARK  status: ('A' for Active; 'I' for Inactive)
REMARK    1  A    between atoms: C_1  and  C_2
REMARK    2  A    between atoms: N_7  and  C_9
REMARK    3  A    between atoms: C_9  and  C_10
REMARK    4  A    between atoms: C_10  and  N_11
REMARK    5  A    between atoms: C_17  and  N_20
REMARK    6  A    between atoms: C_21  and  C_23
REMARK    7  A    between atoms: C_23  and  C_24
REMARK                            x       y       z     vdW  Elec       q    Type
REMARK                         _______ _______ _______ _____ _____    ______ ____
ROOT
ATOM      1  N   UNL     1       2.442  -4.463   3.461  0.00  0.00    -0.301 N 
ATOM      2  C   UNL     1       2.688  -5.781   3.605  0.00  0.00    +0.302 C 
ATOM      3  O   UNL     1       2.192  -6.579   2.833  0.00  0.00    -0.253 OA
ATOM      4  N   UNL     1       3.482  -6.213   4.604  0.00  0.00    -0.286 N 
ATOM      5  C   UNL     1       3.994  -5.275   5.613  0.00  0.00    +0.111 C 
ATOM      6  C   UNL     1       5.518  -5.407   5.681  0.00  0.00    +0.041 C 
ATOM      7  C   UNL     1       5.888  -6.870   5.938  0.00  0.00    +0.076 C 
ATOM      8  C   UNL     1       5.380  -7.737   4.783  0.00  0.00    +0.041 C 
ATOM      9  C   UNL     1       3.849  -7.632   4.708  0.00  0.00    +0.111 C 
ATOM     10  H   UNL     1       2.776  -3.833   4.119  0.00  0.00    +0.150 HD
ENDROOT
BRANCH   7  11
ATOM     11  N   UNL     1       7.345  -6.995   6.036  0.00  0.00    -0.312 N 
ATOM     12  C   UNL     1       7.888  -8.014   6.731  0.00  0.00    +0.214 C 
ATOM     13  O   UNL     1       7.172  -8.828   7.274  0.00  0.00    -0.276 OA
ATOM     14  H   UNL     1       7.918  -6.344   5.602  0.00  0.00    +0.149 HD
BRANCH  12  15
ATOM     15  C   UNL     1       9.386  -8.142   6.832  0.00  0.00    +0.099 C 
BRANCH  15  16
ATOM     16  C   UNL     1       9.737  -9.374   7.669  0.00  0.00    -0.002 C 
ATOM     17  C   UNL     1       9.250  -9.171   9.105  0.00  0.00    +0.004 C 
ATOM     18  C   UNL     1       9.601 -10.403   9.942  0.00  0.00    +0.000 C 
ATOM     19  C   UNL     1      11.117 -10.605   9.941  0.00  0.00    +0.000 C 
ATOM     20  C   UNL     1      11.605 -10.808   8.505  0.00  0.00    +0.000 C 
ATOM     21  C   UNL     1      11.254  -9.576   7.669  0.00  0.00    +0.004 C 
ENDBRANCH  15  16
ENDBRANCH  12  15
ENDBRANCH   7  11
BRANCH   1  22
ATOM     22  C   UNL     1       1.670  -3.983   2.312  0.00  0.00    +0.087 C 
BRANCH  22  23
ATOM     23  C   UNL     1       1.536  -2.461   2.388  0.00  0.00    -0.060 C 
BRANCH  23  29
ATOM     24  C   UNL     1      -0.012   1.526   0.006  0.00  0.00    +0.005 C 
ATOM     25  C   UNL     1       0.008  -0.004  -0.002  0.00  0.00    -0.031 C 
ATOM     26  C   UNL     1      -1.428  -0.534   0.010  0.00  0.00    -0.001 C 
ATOM     27  C   UNL     1      -1.397  -2.063   0.081  0.00  0.00    -0.018 C 
ATOM     28  C   UNL     1      -0.609  -2.495   1.320  0.00  0.00    -0.079 C 
ATOM     29  N   UNL     1       0.762  -1.979   1.236  0.00  0.00    +0.381 N 
ATOM     30  C   UNL     1       0.745  -0.512   1.239  0.00  0.00    -0.076 C 
ATOM     31  H   UNL     1       1.192  -2.307   0.384  0.00  0.00    -0.082 HD
ENDBRANCH  23  29
ENDBRANCH  22  23
ENDBRANCH   1  22
TORSDOF 6
