REMARK  Name = ZINC15289105
REMARK  11 active torsions:
REMARK  status: ('A' for Active; 'I' for Inactive)
REMARK    1  A    between atoms: C_1  and  C_2
REMARK    2  A    between atoms: C_2  and  O_3
REMARK    3  A    between atoms: O_3  and  C_4
REMARK    4  A    between atoms: C_4  and  C_6
REMARK    5  A    between atoms: C_7  and  C_28
REMARK    6  A    between atoms: C_8  and  C_24
REMARK    7  A    between atoms: C_10  and  N_11
REMARK    8  A    between atoms: C_12  and  C_14
REMARK    9  A    between atoms: C_14  and  N_15
REMARK   10  A    between atoms: N_15  and  C_16
REMARK   11  A    between atoms: N_26  and  C_27
REMARK                            x       y       z     vdW  Elec       q    Type
REMARK                         _______ _______ _______ _____ _____    ______ ____
ROOT
ATOM      1  C   UNL     1       1.498  -2.372   2.469  0.00  0.00    +0.091 A 
ATOM      2  C   UNL     1       0.816  -2.667   3.642  0.00  0.00    -0.015 A 
ATOM      3  C   UNL     1       1.563  -3.183   4.665  0.00  0.00    +0.079 A 
ATOM      4  S   UNL     1       3.200  -3.243   3.964  0.00  0.00    -0.068 S 
ATOM      5  C   UNL     1       2.869  -2.630   2.436  0.00  0.00    +0.087 A 
ATOM      6  C   UNL     1      -0.666  -2.432   3.780  0.00  0.00    +0.046 C 
ENDROOT
BRANCH   3   7
ATOM      7  C   UNL     1       1.127  -3.586   6.004  0.00  0.00    +0.251 C 
ATOM      8  O   UNL     1      -0.043  -3.476   6.321  0.00  0.00    -0.270 OA
ATOM      9  N   UNL     1       2.021  -4.078   6.885  0.00  0.00    -0.314 N 
ATOM     10  C   UNL     1       1.584  -4.481   8.224  0.00  0.00    +0.128 C 
ATOM     11  H   UNL     1       2.953  -4.166   6.632  0.00  0.00    +0.149 HD
ENDBRANCH   3   7
BRANCH   5  12
ATOM     12  N   UNL     1       3.750  -2.426   1.391  0.00  0.00    -0.278 N 
ATOM     13  C   UNL     1       5.053  -2.736   1.538  0.00  0.00    +0.235 C 
ATOM     14  O   UNL     1       5.453  -3.193   2.588  0.00  0.00    -0.274 OA
ATOM     15  H   UNL     1       3.429  -2.061   0.552  0.00  0.00    +0.155 HD
BRANCH  13  16
ATOM     16  C   UNL     1       6.013  -2.514   0.398  0.00  0.00    +0.198 C 
BRANCH  16  17
ATOM     17  N   UNL     1       7.359  -2.926   0.806  0.00  0.00    -0.334 N 
ATOM     18  H   UNL     1       7.509  -3.277   1.698  0.00  0.00    +0.147 HD
BRANCH  17  19
ATOM     19  C   UNL     1       8.426  -2.813  -0.090  0.00  0.00    +0.047 A 
ATOM     20  C   UNL     1       8.213  -2.305  -1.365  0.00  0.00    +0.044 A 
ATOM     21  C   UNL     1       9.270  -2.195  -2.248  0.00  0.00    +0.043 A 
ATOM     22  C   UNL     1      10.540  -2.591  -1.863  0.00  0.00    +0.021 A 
ATOM     23  C   UNL     1      10.754  -3.097  -0.595  0.00  0.00    +0.023 A 
ATOM     24  C   UNL     1       9.703  -3.203   0.295  0.00  0.00    +0.062 A 
ATOM     25 CL   UNL     1       9.975  -3.832   1.891  0.00  0.00    -0.082 Cl
ATOM     26 CL   UNL     1       9.006  -1.561  -3.842  0.00  0.00    -0.083 Cl
ENDBRANCH  17  19
ENDBRANCH  16  17
ENDBRANCH  13  16
ENDBRANCH   5  12
BRANCH   1  27
ATOM     27  C   UNL     1       0.801  -1.814   1.304  0.00  0.00    +0.342 C 
ATOM     28  O   UNL     1       0.321  -2.556   0.470  0.00  0.00    -0.245 OA
BRANCH  27  29
ATOM     29  O   UNL     1       0.693  -0.477   1.160  0.00  0.00    -0.461 OA
BRANCH  29  31
ATOM     30  C   UNL     1      -0.019   1.526   0.010  0.00  0.00    +0.048 C 
ATOM     31  C   UNL     1       0.002  -0.004   0.002  0.00  0.00    +0.229 C 
ENDBRANCH  29  31
ENDBRANCH  27  29
ENDBRANCH   1  27
TORSDOF 8
