REMARK  Name = ZINC39688657
REMARK  9 active torsions:
REMARK  status: ('A' for Active; 'I' for Inactive)
REMARK    1  A    between atoms: C_1  and  C_2
REMARK    2  A    between atoms: C_2  and  C_4
REMARK    3  A    between atoms: C_2  and  N_12
REMARK    4  A    between atoms: C_4  and  C_5
REMARK    5  A    between atoms: C_13  and  C_15
REMARK    6  A    between atoms: C_26  and  C_28
REMARK    7  A    between atoms: C_31  and  O_38
REMARK    8  A    between atoms: C_32  and  C_34
REMARK    9  A    between atoms: O_38  and  C_39
REMARK                            x       y       z     vdW  Elec       q    Type
REMARK                         _______ _______ _______ _____ _____    ______ ____
ROOT
ATOM      1  C   UNL     1      -2.143   0.625   1.402  0.00  0.00    +0.100 C 
ATOM      2  C   UNL     1      -3.524  -0.003   1.108  0.00  0.00    +0.121 C 
ATOM      3  N   UNL     1      -3.227  -1.180   0.259  0.00  0.00    -0.296 N 
ATOM      4  C   UNL     1      -1.992  -1.754   0.845  0.00  0.00    +0.115 C 
ATOM      5  C   UNL     1      -1.141  -0.528   1.232  0.00  0.00    -0.004 C 
ATOM      6  C   UNL     1      -0.406  -0.788   2.544  0.00  0.00    -0.010 C 
ATOM      7  C   UNL     1       0.626  -1.900   2.334  0.00  0.00    -0.082 C 
ATOM      8  N   UNL     1       1.576  -1.497   1.290  0.00  0.00    +0.379 N 
ATOM      9  C   UNL     1       0.875  -1.340   0.009  0.00  0.00    -0.082 C 
ATOM     10  C   UNL     1      -0.147  -0.205   0.121  0.00  0.00    -0.010 C 
ATOM     11  C   UNL     1      -3.923  -1.629  -0.804  0.00  0.00    +0.247 C 
ATOM     12  O   UNL     1      -3.559  -2.631  -1.390  0.00  0.00    -0.270 OA
ATOM     13  H   UNL     1       2.005  -0.621   1.547  0.00  0.00    -0.086 HD
ATOM     14  H   UNL     1       2.290  -2.204   1.196  0.00  0.00    -0.086 HD
ENDROOT
BRANCH  11  15
ATOM     15  C   UNL     1      -5.125  -0.904  -1.258  0.00  0.00    +0.038 A 
ATOM     16  C   UNL     1      -5.002   0.354  -1.855  0.00  0.00    +0.016 A 
ATOM     17  C   UNL     1      -6.126   1.027  -2.277  0.00  0.00    +0.047 A 
ATOM     18  C   UNL     1      -7.383   0.457  -2.112  0.00  0.00    +0.132 A 
ATOM     19  C   UNL     1      -7.510  -0.794  -1.519  0.00  0.00    +0.097 A 
ATOM     20  C   UNL     1      -6.390  -1.476  -1.099  0.00  0.00    +0.029 A 
BRANCH  19  21
ATOM     21  C   UNL     1      -8.876  -1.407  -1.341  0.00  0.00    +0.421 C 
ATOM     22  F   UNL     1      -8.748  -2.658  -0.727  0.00  0.00    -0.166 F 
ATOM     23  F   UNL     1      -9.661  -0.572  -0.540  0.00  0.00    -0.166 F 
ATOM     24  F   UNL     1      -9.484  -1.562  -2.592  0.00  0.00    -0.166 F 
ENDBRANCH  19  21
BRANCH  18  25
ATOM     25  O   UNL     1      -8.489   1.123  -2.529  0.00  0.00    -0.495 OA
ATOM     26  C   UNL     1      -8.281   2.353  -3.228  0.00  0.00    +0.277 C 
ENDBRANCH  18  25
ENDBRANCH  11  15
BRANCH   1  28
ATOM     27  N   UNL     1      -1.040   2.747   0.770  0.00  0.00    -0.312 N 
ATOM     28  C   UNL     1      -1.847   1.727   0.417  0.00  0.00    +0.218 C 
ATOM     29  O   UNL     1      -2.336   1.696  -0.692  0.00  0.00    -0.275 OA
ATOM     30  H   UNL     1      -0.690   2.799   1.673  0.00  0.00    +0.149 HD
BRANCH  27  32
ATOM     31  C   UNL     1       0.547   3.340  -0.994  0.00  0.00    +0.028 C 
ATOM     32  C   UNL     1      -0.692   3.779  -0.210  0.00  0.00    +0.074 C 
BRANCH  32  33
ATOM     33  C   UNL     1      -0.397   5.093   0.515  0.00  0.00    +0.057 C 
BRANCH  33  34
ATOM     34  C   UNL     1       0.871   4.951   1.316  0.00  0.00    -0.045 A 
ATOM     35  C   UNL     1       0.831   4.394   2.581  0.00  0.00    +0.006 A 
ATOM     36  C   UNL     1       1.994   4.264   3.316  0.00  0.00    +0.038 A 
ATOM     37  C   UNL     1       3.200   4.691   2.785  0.00  0.00    +0.123 A 
ATOM     38  C   UNL     1       3.239   5.248   1.519  0.00  0.00    +0.038 A 
ATOM     39  C   UNL     1       2.075   5.373   0.783  0.00  0.00    +0.006 A 
ATOM     40  F   UNL     1       4.337   4.564   3.504  0.00  0.00    -0.205 F 
ENDBRANCH  33  34
ENDBRANCH  32  33
ENDBRANCH  27  32
ENDBRANCH   1  28
TORSDOF 7
