REMARK  Name = ZINC13036430
REMARK  5 active torsions:
REMARK  status: ('A' for Active; 'I' for Inactive)
REMARK    1  A    between atoms: C_1  and  C_2
REMARK    2  A    between atoms: C_2  and  O_3
REMARK    3  A    between atoms: O_3  and  C_4
REMARK    4  A    between atoms: C_11  and  C_26
REMARK    5  A    between atoms: C_27  and  C_31
REMARK                            x       y       z     vdW  Elec       q    Type
REMARK                         _______ _______ _______ _____ _____    ______ ____
ROOT
ATOM      1  C   UNL     1      -1.498  -1.849   0.006  0.00  0.00    +0.162 A 
ATOM      2  C   UNL     1      -0.388  -2.675  -0.003  0.00  0.00    +0.049 A 
ATOM      3  C   UNL     1      -0.544  -4.049  -0.007  0.00  0.00    +0.004 A 
ATOM      4  C   UNL     1      -1.813  -4.598   0.005  0.00  0.00    +0.009 A 
ATOM      5  C   UNL     1      -2.924  -3.780   0.018  0.00  0.00    +0.017 A 
ATOM      6  C   UNL     1      -2.781  -2.397   0.016  0.00  0.00    +0.169 A 
ATOM      7  O   UNL     1      -3.851  -1.557  -0.004  0.00  0.00    -0.464 OA
ATOM      8  C   UNL     1      -5.174  -2.109   0.113  0.00  0.00    +0.300 C 
ATOM      9  N   UNL     1      -5.185  -3.356  -0.607  0.00  0.00    -0.179 NA
ATOM     10  C   UNL     1      -4.307  -4.356   0.050  0.00  0.00    +0.119 C 
ATOM     11  C   UNL     1      -4.524  -5.527  -0.933  0.00  0.00    +0.078 C 
ATOM     12  C   UNL     1      -5.990  -5.295  -1.309  0.00  0.00    +0.032 C 
ATOM     13  C   UNL     1      -6.865  -6.239  -1.853  0.00  0.00    +0.040 C 
ATOM     14  C   UNL     1      -6.434  -7.560  -2.107  0.00  0.00    +0.013 C 
ATOM     15  C   UNL     1      -7.300  -8.464  -2.637  0.00  0.00    +0.001 C 
ATOM     16  C   UNL     1      -8.614  -8.121  -2.940  0.00  0.00    +0.004 C 
ATOM     17  C   UNL     1      -9.092  -6.866  -2.720  0.00  0.00    +0.051 C 
ATOM     18  C   UNL     1      -8.254  -5.882  -2.169  0.00  0.00    +0.188 C 
ATOM     19  O   UNL     1      -8.671  -4.751  -1.960  0.00  0.00    -0.287 OA
ATOM     20  N   UNL     1      -6.289  -4.001  -0.993  0.00  0.00    -0.277 N 
ATOM     21  H   UNL     1      -7.172  -3.603  -1.052  0.00  0.00    +0.166 HD
ENDROOT
BRANCH   8  22
ATOM     22  C   UNL     1      -5.502  -2.350   1.564  0.00  0.00    +0.049 A 
ATOM     23  C   UNL     1      -5.072  -1.678   2.660  0.00  0.00    -0.035 A 
ATOM     24  C   UNL     1      -5.509  -2.081   3.908  0.00  0.00    +0.011 A 
ATOM     25  C   UNL     1      -6.356  -3.135   3.999  0.00  0.00    +0.046 A 
ATOM     26  S   UNL     1      -6.565  -3.591   2.285  0.00  0.00    -0.096 S 
ATOM     27  C   UNL     1      -4.130  -0.510   2.520  0.00  0.00    +0.045 C 
ENDBRANCH   8  22
BRANCH   1  28
ATOM     28  O   UNL     1      -1.339  -0.499   0.012  0.00  0.00    -0.489 OA
BRANCH  28  30
ATOM     29  C   UNL     1      -0.019   1.526   0.010  0.00  0.00    +0.048 C 
ATOM     30  C   UNL     1       0.002  -0.004   0.002  0.00  0.00    +0.226 C 
ENDBRANCH  28  30
ENDBRANCH   1  28
TORSDOF 3
