REMARK  Name = ZINC56961682
REMARK  2 active torsions:
REMARK  status: ('A' for Active; 'I' for Inactive)
REMARK    1  A    between atoms: C_2  and  C_3
REMARK    2  A    between atoms: C_3  and  C_4
REMARK                            x       y       z     vdW  Elec       q    Type
REMARK                         _______ _______ _______ _____ _____    ______ ____
ROOT
ATOM      1  C   UNL     1      -0.018   1.468   0.010  0.00  0.00    +0.100 C 
ENDROOT
BRANCH   1   3
ATOM      2  C   UNL     1       0.018  -1.178  -0.004  0.00  0.00    +0.004 C 
ATOM      3  C   UNL     1       0.002  -0.004   0.002  0.00  0.00    -0.105 C 
ENDBRANCH   1   3
BRANCH   1   4
ATOM      4  C   UNL     1       1.417   1.997  -0.001  0.00  0.00    +0.092 C 
ATOM      5 BR   UNL     1       1.391   3.963   0.010  0.00  0.00    -0.091 Br
ENDBRANCH   1   4
TORSDOF 2
