REMARK  Name = ZINC16401305
REMARK  5 active torsions:
REMARK  status: ('A' for Active; 'I' for Inactive)
REMARK    1  A    between atoms: C_6  and  C_7
REMARK    2  A    between atoms: C_7  and  C_8
REMARK    3  A    between atoms: C_12  and  C_15
REMARK    4  A    between atoms: C_18  and  N_21
REMARK    5  A    between atoms: C_22  and  C_24
REMARK                            x       y       z     vdW  Elec       q    Type
REMARK                         _______ _______ _______ _____ _____    ______ ____
ROOT
ATOM      1  C   UNL     1      -4.571   5.565   0.137  0.00  0.00    +0.015 A 
ATOM      2  C   UNL     1      -3.296   6.101   0.107  0.00  0.00    +0.011 A 
ATOM      3  C   UNL     1      -2.219   5.350   0.536  0.00  0.00    +0.024 A 
ATOM      4  C   UNL     1      -2.418   4.056   0.999  0.00  0.00    +0.034 A 
ATOM      5  C   UNL     1      -3.698   3.519   1.024  0.00  0.00    +0.024 A 
ATOM      6  C   UNL     1      -4.771   4.277   0.598  0.00  0.00    +0.011 A 
ENDROOT
BRANCH   1  11
ATOM      7  C   UNL     1      -7.866   5.530  -0.558  0.00  0.00    +0.128 C 
ATOM      8  C   UNL     1      -7.233   5.633  -1.878  0.00  0.00    +0.356 C 
ATOM      9  O   UNL     1      -7.749   5.315  -2.932  0.00  0.00    -0.244 OA
ATOM     10  O   UNL     1      -5.992   6.134  -1.741  0.00  0.00    -0.430 OA
ATOM     11  C   UNL     1      -5.743   6.387  -0.333  0.00  0.00    +0.326 C 
ATOM     12  N   UNL     1      -6.954   5.992   0.397  0.00  0.00    -0.234 NA
BRANCH   7  13
ATOM     13  C   UNL     1      -9.113   5.068  -0.309  0.00  0.00    +0.097 C 
BRANCH  13  19
ATOM     14  C   UNL     1     -10.121   5.656  -2.506  0.00  0.00    +0.005 A 
ATOM     15  C   UNL     1     -10.974   5.370  -3.551  0.00  0.00    +0.015 A 
ATOM     16  C   UNL     1     -11.743   4.218  -3.526  0.00  0.00    +0.018 A 
ATOM     17  C   UNL     1     -11.657   3.342  -2.457  0.00  0.00    +0.015 A 
ATOM     18  C   UNL     1     -10.805   3.612  -1.408  0.00  0.00    +0.005 A 
ATOM     19  C   UNL     1     -10.025   4.773  -1.425  0.00  0.00    -0.041 A 
ATOM     20 BR   UNL     1     -12.915   3.839  -4.961  0.00  0.00    -0.050 Br
ENDBRANCH  13  19
ENDBRANCH   7  13
ENDBRANCH   1  11
BRANCH   4  21
ATOM     21  N   UNL     1      -1.329   3.293   1.435  0.00  0.00    -0.279 N 
ATOM     22  C   UNL     1      -1.489   2.399   2.431  0.00  0.00    +0.287 C 
ATOM     23  O   UNL     1      -2.553   2.322   3.014  0.00  0.00    -0.266 OA
ATOM     24  H   UNL     1      -0.460   3.407   1.020  0.00  0.00    +0.155 HD
BRANCH  22  25
ATOM     25  C   UNL     1      -0.369   1.513   2.814  0.00  0.00    +0.236 A 
ATOM     26  N   UNL     1       0.852   1.491   2.251  0.00  0.00    -0.211 NA
ATOM     27  C   UNL     1       1.548   0.569   2.866  0.00  0.00    +0.216 A 
ATOM     28  N   UNL     1       0.757   0.023   3.808  0.00  0.00    -0.265 N 
ATOM     29  H   UNL     1       1.010  -0.687   4.419  0.00  0.00    +0.190 HD
ATOM     30  N   UNL     1      -0.393   0.603   3.763  0.00  0.00    -0.148 NA
ENDBRANCH  22  25
ENDBRANCH   4  21
TORSDOF 5
