REMARK  Name = ZINC02725468
REMARK  6 active torsions:
REMARK  status: ('A' for Active; 'I' for Inactive)
REMARK    1  A    between atoms: C_1  and  C_2
REMARK    2  A    between atoms: C_2  and  C_3
REMARK    3  A    between atoms: C_3  and  C_5
REMARK    4  A    between atoms: C_3  and  N_6
REMARK    5  A    between atoms: N_9  and  C_10
REMARK    6  A    between atoms: C_10  and  C_21
REMARK                            x       y       z     vdW  Elec       q    Type
REMARK                         _______ _______ _______ _____ _____    ______ ____
ROOT
ATOM      1  C   UNL     1       2.803   3.560   0.407  0.00  0.00    +0.436 C 
ATOM      2  O   UNL     1       1.426   3.430   0.007  0.00  0.00    -0.426 OA
ATOM      3  C   UNL     1       1.173   2.089   0.002  0.00  0.00    +0.170 A 
ATOM      4  C   UNL     1      -0.017   1.379   0.010  0.00  0.00    +0.071 A 
ATOM      5  C   UNL     1       0.002  -0.004   0.002  0.00  0.00    +0.063 A 
ATOM      6  C   UNL     1       1.209  -0.682  -0.013  0.00  0.00    +0.063 A 
ATOM      7  C   UNL     1       2.400   0.021  -0.020  0.00  0.00    +0.071 A 
ATOM      8  C   UNL     1       2.387   1.407  -0.013  0.00  0.00    +0.170 A 
ATOM      9  O   UNL     1       3.401   2.321  -0.017  0.00  0.00    -0.426 OA
ATOM     10 CL   UNL     1       1.228  -2.418  -0.021  0.00  0.00    -0.082 Cl
ATOM     11 CL   UNL     1      -1.490  -0.891   0.012  0.00  0.00    -0.082 Cl
ENDROOT
BRANCH   1  15
ATOM     12  N   UNL     1       2.441   2.926   4.011  0.00  0.00    -0.297 N 
ATOM     13  C   UNL     1       2.348   2.789   2.673  0.00  0.00    +0.306 C 
ATOM     14  O   UNL     1       1.761   1.835   2.200  0.00  0.00    -0.253 OA
ATOM     15  N   UNL     1       2.905   3.709   1.861  0.00  0.00    -0.220 N 
ATOM     16  H   UNL     1       2.909   3.687   4.389  0.00  0.00    +0.151 HD
ATOM     17  H   UNL     1       3.373   4.470   2.239  0.00  0.00    +0.158 HD
BRANCH  12  18
ATOM     18  C   UNL     1       1.836   1.926   4.894  0.00  0.00    +0.071 C 
ATOM     19  C   UNL     1       0.359   2.264   5.110  0.00  0.00    +0.028 C 
BRANCH  18  21
ATOM     20  C   UNL     1       4.008   1.471   6.042  0.00  0.00    +0.005 C 
ATOM     21  C   UNL     1       2.562   1.929   6.241  0.00  0.00    +0.019 C 
ENDBRANCH  18  21
ENDBRANCH  12  18
ENDBRANCH   1  15
BRANCH   1  22
ATOM     22  C   UNL     1       3.463   4.745  -0.300  0.00  0.00    +0.490 C 
ATOM     23  F   UNL     1       3.312   4.605  -1.684  0.00  0.00    -0.162 F 
ATOM     24  F   UNL     1       2.855   5.935   0.116  0.00  0.00    -0.162 F 
ATOM     25  F   UNL     1       4.824   4.781   0.019  0.00  0.00    -0.162 F 
ENDBRANCH   1  22
TORSDOF 4
