REMARK  Name = ZINC40792103
REMARK  8 active torsions:
REMARK  status: ('A' for Active; 'I' for Inactive)
REMARK    1  A    between atoms: CD1_1  and  CG_2
REMARK    2  A    between atoms: CG_2  and  CD2_3
REMARK    3  A    between atoms: CG_2  and  CB_4
REMARK    4  A    between atoms: CB_4  and  CA_5
REMARK    5  A    between atoms: CA_5  and  C_7
REMARK    6  A    between atoms: CA_5  and  N_9
REMARK    7  A    between atoms: C_7  and  O_8
REMARK    8  A    between atoms: C_10  and  C_12
REMARK                            x       y       z     vdW  Elec       q    Type
REMARK                         _______ _______ _______ _____ _____    ______ ____
ROOT
ATOM      1  N   LEU A   1      -0.290   1.103   2.662  0.00  0.00    -0.306 N 
ATOM      2  C   UNK A   0      -1.344   1.602   3.339  0.00  0.00    +0.246 C 
ATOM      3  O   UNK A   0      -2.187   0.851   3.791  0.00  0.00    -0.270 OA
ATOM      4  H   LEU A   1       0.382   1.702   2.302  0.00  0.00    +0.149 HD
ENDROOT
BRANCH   2   5
ATOM      5  C   UNK A   0      -1.474   3.053   3.530  0.00  0.00    +0.062 A 
ATOM      6  C   UNK A   0      -0.618   4.015   3.080  0.00  0.00    +0.096 A 
ATOM      7  N   UNK A   0      -1.069   5.238   3.450  0.00  0.00    -0.360 N 
ATOM      8  H   UNK A   0      -0.627   6.076   3.243  0.00  0.00    +0.165 HD
ATOM      9  C   UNK A   0      -2.245   5.123   4.162  0.00  0.00    +0.048 A 
ATOM     10  C   UNK A   0      -2.557   3.756   4.240  0.00  0.00    +0.013 A 
ATOM     11  C   UNK A   0      -3.708   3.339   4.905  0.00  0.00    +0.027 A 
ATOM     12  C   UNK A   0      -4.540   4.275   5.481  0.00  0.00    +0.033 A 
ATOM     13  C   UNK A   0      -4.235   5.627   5.401  0.00  0.00    +0.034 A 
ATOM     14  C   UNK A   0      -3.094   6.052   4.754  0.00  0.00    +0.042 A 
ATOM     15 BR   UNK A   0      -5.389   6.896   6.197  0.00  0.00    -0.049 Br
ATOM     16 BR   UNK A   0      -6.104   3.714   6.385  0.00  0.00    -0.049 Br
ENDBRANCH   2   5
BRANCH   1  17
ATOM     17  CA  LEU A   1      -0.161  -0.344   2.472  0.00  0.00    +0.099 C 
BRANCH  17  18
ATOM     18  CB  LEU A   1       0.683  -0.621   1.226  0.00  0.00    +0.027 C 
BRANCH  18  20
ATOM     19  CD1 LEU A   1       0.852  -0.248  -1.239  0.00  0.00    +0.007 C 
ATOM     20  CG  LEU A   1      -0.048  -0.096  -0.012  0.00  0.00    -0.015 C 
ATOM     21  CD2 LEU A   1      -1.335  -0.896  -0.221  0.00  0.00    +0.007 C 
ENDBRANCH  18  20
ENDBRANCH  17  18
BRANCH  17  22
ATOM     22  C   LEU A   1       0.520  -0.960   3.696  0.00  0.00    +0.178 C 
BRANCH  22  23
ATOM     23  O   LEU A   1       1.859  -0.471   3.793  0.00  0.00    -0.393 OA
ATOM     24  H   LEU A   1       2.352  -0.821   4.548  0.00  0.00    +0.209 HD
ENDBRANCH  22  23
ENDBRANCH  17  22
ENDBRANCH   1  17
TORSDOF 6
