REMARK  Name = ZINC01860164
REMARK  11 active torsions:
REMARK  status: ('A' for Active; 'I' for Inactive)
REMARK    1  A    between atoms: C_1  and  O_2
REMARK    2  A    between atoms: O_2  and  C_3
REMARK    3  A    between atoms: C_6  and  C_11
REMARK    4  A    between atoms: C_8  and  O_9
REMARK    5  A    between atoms: O_9  and  C_10
REMARK    6  A    between atoms: C_11  and  C_12
REMARK    7  A    between atoms: C_12  and  N_13
REMARK    8  A    between atoms: C_22  and  C_26
REMARK    9  A    between atoms: C_22  and  N_30
REMARK   10  A    between atoms: N_30  and  S_31
REMARK   11  A    between atoms: S_31  and  C_34
REMARK                            x       y       z     vdW  Elec       q    Type
REMARK                         _______ _______ _______ _____ _____    ______ ____
ROOT
ATOM      1  N   UNL     1       1.835   0.713  -0.385  0.00  0.00    -0.281 N 
ATOM      2  C   UNL     1       0.651   1.398  -0.213  0.00  0.00    +0.120 A 
ATOM      3  C   UNL     1       0.695   2.760  -0.148  0.00  0.00    +0.094 A 
ATOM      4  C   UNL     1       1.919   3.432  -0.257  0.00  0.00    +0.262 A 
ATOM      5  O   UNL     1       1.960   4.648  -0.201  0.00  0.00    -0.267 OA
ATOM      6  N   UNL     1       3.051   2.717  -0.424  0.00  0.00    -0.275 N 
ATOM      7  H   UNL     1       3.931   3.187  -0.502  0.00  0.00    +0.173 HD
ATOM      8  C   UNL     1       3.000   1.374  -0.487  0.00  0.00    +0.331 A 
ATOM      9  O   UNL     1       4.030   0.746  -0.639  0.00  0.00    -0.246 OA
ATOM     10  C   UNL     1      -0.729   3.229   0.040  0.00  0.00    +0.243 C 
ATOM     11  C   UNL     1      -1.526   1.940   0.062  0.00  0.00    +0.254 C 
ATOM     12  O   UNL     1      -2.727   1.832   0.190  0.00  0.00    -0.273 OA
ATOM     13  N   UNL     1      -0.638   0.942  -0.086  0.00  0.00    -0.269 N 
ATOM     14  H   UNL     1      -0.882   0.003  -0.106  0.00  0.00    +0.156 HD
ENDROOT
BRANCH  10  15
ATOM     15  C   UNL     1      -0.877   3.982   1.364  0.00  0.00    +0.422 C 
ATOM     16  F   UNL     1       0.003   5.069   1.383  0.00  0.00    -0.168 F 
ATOM     17  F   UNL     1      -2.191   4.443   1.494  0.00  0.00    -0.168 F 
ATOM     18  F   UNL     1      -0.577   3.121   2.426  0.00  0.00    -0.168 F 
ENDBRANCH  10  15
BRANCH  10  19
ATOM     19  N   UNL     1      -1.146   4.074  -1.081  0.00  0.00    -0.162 NA
ATOM     20  H   UNL     1      -1.488   4.967  -0.915  0.00  0.00    +0.150 HD
BRANCH  19  21
ATOM     21  S   UNL     1      -1.034   3.506  -2.633  0.00  0.00    +0.060 S 
ATOM     22  O   UNL     1      -1.481   4.554  -3.482  0.00  0.00    -0.153 OA
ATOM     23  O   UNL     1       0.255   2.921  -2.759  0.00  0.00    -0.153 OA
BRANCH  21  24
ATOM     24  C   UNL     1      -2.201   2.196  -2.793  0.00  0.00    +0.105 A 
ATOM     25  C   UNL     1      -1.790   0.884  -2.649  0.00  0.00    +0.030 A 
ATOM     26  C   UNL     1      -2.706  -0.145  -2.769  0.00  0.00    +0.022 A 
ATOM     27  C   UNL     1      -4.031   0.139  -3.045  0.00  0.00    +0.041 A 
ATOM     28  C   UNL     1      -4.441   1.452  -3.195  0.00  0.00    +0.022 A 
ATOM     29  C   UNL     1      -3.525   2.480  -3.069  0.00  0.00    +0.030 A 
ATOM     30 CL   UNL     1      -5.181  -1.153  -3.204  0.00  0.00    -0.084 Cl
ENDBRANCH  21  24
ENDBRANCH  19  21
ENDBRANCH  10  19
BRANCH   1  31
ATOM     31  C   UNL     1       1.822  -0.751  -0.458  0.00  0.00    +0.133 C 
BRANCH  31  32
ATOM     32  C   UNL     1       1.652  -1.187  -1.915  0.00  0.00    +0.057 C 
BRANCH  32  36
ATOM     33  C   UNL     1       1.621  -5.458  -2.130  0.00  0.00    +0.161 A 
ATOM     34  C   UNL     1       2.816  -4.764  -2.233  0.00  0.00    +0.049 A 
ATOM     35  C   UNL     1       2.822  -3.384  -2.169  0.00  0.00    +0.007 A 
ATOM     36  C   UNL     1       1.639  -2.692  -1.991  0.00  0.00    -0.042 A 
ATOM     37  C   UNL     1       0.443  -3.377  -1.887  0.00  0.00    +0.053 A 
ATOM     38  C   UNL     1       0.429  -4.761  -1.956  0.00  0.00    +0.162 A 
BRANCH  33  40
ATOM     39  C   UNL     1       2.873  -7.464  -2.378  0.00  0.00    +0.277 C 
ATOM     40  O   UNL     1       1.613  -6.816  -2.199  0.00  0.00    -0.491 OA
ENDBRANCH  33  40
BRANCH  38  41
ATOM     41  O   UNL     1      -0.747  -5.437  -1.855  0.00  0.00    -0.491 OA
ATOM     42  C   UNL     1      -1.931  -4.656  -1.678  0.00  0.00    +0.277 C 
ENDBRANCH  38  41
ENDBRANCH  32  36
ENDBRANCH  31  32
ENDBRANCH   1  31
TORSDOF 9
