REMARK  Name = ZINC19075407
REMARK  10 active torsions:
REMARK  status: ('A' for Active; 'I' for Inactive)
REMARK    1  A    between atoms: C_1  and  C_2
REMARK    2  A    between atoms: C_2  and  C_40
REMARK    3  A    between atoms: C_7  and  C_39
REMARK    4  A    between atoms: N_13  and  C_14
REMARK    5  A    between atoms: C_14  and  C_15
REMARK    6  A    between atoms: C_20  and  C_23
REMARK    7  A    between atoms: C_23  and  N_24
REMARK    8  A    between atoms: C_29  and  C_38
REMARK    9  A    between atoms: C_34  and  C_36
REMARK   10  A    between atoms: C_34  and  C_37
REMARK                            x       y       z     vdW  Elec       q    Type
REMARK                         _______ _______ _______ _____ _____    ______ ____
ROOT
ATOM      1  C   UNL     1       2.684   7.901  -1.007  0.00  0.00    +0.006 C 
ATOM      2  C   UNL     1       1.759   8.849  -0.242  0.00  0.00    +0.005 C 
ATOM      3  C   UNL     1       2.598   9.804   0.610  0.00  0.00    +0.001 C 
ATOM      4  C   UNL     1       3.524  10.617  -0.297  0.00  0.00    +0.005 C 
ATOM      5  C   UNL     1       4.449   9.668  -1.062  0.00  0.00    +0.006 C 
ATOM      6  C   UNL     1       3.610   8.714  -1.914  0.00  0.00    +0.010 C 
ENDROOT
BRANCH   1   7
ATOM      7  C   UNL     1       1.845   6.946  -1.858  0.00  0.00    +0.109 C 
BRANCH   7  19
ATOM      8  C   UNL     1       0.002  -0.004   0.002  0.00  0.00    +0.011 C 
ATOM      9  C   UNL     1      -0.019   1.545   0.011  0.00  0.00    -0.033 C 
ATOM     10  C   UNL     1      -0.699   1.989  -1.272  0.00  0.00    +0.029 C 
ATOM     11  C   UNL     1      -1.449   3.315  -1.148  0.00  0.00    +0.079 C 
ATOM     12  C   UNL     1      -2.452   3.157   0.024  0.00  0.00    +0.030 C 
ATOM     13  C   UNL     1      -1.471   3.281   1.222  0.00  0.00    -0.014 C 
ATOM     14  C   UNL     1      -0.681   1.977   1.304  0.00  0.00    +0.014 C 
ATOM     15  C   UNL     1      -0.526   4.413   0.759  0.00  0.00    +0.116 C 
ATOM     16  N   UNL     1      -0.511   4.367  -0.711  0.00  0.00    -0.282 N 
ATOM     17  C   UNL     1       0.225   5.159  -1.516  0.00  0.00    +0.302 C 
ATOM     18  O   UNL     1       0.147   5.038  -2.724  0.00  0.00    -0.253 OA
ATOM     19  N   UNL     1       1.046   6.085  -0.983  0.00  0.00    -0.299 N 
ATOM     20  C   UNL     1      -2.192   3.623   2.535  0.00  0.00    +0.013 C 
ATOM     21  C   UNL     1       1.450   1.997  -0.001  0.00  0.00    +0.011 C 
ATOM     22  H   UNL     1       1.108   6.181  -0.020  0.00  0.00    +0.150 HD
ENDBRANCH   7  19
ENDBRANCH   1   7
BRANCH   5  23
ATOM     23  C   UNL     1       5.288   8.862  -0.068  0.00  0.00    +0.109 C 
BRANCH  23  24
ATOM     24  N   UNL     1       6.178   9.765   0.665  0.00  0.00    -0.299 N 
ATOM     25  C   UNL     1       7.016   9.274   1.600  0.00  0.00    +0.302 C 
ATOM     26  O   UNL     1       7.032   8.081   1.835  0.00  0.00    -0.253 OA
ATOM     27  N   UNL     1       7.835  10.105   2.275  0.00  0.00    -0.282 N 
ATOM     28  C   UNL     1       7.920  11.563   2.094  0.00  0.00    +0.116 C 
ATOM     29  C   UNL     1       9.036  12.056   3.042  0.00  0.00    -0.014 C 
ATOM     30  C   UNL     1       8.998  10.997   4.178  0.00  0.00    +0.030 C 
ATOM     31  C   UNL     1       8.791   9.716   3.329  0.00  0.00    +0.079 C 
ATOM     32  C   UNL     1      10.139   9.384   2.691  0.00  0.00    +0.029 C 
ATOM     33  C   UNL     1      10.731  10.520   1.877  0.00  0.00    -0.033 C 
ATOM     34  C   UNL     1      10.383  11.923   2.336  0.00  0.00    +0.014 C 
ATOM     35  C   UNL     1      12.272  10.381   1.954  0.00  0.00    +0.011 C 
ATOM     36  C   UNL     1      10.354  10.346   0.398  0.00  0.00    +0.011 C 
ATOM     37  C   UNL     1       8.775  13.478   3.561  0.00  0.00    +0.013 C 
ATOM     38  H   UNL     1       6.165  10.717   0.477  0.00  0.00    +0.150 HD
ENDBRANCH  23  24
ENDBRANCH   5  23
TORSDOF 4
