REMARK  Name = ZINC37360047
REMARK  7 active torsions:
REMARK  status: ('A' for Active; 'I' for Inactive)
REMARK    1  A    between atoms: C_1  and  C_2
REMARK    2  A    between atoms: C_2  and  O_3
REMARK    3  A    between atoms: O_3  and  C_4
REMARK    4  A    between atoms: C_4  and  C_6
REMARK    5  A    between atoms: C_14  and  C_23
REMARK    6  A    between atoms: C_16  and  N_22
REMARK    7  A    between atoms: N_17  and  C_21
REMARK                            x       y       z     vdW  Elec       q    Type
REMARK                         _______ _______ _______ _____ _____    ______ ____
ROOT
ATOM      1  C   UNL     1       2.218  -2.401  -1.058  0.00  0.00    +0.101 C 
ATOM      2  C   UNL     1       3.580  -1.906  -1.551  0.00  0.00    +0.033 C 
ATOM      3  C   UNL     1       3.816  -2.411  -2.978  0.00  0.00    +0.109 C 
ATOM      4  N   UNL     1       3.663  -3.872  -2.994  0.00  0.00    -0.300 N 
ATOM      5  C   UNL     1       2.428  -4.459  -2.458  0.00  0.00    +0.109 C 
ATOM      6  C   UNL     1       2.207  -3.931  -1.037  0.00  0.00    +0.033 C 
ATOM      7  C   UNL     1       4.664  -4.680  -3.504  0.00  0.00    +0.220 A 
ATOM      8  N   UNL     1       4.473  -5.996  -3.500  0.00  0.00    -0.213 NA
ATOM      9  C   UNL     1       5.380  -6.843  -3.970  0.00  0.00    +0.091 A 
ATOM     10  C   UNL     1       6.583  -6.314  -4.489  0.00  0.00    +0.086 A 
ATOM     11  C   UNL     1       7.740  -6.839  -5.053  0.00  0.00    +0.126 A 
ATOM     12  N   UNL     1       8.546  -5.807  -5.358  0.00  0.00    -0.251 N 
ATOM     13  N   UNL     1       7.933  -4.601  -5.000  0.00  0.00    -0.149 NA
ATOM     14  C   UNL     1       6.754  -4.850  -4.475  0.00  0.00    +0.188 A 
ATOM     15  N   UNL     1       5.751  -4.103  -3.972  0.00  0.00    -0.193 NA
ATOM     16  C   UNL     1       9.870  -5.928  -5.973  0.00  0.00    +0.174 C 
ENDROOT
BRANCH   9  17
ATOM     17  C   UNL     1       5.138  -8.302  -3.951  0.00  0.00    +0.039 A 
ATOM     18  C   UNL     1       6.038  -9.154  -3.308  0.00  0.00    +0.013 A 
ATOM     19  C   UNL     1       5.808 -10.513  -3.293  0.00  0.00    +0.004 A 
ATOM     20  C   UNL     1       4.687 -11.037  -3.913  0.00  0.00    +0.041 A 
ATOM     21  C   UNL     1       3.788 -10.201  -4.553  0.00  0.00    +0.159 A 
ATOM     22  C   UNL     1       4.005  -8.833  -4.571  0.00  0.00    +0.168 A 
ATOM     23  F   UNL     1       3.125  -8.016  -5.191  0.00  0.00    -0.202 F 
ATOM     24  F   UNL     1       2.697 -10.720  -5.157  0.00  0.00    -0.202 F 
ENDBRANCH   9  17
BRANCH  11  25
ATOM     25  N   UNL     1       8.012  -8.178  -5.262  0.00  0.00    -0.343 N 
ATOM     26  H   UNL     1       7.320  -8.842  -5.117  0.00  0.00    +0.144 HD
ATOM     27  H   UNL     1       8.895  -8.454  -5.554  0.00  0.00    +0.144 HD
ENDBRANCH  11  25
BRANCH   1  28
ATOM     28  C   UNL     1       1.967  -1.878   0.333  0.00  0.00    +0.310 C 
ATOM     29  O   UNL     1       1.797  -2.650   1.247  0.00  0.00    -0.251 OA
BRANCH  28  30
ATOM     30  O   UNL     1       1.933  -0.555   0.556  0.00  0.00    -0.465 OA
BRANCH  30  32
ATOM     31  C   UNL     1       1.687   1.399   1.957  0.00  0.00    +0.048 C 
ATOM     32  C   UNL     1       1.690  -0.130   1.899  0.00  0.00    +0.229 C 
ENDBRANCH  30  32
ENDBRANCH  28  30
ENDBRANCH   1  28
TORSDOF 5
