REMARK  Name = ZINC45130707
REMARK  4 active torsions:
REMARK  status: ('A' for Active; 'I' for Inactive)
REMARK    1  A    between atoms: C_8  and  C_12
REMARK    2  A    between atoms: C_12  and  N_13
REMARK    3  A    between atoms: N_16  and  N_17
REMARK    4  A    between atoms: C_18  and  C_20
REMARK                            x       y       z     vdW  Elec       q    Type
REMARK                         _______ _______ _______ _____ _____    ______ ____
ROOT
ATOM      1  N   UNL     1       3.886  -4.760  -0.720  0.00  0.00    -0.298 N 
ATOM      2  C   UNL     1       4.179  -6.069  -0.586  0.00  0.00    +0.316 C 
ATOM      3  O   UNL     1       3.402  -6.809  -0.014  0.00  0.00    -0.251 OA
ATOM      4  N   UNL     1       5.332  -6.556  -1.085  0.00  0.00    -0.218 N 
ATOM      5  H   UNL     1       4.506  -4.168  -1.175  0.00  0.00    +0.150 HD
ATOM      6  H   UNL     1       5.543  -7.498  -0.988  0.00  0.00    +0.174 HD
ENDROOT
BRANCH   4   7
ATOM      7  N   UNL     1       6.227  -5.702  -1.743  0.00  0.00    -0.228 N 
ATOM      8  C   UNL     1       7.380  -6.189  -2.241  0.00  0.00    +0.276 C 
ATOM      9  O   UNL     1       7.644  -7.371  -2.120  0.00  0.00    -0.267 OA
ATOM     10  H   UNL     1       6.016  -4.760  -1.839  0.00  0.00    +0.173 HD
BRANCH   8  11
ATOM     11  C   UNL     1       8.317  -5.295  -2.930  0.00  0.00    +0.104 A 
ATOM     12  C   UNL     1       9.524  -5.656  -3.492  0.00  0.00    +0.047 A 
ATOM     13  C   UNL     1      10.084  -4.497  -4.040  0.00  0.00    +0.036 A 
ATOM     14  C   UNL     1       9.229  -3.472  -3.808  0.00  0.00    +0.098 A 
ATOM     15  N   UNL     1       8.149  -3.945  -3.139  0.00  0.00    -0.356 N 
ATOM     16  H   UNL     1       7.385  -3.420  -2.853  0.00  0.00    +0.166 HD
ATOM     17 BR   UNL     1      11.742  -4.382  -4.943  0.00  0.00    -0.049 Br
ENDBRANCH   8  11
ENDBRANCH   4   7
BRANCH   1  18
ATOM     18  C   UNL     1       2.633  -4.230  -0.177  0.00  0.00    +0.113 C 
BRANCH  18  26
ATOM     19  C   UNL     1      -0.017   1.377   0.010  0.00  0.00    +0.000 A 
ATOM     20  C   UNL     1       1.172   2.084   0.002  0.00  0.00    +0.004 A 
ATOM     21  C   UNL     1       2.375   1.409  -0.015  0.00  0.00    +0.046 A 
ATOM     22  C   UNL     1       2.398   0.018  -0.024  0.00  0.00    +0.124 A 
ATOM     23  C   UNL     1       1.207  -0.687  -0.012  0.00  0.00    -0.005 A 
ATOM     24  C   UNL     1       0.002  -0.004   0.002  0.00  0.00    +0.007 A 
ATOM     25  C   UNL     1       1.187  -2.194  -0.010  0.00  0.00    +0.047 C 
ATOM     26  C   UNL     1       2.548  -2.729  -0.463  0.00  0.00    +0.048 C 
ATOM     27  C   UNL     1       3.641  -1.990   0.320  0.00  0.00    +0.234 C 
ATOM     28  O   UNL     1       3.602  -0.610  -0.046  0.00  0.00    -0.491 OA
ENDBRANCH  18  26
ENDBRANCH   1  18
TORSDOF 4
