REMARK  Name = ZINC36064020
REMARK  11 active torsions:
REMARK  status: ('A' for Active; 'I' for Inactive)
REMARK    1  A    between atoms: C_1  and  C_2
REMARK    2  A    between atoms: C_6  and  C_8
REMARK    3  A    between atoms: C_8  and  N_9
REMARK    4  A    between atoms: N_9  and  C_10
REMARK    5  A    between atoms: N_9  and  C_22
REMARK    6  A    between atoms: C_10  and  C_11
REMARK    7  A    between atoms: C_11  and  C_12
REMARK    8  A    between atoms: C_22  and  C_23
REMARK    9  A    between atoms: C_25  and  C_28
REMARK   10  A    between atoms: N_30  and  C_31
REMARK   11  A    between atoms: C_31  and  C_32
REMARK                            x       y       z     vdW  Elec       q    Type
REMARK                         _______ _______ _______ _____ _____    ______ ____
ROOT
ATOM      1  N   UNL     1       1.718  -2.979   2.747  0.00  0.00    +0.388 N 
ATOM      2  H   UNL     1       2.304  -3.316   1.998  0.00  0.00    -0.081 HD
ENDROOT
BRANCH   1   3
ATOM      3  C   UNL     1       0.339  -2.833   2.263  0.00  0.00    -0.042 C 
BRANCH   3   9
ATOM      4  C   UNL     1      -0.265   1.680   0.187  0.00  0.00    +0.044 C 
ATOM      5  C   UNL     1       0.037   0.210   0.049  0.00  0.00    -0.050 A 
ATOM      6  C   UNL     1       0.301  -0.327  -1.197  0.00  0.00    +0.003 A 
ATOM      7  C   UNL     1       0.578  -1.676  -1.323  0.00  0.00    +0.000 A 
ATOM      8  C   UNL     1       0.590  -2.487  -0.203  0.00  0.00    +0.002 A 
ATOM      9  C   UNL     1       0.326  -1.949   1.042  0.00  0.00    -0.064 A 
ATOM     10  C   UNL     1       0.054  -0.600   1.169  0.00  0.00    +0.005 A 
ENDBRANCH   3   9
ENDBRANCH   1   3
BRANCH   1  11
ATOM     11  C   UNL     1       1.747  -3.938   3.860  0.00  0.00    -0.073 C 
BRANCH  11  12
ATOM     12  C   UNL     1       1.349  -5.324   3.350  0.00  0.00    +0.019 C 
BRANCH  12  13
ATOM     13  C   UNL     1       1.378  -6.307   4.492  0.00  0.00    -0.024 A 
ATOM     14  C   UNL     1       2.400  -7.110   4.828  0.00  0.00    +0.087 A 
ATOM     15  N   UNL     1       2.063  -7.863   5.919  0.00  0.00    -0.360 N 
ATOM     16  H   UNL     1       2.639  -8.517   6.345  0.00  0.00    +0.165 HD
ATOM     17  C   UNL     1       0.783  -7.556   6.322  0.00  0.00    +0.047 A 
ATOM     18  C   UNL     1       0.300  -6.563   5.450  0.00  0.00    +0.003 A 
ATOM     19  C   UNL     1      -0.986  -6.048   5.624  0.00  0.00    +0.010 A 
ATOM     20  C   UNL     1      -1.769  -6.509   6.644  0.00  0.00    +0.001 A 
ATOM     21  C   UNL     1      -1.296  -7.486   7.510  0.00  0.00    +0.002 A 
ATOM     22  C   UNL     1      -0.034  -8.014   7.351  0.00  0.00    +0.026 A 
ENDBRANCH  12  13
ENDBRANCH  11  12
ENDBRANCH   1  11
BRANCH   1  23
ATOM     23  C   UNL     1       2.215  -1.677   3.209  0.00  0.00    +0.019 C 
BRANCH  23  24
ATOM     24  C   UNL     1       3.672  -1.796   3.576  0.00  0.00    +0.179 A 
ATOM     25  N   UNL     1       4.670  -1.570   2.775  0.00  0.00    -0.210 NA
ATOM     26  C   UNL     1       5.828  -1.779   3.459  0.00  0.00    +0.163 A 
ATOM     27  C   UNL     1       5.484  -2.147   4.724  0.00  0.00    +0.230 A 
ATOM     28  O   UNL     1       4.143  -2.147   4.781  0.00  0.00    -0.449 OA
BRANCH  26  29
ATOM     29  C   UNL     1       7.196  -1.636   2.930  0.00  0.00    +0.266 C 
ATOM     30  O   UNL     1       8.150  -1.944   3.619  0.00  0.00    -0.268 OA
ATOM     31  N   UNL     1       7.390  -1.163   1.683  0.00  0.00    -0.304 N 
ATOM     32  H   UNL     1       6.636  -0.846   1.162  0.00  0.00    +0.149 HD
BRANCH  31  33
ATOM     33  C   UNL     1       8.740  -1.130   1.114  0.00  0.00    +0.160 C 
BRANCH  33  34
ATOM     34  C   UNL     1       8.701  -0.454  -0.232  0.00  0.00    +0.058 A 
ATOM     35  C   UNL     1       8.987   0.895  -0.328  0.00  0.00    +0.025 A 
ATOM     36  C   UNL     1       8.949   1.507  -1.571  0.00  0.00    +0.003 A 
ATOM     37  C   UNL     1       8.622   0.737  -2.676  0.00  0.00    +0.020 A 
ATOM     38  C   UNL     1       8.348  -0.607  -2.503  0.00  0.00    +0.111 A 
ATOM     39  N   UNL     1       8.400  -1.157  -1.306  0.00  0.00    -0.258 NA
ENDBRANCH  33  34
ENDBRANCH  31  33
ENDBRANCH  26  29
ENDBRANCH  23  24
ENDBRANCH   1  23
TORSDOF 10
