REMARK  Name = ZINC39665979
REMARK  8 active torsions:
REMARK  status: ('A' for Active; 'I' for Inactive)
REMARK    1  A    between atoms: C_1  and  C_2
REMARK    2  A    between atoms: C_5  and  O_8
REMARK    3  A    between atoms: O_8  and  C_9
REMARK    4  A    between atoms: C_9  and  C_11
REMARK    5  A    between atoms: C_9  and  C_12
REMARK    6  A    between atoms: C_12  and  N_13
REMARK    7  A    between atoms: C_14  and  C_16
REMARK    8  A    between atoms: C_27  and  C_29
REMARK                            x       y       z     vdW  Elec       q    Type
REMARK                         _______ _______ _______ _____ _____    ______ ____
ROOT
ATOM      1  C   UNL     1      -3.947  -6.883  -0.116  0.00  0.00    +0.100 C 
ATOM      2  C   UNL     1      -3.894  -6.391  -1.580  0.00  0.00    +0.121 C 
ATOM      3  N   UNL     1      -3.929  -7.629  -2.393  0.00  0.00    -0.296 N 
ATOM      4  C   UNL     1      -4.891  -8.508  -1.686  0.00  0.00    +0.115 C 
ATOM      5  C   UNL     1      -4.606  -8.271  -0.190  0.00  0.00    -0.004 C 
ATOM      6  C   UNL     1      -5.908  -8.281   0.604  0.00  0.00    -0.010 C 
ATOM      7  C   UNL     1      -6.514  -9.686   0.565  0.00  0.00    -0.082 C 
ATOM      8  N   UNL     1      -5.563 -10.648   1.135  0.00  0.00    +0.379 N 
ATOM      9  C   UNL     1      -4.349 -10.700   0.311  0.00  0.00    -0.082 C 
ATOM     10  C   UNL     1      -3.652  -9.337   0.340  0.00  0.00    -0.010 C 
ATOM     11  C   UNL     1      -3.240  -7.897  -3.520  0.00  0.00    +0.247 C 
ATOM     12  O   UNL     1      -2.528  -7.044  -4.014  0.00  0.00    -0.270 OA
ATOM     13  H   UNL     1      -5.320 -10.363   2.072  0.00  0.00    -0.086 HD
ATOM     14  H   UNL     1      -5.988 -11.562   1.164  0.00  0.00    -0.086 HD
ENDROOT
BRANCH  11  15
ATOM     15  C   UNL     1      -3.351  -9.227  -4.156  0.00  0.00    +0.038 A 
ATOM     16  C   UNL     1      -4.558  -9.927  -4.111  0.00  0.00    +0.013 A 
ATOM     17  C   UNL     1      -4.655 -11.168  -4.706  0.00  0.00    +0.002 A 
ATOM     18  C   UNL     1      -3.559 -11.719  -5.346  0.00  0.00    +0.015 A 
ATOM     19  C   UNL     1      -2.359 -11.031  -5.394  0.00  0.00    +0.019 A 
ATOM     20  C   UNL     1      -2.251  -9.786  -4.808  0.00  0.00    +0.028 A 
ATOM     21 BR   UNL     1      -0.867 -11.795  -6.270  0.00  0.00    -0.050 Br
ENDBRANCH  11  15
BRANCH   1  23
ATOM     22  N   UNL     1      -2.370  -6.989   1.786  0.00  0.00    -0.312 N 
ATOM     23  C   UNL     1      -2.556  -6.992   0.451  0.00  0.00    +0.218 C 
ATOM     24  O   UNL     1      -1.603  -7.082  -0.293  0.00  0.00    -0.275 OA
ATOM     25  H   UNL     1      -3.133  -6.917   2.382  0.00  0.00    +0.149 HD
BRANCH  22  26
ATOM     26  C   UNL     1      -1.018  -7.095   2.338  0.00  0.00    +0.148 C 
BRANCH  26  27
ATOM     27  C   UNL     1      -1.087  -7.069   3.866  0.00  0.00    +0.187 C 
ATOM     28  C   UNL     1       0.326  -7.179   4.443  0.00  0.00    +0.053 C 
BRANCH  27  29
ATOM     29  O   UNL     1      -1.681  -5.842   4.295  0.00  0.00    -0.488 OA
BRANCH  29  34
ATOM     30  C   UNL     1      -4.151  -5.830   9.357  0.00  0.00    +0.044 C 
ATOM     31  C   UNL     1      -3.491  -5.833   8.003  0.00  0.00    -0.050 A 
ATOM     32  C   UNL     1      -2.980  -7.010   7.487  0.00  0.00    +0.007 A 
ATOM     33  C   UNL     1      -2.374  -7.015   6.245  0.00  0.00    +0.046 A 
ATOM     34  C   UNL     1      -2.278  -5.839   5.516  0.00  0.00    +0.121 A 
ATOM     35  C   UNL     1      -2.792  -4.660   6.036  0.00  0.00    +0.046 A 
ATOM     36  C   UNL     1      -3.401  -4.660   7.275  0.00  0.00    +0.007 A 
ENDBRANCH  29  34
ENDBRANCH  27  29
ENDBRANCH  26  27
ENDBRANCH  22  26
ENDBRANCH   1  23
TORSDOF 6
