REMARK  Name = ZINC44863430
REMARK  6 active torsions:
REMARK  status: ('A' for Active; 'I' for Inactive)
REMARK    1  A    between atoms: C_1  and  C_2
REMARK    2  A    between atoms: C_2  and  C_3
REMARK    3  A    between atoms: C_3  and  C_5
REMARK    4  A    between atoms: C_3  and  C_9
REMARK    5  A    between atoms: N_6  and  O_7
REMARK    6  A    between atoms: N_11  and  C_12
REMARK                            x       y       z     vdW  Elec       q    Type
REMARK                         _______ _______ _______ _____ _____    ______ ____
ROOT
ATOM      1  C   UNL     1       2.116  -0.213  -0.591  0.00  0.00    +0.227 C 
ATOM      2  O   UNL     1       2.855  -1.080  -0.173  0.00  0.00    -0.275 OA
ATOM      3  N   UNL     1       2.620   0.980  -0.963  0.00  0.00    -0.285 N 
ATOM      4  H   UNL     1       2.043   1.645  -1.370  0.00  0.00    +0.155 HD
ENDROOT
BRANCH   3   5
ATOM      5  C   UNL     1       3.978   1.261  -0.760  0.00  0.00    +0.037 A 
ATOM      6  C   UNL     1       4.912   0.235  -0.802  0.00  0.00    +0.027 A 
ATOM      7  C   UNL     1       6.252   0.511  -0.603  0.00  0.00    +0.051 A 
ATOM      8  C   UNL     1       6.666   1.811  -0.361  0.00  0.00    +0.173 A 
ATOM      9  C   UNL     1       5.730   2.842  -0.318  0.00  0.00    +0.174 A 
ATOM     10  C   UNL     1       4.388   2.565  -0.523  0.00  0.00    +0.073 A 
ATOM     11  O   UNL     1       6.383   4.013  -0.065  0.00  0.00    -0.395 OA
ATOM     12  C   UNL     1       7.672   3.632   0.451  0.00  0.00    +0.589 C 
ATOM     13  O   UNL     1       7.905   2.337  -0.135  0.00  0.00    -0.395 OA
ATOM     14  F   UNL     1       7.635   3.541   1.847  0.00  0.00    -0.125 F 
ATOM     15  F   UNL     1       8.654   4.541   0.042  0.00  0.00    -0.125 F 
ENDBRANCH   3   5
BRANCH   1  16
ATOM     16  C   UNL     1       0.635  -0.472  -0.696  0.00  0.00    +0.141 C 
BRANCH  16  17
ATOM     17  C   UNL     1       0.295  -0.879  -2.107  0.00  0.00    +0.144 C 
ATOM     18  N   UNL     1       0.223  -2.131  -2.418  0.00  0.00    -0.076 NA
ATOM     19  N   UNL     1       0.061   0.083  -3.064  0.00  0.00    -0.343 N 
ATOM     20  H   UNL     1       0.115   1.023  -2.830  0.00  0.00    +0.144 HD
ATOM     21  H   UNL     1      -0.158  -0.179  -3.972  0.00  0.00    +0.144 HD
BRANCH  18  22
ATOM     22  O   UNL     1      -0.097  -2.514  -3.743  0.00  0.00    -0.408 OA
ATOM     23  H   UNL     1      -0.128  -3.471  -3.880  0.00  0.00    +0.328 HD
ENDBRANCH  18  22
ENDBRANCH  16  17
BRANCH  16  25
ATOM     24  C   UNL     1      -1.281  -1.719   0.312  0.00  0.00    +0.005 C 
ATOM     25  C   UNL     1       0.244  -1.594   0.267  0.00  0.00    +0.017 C 
ENDBRANCH  16  25
ENDBRANCH   1  16
TORSDOF 5
