REMARK  Name = ZINC14549712
REMARK  5 active torsions:
REMARK  status: ('A' for Active; 'I' for Inactive)
REMARK    1  A    between atoms: C_1  and  N_2
REMARK    2  A    between atoms: N_2  and  C_3
REMARK    3  A    between atoms: N_2  and  S_9
REMARK    4  A    between atoms: S_9  and  C_12
REMARK    5  A    between atoms: C_25  and  C_28
REMARK                            x       y       z     vdW  Elec       q    Type
REMARK                         _______ _______ _______ _____ _____    ______ ____
ROOT
ATOM      1  C   UNL     1       1.682  -1.059  -1.905  0.00  0.00    +0.106 A 
ATOM      2  C   UNL     1       2.323  -0.108  -2.678  0.00  0.00    +0.030 A 
ATOM      3  C   UNL     1       3.638  -0.297  -3.048  0.00  0.00    +0.025 A 
ATOM      4  C   UNL     1       4.320  -1.442  -2.644  0.00  0.00    +0.031 A 
ATOM      5  C   UNL     1       3.683  -2.389  -1.863  0.00  0.00    -0.018 A 
ATOM      6  C   UNL     1       2.359  -2.190  -1.496  0.00  0.00    +0.034 A 
ATOM      7  C   UNL     1       4.381  -3.625  -1.369  0.00  0.00    +0.049 C 
ATOM      8  C   UNL     1       4.158  -3.717   0.132  0.00  0.00    -0.023 C 
ATOM      9  C   UNL     1       5.220  -3.318   0.781  0.00  0.00    -0.030 C 
ATOM     10  C   UNL     1       6.319  -2.909  -0.177  0.00  0.00    +0.033 C 
ATOM     11  C   UNL     1       5.897  -3.562  -1.531  0.00  0.00    +0.029 C 
ATOM     12  C   UNL     1       6.402  -2.811  -2.727  0.00  0.00    +0.105 C 
ATOM     13  N   UNL     1       5.640  -1.618  -3.044  0.00  0.00    -0.336 N 
ATOM     14  H   UNL     1       6.061  -0.925  -3.575  0.00  0.00    +0.147 HD
ENDROOT
BRANCH  12  15
ATOM     15  C   UNL     1       7.822  -2.385  -2.459  0.00  0.00    -0.027 A 
ATOM     16  C   UNL     1       8.073  -1.274  -1.675  0.00  0.00    +0.008 A 
ATOM     17  C   UNL     1       9.376  -0.883  -1.429  0.00  0.00    +0.038 A 
ATOM     18  C   UNL     1      10.428  -1.603  -1.966  0.00  0.00    +0.123 A 
ATOM     19  C   UNL     1      10.175  -2.716  -2.751  0.00  0.00    +0.038 A 
ATOM     20  C   UNL     1       8.872  -3.108  -2.992  0.00  0.00    +0.008 A 
ATOM     21  F   UNL     1      11.702  -1.221  -1.726  0.00  0.00    -0.205 F 
ENDBRANCH  12  15
BRANCH   1  22
ATOM     22  S   UNL     1      -0.000  -0.824  -1.437  0.00  0.00    +0.061 S 
ATOM     23  O   UNL     1      -0.531  -2.115  -1.167  0.00  0.00    -0.153 OA
ATOM     24  O   UNL     1      -0.572   0.049  -2.401  0.00  0.00    -0.153 OA
BRANCH  22  26
ATOM     25  C   UNL     1      -0.018   1.461   0.010  0.00  0.00    +0.132 C 
ATOM     26  N   UNL     1       0.002  -0.004   0.002  0.00  0.00    -0.177 NA
BRANCH  26  27
ATOM     27  C   UNL     1       0.024  -0.743   1.267  0.00  0.00    +0.080 C 
ATOM     28  C   UNL     1      -1.222  -0.395   2.083  0.00  0.00    +0.020 C 
ATOM     29  C   UNL     1      -1.199  -1.167   3.404  0.00  0.00    +0.002 C 
ATOM     30  C   UNL     1       0.052  -0.785   4.196  0.00  0.00    +0.000 C 
ATOM     31  C   UNL     1       1.299  -1.133   3.380  0.00  0.00    +0.002 C 
ATOM     32  C   UNL     1       1.276  -0.361   2.059  0.00  0.00    +0.020 C 
ENDBRANCH  26  27
ENDBRANCH  22  26
ENDBRANCH   1  22
TORSDOF 4
