REMARK  Name = ZINC35702562
REMARK  8 active torsions:
REMARK  status: ('A' for Active; 'I' for Inactive)
REMARK    1  A    between atoms: C_1  and  C_2
REMARK    2  A    between atoms: C_2  and  C_3
REMARK    3  A    between atoms: C_3  and  C_5
REMARK    4  A    between atoms: C_3  and  S_17
REMARK    5  A    between atoms: S_17  and  C_18
REMARK    6  A    between atoms: C_24  and  C_37
REMARK    7  A    between atoms: N_28  and  C_29
REMARK    8  A    between atoms: C_29  and  C_30
REMARK                            x       y       z     vdW  Elec       q    Type
REMARK                         _______ _______ _______ _____ _____    ______ ____
ROOT
ATOM      1  C   UNL     1       2.119   1.882  -1.111  0.00  0.00    +0.212 A 
ATOM      2  N   UNL     1       3.200   2.644  -1.011  0.00  0.00    -0.201 NA
ATOM      3  C   UNL     1       3.059   3.962  -0.905  0.00  0.00    +0.165 A 
ATOM      4  C   UNL     1       1.754   4.498  -0.905  0.00  0.00    +0.138 A 
ATOM      5  C   UNL     1       1.907   5.958  -0.777  0.00  0.00    +0.029 A 
ATOM      6  C   UNL     1       1.004   7.016  -0.719  0.00  0.00    +0.015 A 
ATOM      7  C   UNL     1       1.469   8.308  -0.595  0.00  0.00    -0.050 A 
ATOM      8  C   UNL     1       2.831   8.556  -0.528  0.00  0.00    +0.005 A 
ATOM      9  C   UNL     1       3.736   7.517  -0.585  0.00  0.00    +0.027 A 
ATOM     10  C   UNL     1       3.286   6.207  -0.710  0.00  0.00    +0.053 A 
ATOM     11  N   UNL     1       3.954   4.996  -0.789  0.00  0.00    -0.319 N 
ATOM     12  C   UNL     1       0.493   9.455  -0.532  0.00  0.00    +0.044 C 
ATOM     13  N   UNL     1       0.715   3.683  -1.008  0.00  0.00    -0.143 NA
ATOM     14  N   UNL     1       0.899   2.411  -1.112  0.00  0.00    -0.122 NA
ENDROOT
BRANCH   1  15
ATOM     15  S   UNL     1       2.303   0.135  -1.250  0.00  0.00    -0.072 S 
BRANCH  15  16
ATOM     16  C   UNL     1       0.598  -0.483  -1.297  0.00  0.00    +0.140 C 
BRANCH  16  17
ATOM     17  C   UNL     1      -0.058  -0.052  -2.584  0.00  0.00    +0.229 C 
ATOM     18  O   UNL     1       0.622   0.189  -3.559  0.00  0.00    -0.274 OA
ATOM     19  N   UNL     1      -1.399   0.065  -2.651  0.00  0.00    -0.296 N 
ATOM     20  C   UNL     1      -2.070   0.478  -3.894  0.00  0.00    +0.113 C 
ATOM     21  C   UNL     1      -2.936  -0.688  -4.370  0.00  0.00    +0.054 C 
ATOM     22  C   UNL     1      -3.756  -1.244  -3.235  0.00  0.00    -0.041 A 
ATOM     23  C   UNL     1      -4.881  -1.993  -3.560  0.00  0.00    +0.004 A 
ATOM     24  C   UNL     1      -5.670  -2.538  -2.570  0.00  0.00    +0.000 A 
ATOM     25  C   UNL     1      -5.341  -2.342  -1.241  0.00  0.00    +0.000 A 
ATOM     26  C   UNL     1      -4.227  -1.596  -0.916  0.00  0.00    +0.005 A 
ATOM     27  C   UNL     1      -3.435  -1.041  -1.912  0.00  0.00    -0.027 A 
ATOM     28  C   UNL     1      -2.248  -0.220  -1.489  0.00  0.00    +0.143 C 
ENDBRANCH  16  17
BRANCH  16  30
ATOM     29  C   UNL     1       1.144  -2.447   0.148  0.00  0.00    +0.005 C 
ATOM     30  C   UNL     1       0.608  -2.011  -1.217  0.00  0.00    +0.020 C 
ENDBRANCH  16  30
ENDBRANCH  15  16
ENDBRANCH   1  15
BRANCH  11  31
ATOM     31  C   UNL     1       5.411   4.840  -0.752  0.00  0.00    +0.162 C 
BRANCH  31  32
ATOM     32  C   UNL     1       5.958   4.906  -2.155  0.00  0.00    +0.007 A 
ATOM     33  C   UNL     1       6.177   3.741  -2.867  0.00  0.00    +0.008 A 
ATOM     34  C   UNL     1       6.679   3.801  -4.153  0.00  0.00    +0.000 A 
ATOM     35  C   UNL     1       6.963   5.025  -4.729  0.00  0.00    +0.003 A 
ATOM     36  C   UNL     1       6.745   6.191  -4.020  0.00  0.00    +0.039 A 
ATOM     37  C   UNL     1       6.237   6.133  -2.733  0.00  0.00    +0.128 A 
ATOM     38  F   UNL     1       6.018   7.272  -2.040  0.00  0.00    -0.205 F 
ENDBRANCH  31  32
ENDBRANCH  11  31
TORSDOF 6
