REMARK  Name = ZINC00930805
REMARK  9 active torsions:
REMARK  status: ('A' for Active; 'I' for Inactive)
REMARK    1  A    between atoms: C_1  and  O_2
REMARK    2  A    between atoms: O_2  and  C_3
REMARK    3  A    between atoms: C_6  and  C_9
REMARK    4  A    between atoms: C_9  and  C_11
REMARK    5  A    between atoms: C_9  and  N_20
REMARK    6  A    between atoms: N_13  and  C_14
REMARK    7  A    between atoms: N_20  and  C_21
REMARK    8  A    between atoms: C_21  and  C_22
REMARK    9  A    between atoms: C_27  and  C_29
REMARK                            x       y       z     vdW  Elec       q    Type
REMARK                         _______ _______ _______ _____ _____    ______ ____
ROOT
ATOM      1  C   UNL     1      -1.141   6.035   2.090  0.00  0.00    +0.193 C 
ENDROOT
BRANCH   1   5
ATOM      2  C   UNL     1       3.100   5.570   1.836  0.00  0.00    +0.120 A 
ATOM      3  C   UNL     1       2.506   5.870   3.053  0.00  0.00    +0.046 A 
ATOM      4  C   UNL     1       1.135   6.020   3.132  0.00  0.00    +0.009 A 
ATOM      5  C   UNL     1       0.355   5.871   2.000  0.00  0.00    -0.018 A 
ATOM      6  C   UNL     1       0.944   5.566   0.787  0.00  0.00    +0.009 A 
ATOM      7  C   UNL     1       2.315   5.420   0.701  0.00  0.00    +0.046 A 
BRANCH   2   9
ATOM      8  C   UNL     1       4.991   5.113   0.470  0.00  0.00    +0.277 C 
ATOM      9  O   UNL     1       4.448   5.422   1.755  0.00  0.00    -0.495 OA
ENDBRANCH   2   9
ENDBRANCH   1   5
BRANCH   1  10
ATOM     10  C   UNL     1      -1.539   7.353   1.476  0.00  0.00    +0.238 C 
ATOM     11  O   UNL     1      -2.480   7.406   0.713  0.00  0.00    -0.273 OA
ATOM     12  N   UNL     1      -0.849   8.471   1.776  0.00  0.00    -0.311 N 
ATOM     13  H   UNL     1      -0.097   8.428   2.386  0.00  0.00    +0.149 HD
BRANCH  12  14
ATOM     14  C   UNL     1      -1.236   9.752   1.180  0.00  0.00    +0.073 C 
ATOM     15  C   UNL     1      -0.582   9.893  -0.196  0.00  0.00    +0.022 C 
ATOM     16  C   UNL     1      -0.986  11.231  -0.818  0.00  0.00    +0.002 C 
ATOM     17  C   UNL     1      -0.524  12.375   0.086  0.00  0.00    +0.000 C 
ATOM     18  C   UNL     1      -1.178  12.234   1.462  0.00  0.00    +0.002 C 
ATOM     19  C   UNL     1      -0.774  10.896   2.084  0.00  0.00    +0.022 C 
ENDBRANCH  12  14
ENDBRANCH   1  10
BRANCH   1  20
ATOM     20  N   UNL     1      -1.796   4.942   1.367  0.00  0.00    -0.275 N 
ATOM     21  C   UNL     1      -1.903   3.726   1.938  0.00  0.00    +0.261 C 
ATOM     22  O   UNL     1      -1.411   3.521   3.027  0.00  0.00    -0.271 OA
BRANCH  21  23
ATOM     23  C   UNL     1      -2.635   2.620   1.222  0.00  0.00    +0.296 C 
ATOM     24  C   UNL     1      -1.719   1.993   0.163  0.00  0.00    +0.283 C 
ATOM     25  O   UNL     1      -2.439   0.940  -0.487  0.00  0.00    -0.484 OA
ATOM     26  C   UNL     1      -3.117   0.076   0.317  0.00  0.00    +0.162 A 
ATOM     27  C   UNL     1      -3.528  -1.147  -0.191  0.00  0.00    +0.049 A 
ATOM     28  C   UNL     1      -4.220  -2.034   0.612  0.00  0.00    +0.004 A 
ATOM     29  C   UNL     1      -4.505  -1.704   1.924  0.00  0.00    +0.004 A 
ATOM     30  C   UNL     1      -4.097  -0.487   2.437  0.00  0.00    +0.049 A 
ATOM     31  C   UNL     1      -3.401   0.407   1.637  0.00  0.00    +0.163 A 
ATOM     32  O   UNL     1      -3.003   1.600   2.157  0.00  0.00    -0.473 OA
ENDBRANCH  21  23
BRANCH  20  33
ATOM     33  C   UNL     1      -2.334   5.171   0.024  0.00  0.00    +0.183 C 
BRANCH  33  34
ATOM     34  C   UNL     1      -3.840   5.190   0.083  0.00  0.00    +0.122 A 
ATOM     35  C   UNL     1      -4.601   6.246   0.422  0.00  0.00    +0.046 A 
ATOM     36  C   UNL     1      -5.948   5.821   0.347  0.00  0.00    +0.041 A 
ATOM     37  C   UNL     1      -5.929   4.534  -0.043  0.00  0.00    +0.195 A 
ATOM     38  O   UNL     1      -4.650   4.157  -0.201  0.00  0.00    -0.466 OA
ENDBRANCH  33  34
ENDBRANCH  20  33
ENDBRANCH   1  20
TORSDOF 8
