REMARK  Name = ZINC12925416
REMARK  13 active torsions:
REMARK  status: ('A' for Active; 'I' for Inactive)
REMARK    1  A    between atoms: C_1  and  C_2
REMARK    2  A    between atoms: C_2  and  O_3
REMARK    3  A    between atoms: O_3  and  C_4
REMARK    4  A    between atoms: C_4  and  C_6
REMARK    5  A    between atoms: C_7  and  C_19
REMARK    6  A    between atoms: C_12  and  C_14
REMARK    7  A    between atoms: C_19  and  O_20
REMARK    8  A    between atoms: O_20  and  C_21
REMARK    9  A    between atoms: C_21  and  C_23
REMARK   10  A    between atoms: C_23  and  C_24
REMARK   11  A    between atoms: C_24  and  C_25
REMARK   12  A    between atoms: C_24  and  C_31
REMARK   13  A    between atoms: C_24  and  O_35
REMARK                            x       y       z     vdW  Elec       q    Type
REMARK                         _______ _______ _______ _____ _____    ______ ____
ROOT
ATOM      1  C   UNL     1       3.333   0.824   1.177  0.00  0.00    +0.082 C 
ATOM      2  C   UNL     1       4.335   1.702   1.391  0.00  0.00    +0.061 C 
ATOM      3  N   UNL     1       4.780   2.520   0.393  0.00  0.00    -0.269 N 
ATOM      4  C   UNL     1       4.275   2.520  -0.847  0.00  0.00    +0.304 C 
ATOM      5  O   UNL     1       4.738   3.287  -1.670  0.00  0.00    -0.252 OA
ATOM      6  N   UNL     1       3.271   1.699  -1.213  0.00  0.00    -0.288 N 
ATOM      7  C   UNL     1       2.719   0.776  -0.208  0.00  0.00    +0.150 C 
ATOM      8  H   UNL     1       5.502   3.136   0.593  0.00  0.00    +0.156 HD
ATOM      9  H   UNL     1       2.921   1.716  -2.118  0.00  0.00    +0.151 HD
ENDROOT
BRANCH   7  10
ATOM     10  C   UNL     1       1.246   1.062  -0.073  0.00  0.00    +0.015 A 
ATOM     11  C   UNL     1       0.211   0.190   0.005  0.00  0.00    +0.013 A 
ATOM     12  C   UNL     1      -1.075   0.684   0.120  0.00  0.00    +0.008 A 
ATOM     13  C   UNL     1      -1.262   2.026   0.161  0.00  0.00    +0.045 A 
ATOM     14  S   UNL     1       0.410   2.636   0.023  0.00  0.00    -0.099 S 
ENDBRANCH   7  10
BRANCH   1  15
ATOM     15  C   UNL     1       2.870  -0.024   2.211  0.00  0.00    +0.339 C 
ATOM     16  O   UNL     1       3.304   0.103   3.341  0.00  0.00    -0.245 OA
BRANCH  15  17
ATOM     17  O   UNL     1       1.948  -0.972   1.945  0.00  0.00    -0.462 OA
BRANCH  17  19
ATOM     18  C   UNL     1       0.485  -2.800   2.546  0.00  0.00    +0.048 C 
ATOM     19  C   UNL     1       1.526  -1.791   3.037  0.00  0.00    +0.229 C 
ENDBRANCH  17  19
ENDBRANCH  15  17
ENDBRANCH   1  15
BRANCH   2  20
ATOM     20  C   UNL     1       4.973   1.781   2.754  0.00  0.00    +0.283 C 
BRANCH  20  21
ATOM     21  O   UNL     1       6.087   2.712   2.714  0.00  0.00    -0.459 OA
BRANCH  21  22
ATOM     22  C   UNL     1       6.767   2.898   3.856  0.00  0.00    +0.311 C 
ATOM     23  O   UNL     1       6.442   2.303   4.857  0.00  0.00    -0.251 OA
BRANCH  22  24
ATOM     24  C   UNL     1       7.936   3.849   3.891  0.00  0.00    +0.169 C 
BRANCH  24  25
ATOM     25  C   UNL     1       8.579   3.816   5.279  0.00  0.00    +0.196 C 
BRANCH  25  26
ATOM     26  C   UNL     1       8.991   2.404   5.608  0.00  0.00    -0.007 A 
ATOM     27  C   UNL     1       9.349   1.534   4.595  0.00  0.00    +0.007 A 
ATOM     28  C   UNL     1       9.732   0.241   4.898  0.00  0.00    +0.000 A 
ATOM     29  C   UNL     1       9.746  -0.186   6.212  0.00  0.00    +0.000 A 
ATOM     30  C   UNL     1       9.383   0.682   7.225  0.00  0.00    +0.000 A 
ATOM     31  C   UNL     1       9.005   1.978   6.923  0.00  0.00    +0.007 A 
ENDBRANCH  25  26
BRANCH  25  32
ATOM     32  C   UNL     1       9.811   4.723   5.291  0.00  0.00    +0.423 C 
ATOM     33  F   UNL     1       9.446   6.011   4.884  0.00  0.00    -0.167 F 
ATOM     34  F   UNL     1      10.339   4.775   6.586  0.00  0.00    -0.167 F 
ATOM     35  F   UNL     1      10.775   4.213   4.415  0.00  0.00    -0.167 F 
ENDBRANCH  25  32
BRANCH  25  36
ATOM     36  O   UNL     1       7.638   4.277   6.251  0.00  0.00    -0.375 OA
ATOM     37  H   UNL     1       6.830   3.748   6.298  0.00  0.00    +0.211 HD
ENDBRANCH  25  36
ENDBRANCH  24  25
ENDBRANCH  22  24
ENDBRANCH  21  22
ENDBRANCH  20  21
ENDBRANCH   2  20
TORSDOF 12
