REMARK  Name = ZINC14625243
REMARK  11 active torsions:
REMARK  status: ('A' for Active; 'I' for Inactive)
REMARK    1  A    between atoms: C_1  and  C_2
REMARK    2  A    between atoms: C_2  and  C_3
REMARK    3  A    between atoms: C_3  and  C_4
REMARK    4  A    between atoms: C_4  and  N_5
REMARK    5  A    between atoms: C_6  and  N_32
REMARK    6  A    between atoms: C_7  and  N_14
REMARK    7  A    between atoms: N_14  and  C_15
REMARK    8  A    between atoms: C_15  and  C_16
REMARK    9  A    between atoms: C_22  and  C_24
REMARK   10  A    between atoms: C_25  and  C_26
REMARK   11  A    between atoms: C_27  and  C_31
REMARK                            x       y       z     vdW  Elec       q    Type
REMARK                         _______ _______ _______ _____ _____    ______ ____
ROOT
ATOM      1  N   UNL     1       4.062  -1.037  -1.426  0.00  0.00    -0.256 N 
ATOM      2  C   UNL     1       3.592  -2.148  -2.028  0.00  0.00    +0.244 C 
ATOM      3  O   UNL     1       3.832  -2.351  -3.205  0.00  0.00    -0.270 OA
ENDROOT
BRANCH   1   6
ATOM      4  N   UNL     1       7.058   0.851  -2.406  0.00  0.00    -0.280 N 
ATOM      5  C   UNL     1       6.235  -0.000  -1.706  0.00  0.00    +0.127 A 
ATOM      6  C   UNL     1       4.930  -0.171  -2.123  0.00  0.00    +0.140 A 
ATOM      7  C   UNL     1       4.483   0.529  -3.259  0.00  0.00    +0.277 A 
ATOM      8  O   UNL     1       3.337   0.392  -3.653  0.00  0.00    -0.266 OA
ATOM      9  N   UNL     1       5.329   1.355  -3.906  0.00  0.00    -0.273 N 
ATOM     10  H   UNL     1       5.009   1.860  -4.708  0.00  0.00    +0.173 HD
ATOM     11  C   UNL     1       6.596   1.509  -3.485  0.00  0.00    +0.331 A 
ATOM     12  O   UNL     1       7.340   2.258  -4.090  0.00  0.00    -0.246 OA
BRANCH   5  13
ATOM     13  N   UNL     1       6.706  -0.672  -0.603  0.00  0.00    -0.343 N 
ATOM     14  H   UNL     1       6.145  -1.325  -0.157  0.00  0.00    +0.144 HD
ATOM     15  H   UNL     1       7.599  -0.493  -0.271  0.00  0.00    +0.144 HD
ENDBRANCH   5  13
BRANCH   4  16
ATOM     16  C   UNL     1       8.444   1.042  -1.974  0.00  0.00    +0.128 C 
BRANCH  16  17
ATOM     17  C   UNL     1       9.341   0.015  -2.669  0.00  0.00    +0.021 C 
BRANCH  17  19
ATOM     18  C   UNL     1      11.685  -0.814  -2.912  0.00  0.00    +0.004 C 
ATOM     19  C   UNL     1      10.789   0.214  -2.218  0.00  0.00    -0.002 C 
ENDBRANCH  17  19
ENDBRANCH  16  17
ENDBRANCH   4  16
ENDBRANCH   1   6
BRANCH   2  20
ATOM     20  C   UNL     1       2.819  -3.078  -1.293  0.00  0.00    +0.069 C 
ATOM     21  C   UNL     1       2.346  -4.195  -1.899  0.00  0.00    +0.020 C 
BRANCH  21  22
ATOM     22  C   UNL     1       1.573  -5.126  -1.163  0.00  0.00    +0.015 A 
ATOM     23  C   UNL     1       1.000  -6.318  -1.587  0.00  0.00    -0.036 A 
ATOM     24  C   UNL     1       0.292  -7.036  -0.656  0.00  0.00    +0.011 A 
ATOM     25  C   UNL     1       0.187  -6.558   0.612  0.00  0.00    +0.046 A 
ATOM     26  S   UNL     1       1.086  -5.077   0.553  0.00  0.00    -0.097 S 
ATOM     27  C   UNL     1       1.148  -6.801  -3.007  0.00  0.00    +0.045 C 
ENDBRANCH  21  22
ENDBRANCH   2  20
BRANCH   1  28
ATOM     28  C   UNL     1       3.671  -0.730  -0.048  0.00  0.00    +0.149 C 
BRANCH  28  29
ATOM     29  C   UNL     1       2.366   0.024  -0.052  0.00  0.00    -0.030 A 
ATOM     30  C   UNL     1       1.169  -0.668  -0.090  0.00  0.00    +0.005 A 
ATOM     31  C   UNL     1      -0.028   0.023  -0.094  0.00  0.00    +0.000 A 
ATOM     32  C   UNL     1      -0.029   1.405  -0.060  0.00  0.00    +0.000 A 
ATOM     33  C   UNL     1       1.168   2.096  -0.021  0.00  0.00    +0.000 A 
ATOM     34  C   UNL     1       2.365   1.405  -0.018  0.00  0.00    +0.005 A 
ENDBRANCH  28  29
ENDBRANCH   1  28
TORSDOF 9
