REMARK  Name = ZINC43210523
REMARK  7 active torsions:
REMARK  status: ('A' for Active; 'I' for Inactive)
REMARK    1  A    between atoms: C_1  and  C_2
REMARK    2  A    between atoms: C_2  and  C_3
REMARK    3  A    between atoms: C_6  and  N_9
REMARK    4  A    between atoms: C_14  and  C_36
REMARK    5  A    between atoms: C_17  and  C_22
REMARK    6  A    between atoms: C_17  and  C_33
REMARK    7  A    between atoms: C_22  and  C_23
REMARK                            x       y       z     vdW  Elec       q    Type
REMARK                         _______ _______ _______ _____ _____    ______ ____
ROOT
ATOM      1  N   UNL     1       2.659  -1.835  -4.668  0.00  0.00    -0.210 N 
ATOM      2  C   UNL     1       2.021  -2.080  -5.859  0.00  0.00    +0.229 C 
ATOM      3  O   UNL     1       0.897  -1.755  -6.177  0.00  0.00    -0.275 OA
ATOM      4  C   UNL     1       2.982  -2.811  -6.646  0.00  0.00    +0.079 C 
ATOM      5  C   UNL     1       3.282  -3.148  -8.049  0.00  0.00    -0.008 C 
ATOM      6  N   UNL     1       4.652  -3.760  -7.940  0.00  0.00    +0.397 N 
ATOM      7  C   UNL     1       5.280  -3.252  -6.684  0.00  0.00    +0.052 C 
ATOM      8  C   UNL     1       4.340  -2.141  -6.193  0.00  0.00    +0.087 C 
ATOM      9  C   UNL     1       4.002  -2.073  -4.729  0.00  0.00    +0.229 C 
ATOM     10  O   UNL     1       4.766  -2.205  -3.797  0.00  0.00    -0.275 OA
ATOM     11  H   UNL     1       4.574  -4.765  -7.901  0.00  0.00    -0.083 HD
ATOM     12  H   UNL     1       5.211  -3.490  -8.735  0.00  0.00    -0.083 HD
ENDROOT
BRANCH   1  16
ATOM     13  C   UNL     1       0.707  -0.490  -1.238  0.00  0.00    -0.048 A 
ATOM     14  C   UNL     1      -0.012  -0.718  -2.397  0.00  0.00    +0.005 A 
ATOM     15  C   UNL     1       0.632  -1.163  -3.534  0.00  0.00    +0.024 A 
ATOM     16  C   UNL     1       2.002  -1.382  -3.514  0.00  0.00    +0.044 A 
ATOM     17  C   UNL     1       2.722  -1.152  -2.350  0.00  0.00    +0.024 A 
ATOM     18  C   UNL     1       2.074  -0.702  -1.216  0.00  0.00    +0.005 A 
BRANCH  13  20
ATOM     19  C   UNL     1      -0.019   1.526   0.010  0.00  0.00    +0.009 C 
ATOM     20  C   UNL     1       0.002  -0.004   0.002  0.00  0.00    +0.032 C 
ENDBRANCH  13  20
ENDBRANCH   1  16
BRANCH   5  21
ATOM     21  C   UNL     1       2.288  -4.144  -8.588  0.00  0.00    +0.028 A 
ATOM     22  C   UNL     1       1.589  -3.854  -9.744  0.00  0.00    +0.021 A 
ATOM     23  C   UNL     1       0.677  -4.778 -10.231  0.00  0.00    +0.003 A 
ATOM     24  C   UNL     1       0.502  -5.964  -9.534  0.00  0.00    +0.020 A 
ATOM     25  C   UNL     1       1.237  -6.184  -8.384  0.00  0.00    +0.111 A 
ATOM     26  N   UNL     1       2.100  -5.285  -7.953  0.00  0.00    -0.262 NA
ENDBRANCH   5  21
BRANCH   7  27
ATOM     27  C   UNL     1       6.641  -2.675  -6.978  0.00  0.00    +0.347 C 
ATOM     28  O   UNL     1       7.081  -2.700  -8.115  0.00  0.00    -0.248 OA
ATOM     29  O   UNL     1       7.302  -2.184  -6.079  0.00  0.00    -0.248 OA
ENDBRANCH   7  27
BRANCH   7  30
ATOM     30  C   UNL     1       5.392  -4.378  -5.654  0.00  0.00    +0.037 C 
BRANCH  30  31
ATOM     31  C   UNL     1       6.271  -5.473  -6.202  0.00  0.00    -0.023 A 
ATOM     32  C   UNL     1       5.862  -6.578  -6.846  0.00  0.00    +0.087 A 
ATOM     33  N   UNL     1       6.943  -7.342  -7.194  0.00  0.00    -0.360 N 
ATOM     34  H   UNL     1       6.898  -8.187  -7.669  0.00  0.00    +0.165 HD
ATOM     35  C   UNL     1       8.103  -6.732  -6.772  0.00  0.00    +0.047 A 
ATOM     36  C   UNL     1       7.733  -5.532  -6.137  0.00  0.00    +0.003 A 
ATOM     37  C   UNL     1       8.715  -4.693  -5.607  0.00  0.00    +0.010 A 
ATOM     38  C   UNL     1      10.033  -5.040  -5.712  0.00  0.00    +0.001 A 
ATOM     39  C   UNL     1      10.403  -6.221  -6.341  0.00  0.00    +0.002 A 
ATOM     40  C   UNL     1       9.449  -7.068  -6.862  0.00  0.00    +0.026 A 
ENDBRANCH  30  31
ENDBRANCH   7  30
TORSDOF 6
