REMARK  Name = ZINC39927016
REMARK  3 active torsions:
REMARK  status: ('A' for Active; 'I' for Inactive)
REMARK    1  A    between atoms: C_7  and  C_10
REMARK    2  A    between atoms: N_16  and  C_17
REMARK    3  A    between atoms: C_21  and  C_23
REMARK                            x       y       z     vdW  Elec       q    Type
REMARK                         _______ _______ _______ _____ _____    ______ ____
ROOT
ATOM      1  C   UNL     1       0.682  -3.125  -0.021  0.00  0.00    +0.026 C 
ATOM      2  C   UNL     1       1.169  -4.414  -0.137  0.00  0.00    +0.078 C 
ATOM      3  C   UNL     1       2.574  -4.891  -0.167  0.00  0.00    +0.256 C 
ATOM      4  O   UNL     1       3.511  -4.121  -0.086  0.00  0.00    -0.269 OA
ATOM      5  N   UNL     1       2.756  -6.196  -0.287  0.00  0.00    -0.260 N 
ATOM      6  C   UNL     1       1.681  -7.052  -0.378  0.00  0.00    +0.166 C 
ATOM      7  N   UNL     1       1.687  -8.359  -0.501  0.00  0.00    -0.226 NA
ATOM      8  S   UNL     1       0.275  -5.955  -0.281  0.00  0.00    -0.049 S 
ATOM      9  H   UNL     1       3.658  -6.553  -0.312  0.00  0.00    +0.157 HD
ENDROOT
BRANCH   1  16
ATOM     10  C   UNL     1      -0.055   1.345  -0.155  0.00  0.00    +0.001 A 
ATOM     11  C   UNL     1       1.116   2.101  -0.265  0.00  0.00    +0.002 A 
ATOM     12  C   UNL     1       2.338   1.520  -0.323  0.00  0.00    +0.026 A 
ATOM     13  C   UNL     1       2.451   0.105  -0.273  0.00  0.00    +0.043 A 
ATOM     14  N   UNL     1       3.501  -0.687  -0.311  0.00  0.00    -0.380 N 
ATOM     15  C   UNL     1       3.061  -2.083  -0.225  0.00  0.00    +0.149 C 
ATOM     16  C   UNL     1       1.552  -2.040  -0.124  0.00  0.00    -0.018 C 
ATOM     17  C   UNL     1       1.213  -0.686  -0.157  0.00  0.00    +0.003 A 
ATOM     18  C   UNL     1      -0.025  -0.011  -0.101  0.00  0.00    +0.010 A 
ATOM     19  H   UNL     1       4.423  -0.393  -0.386  0.00  0.00    +0.160 HD
ENDBRANCH   1  16
BRANCH   7  20
ATOM     20  C   UNL     1       0.507  -9.044  -0.577  0.00  0.00    +0.067 A 
ATOM     21  C   UNL     1      -0.541  -8.737   0.296  0.00  0.00    +0.029 A 
ATOM     22  C   UNL     1      -1.729  -9.432   0.214  0.00  0.00    +0.022 A 
ATOM     23  C   UNL     1      -1.885 -10.434  -0.730  0.00  0.00    +0.053 A 
ATOM     24  C   UNL     1      -0.851 -10.743  -1.598  0.00  0.00    +0.075 A 
ATOM     25  C   UNL     1       0.340 -10.051  -1.531  0.00  0.00    +0.041 A 
ATOM     26 CL   UNL     1      -3.384 -11.305  -0.826  0.00  0.00    -0.083 Cl
BRANCH  24  27
ATOM     27  C   UNL     1      -1.030 -11.834  -2.622  0.00  0.00    +0.419 C 
ATOM     28  F   UNL     1       0.141 -11.963  -3.376  0.00  0.00    -0.166 F 
ATOM     29  F   UNL     1      -1.301 -13.043  -1.972  0.00  0.00    -0.166 F 
ATOM     30  F   UNL     1      -2.096 -11.510  -3.467  0.00  0.00    -0.166 F 
ENDBRANCH  24  27
ENDBRANCH   7  20
TORSDOF 3
