REMARK  Name = ZINC22747512
REMARK  2 active torsions:
REMARK  status: ('A' for Active; 'I' for Inactive)
REMARK    1  A    between atoms: C_1  and  C_2
REMARK    2  A    between atoms: C_5  and  C_8
REMARK                            x       y       z     vdW  Elec       q    Type
REMARK                         _______ _______ _______ _____ _____    ______ ____
ROOT
ATOM      1  C   UNL     1       0.059  -4.275  -0.021  0.00  0.00    +0.032 C 
ATOM      2  C   UNL     1      -1.174  -4.809   0.712  0.00  0.00    +0.060 C 
ATOM      3  C   UNL     1      -1.124  -6.314   0.753  0.00  0.00    +0.021 C 
ATOM      4  C   UNL     1       0.055  -6.976   0.774  0.00  0.00    +0.053 C 
ATOM      5  C   UNL     1       1.276  -6.281   0.761  0.00  0.00    +0.164 C 
ATOM      6  O   UNL     1       2.318  -6.904   0.798  0.00  0.00    -0.292 OA
ATOM      7  C   UNL     1       1.315  -4.778   0.699  0.00  0.00    +0.088 C 
ATOM      8  C   UNL     1       0.078  -8.482   0.803  0.00  0.00    +0.197 C 
ATOM      9  C   UNL     1       0.506  -9.022  -0.528  0.00  0.00    +0.015 A 
ATOM     10  C   UNL     1      -0.069  -8.927  -1.777  0.00  0.00    +0.008 A 
ATOM     11  C   UNL     1       0.596  -9.554  -2.825  0.00  0.00    +0.000 A 
ATOM     12  C   UNL     1       1.775 -10.240  -2.620  0.00  0.00    +0.002 A 
ATOM     13  C   UNL     1       2.358 -10.340  -1.367  0.00  0.00    +0.024 A 
ATOM     14  C   UNL     1       1.702  -9.714  -0.306  0.00  0.00    +0.040 A 
ATOM     15  N   UNL     1       2.052  -9.654   1.031  0.00  0.00    -0.283 N 
ATOM     16  C   UNL     1       1.158  -8.952   1.757  0.00  0.00    +0.254 C 
ATOM     17  O   UNL     1       1.210  -8.736   2.950  0.00  0.00    -0.272 OA
ATOM     18  N   UNL     1      -1.209  -9.033   1.200  0.00  0.00    -0.230 NA
ATOM     19  C   UNL     1      -2.301  -8.337   1.177  0.00  0.00    +0.189 C 
ATOM     20  N   UNL     1      -2.297  -7.021   0.776  0.00  0.00    -0.290 N 
ATOM     21  N   UNL     1      -3.487  -8.925   1.562  0.00  0.00    -0.241 N 
ATOM     22  C   UNL     1      -3.504 -10.245   1.967  0.00  0.00    +0.295 A 
ATOM     23  N   UNL     1      -2.455 -11.024   2.028  0.00  0.00    -0.195 NA
ATOM     24  C   UNL     1      -2.847 -12.250   2.468  0.00  0.00    +0.111 A 
ATOM     25  C   UNL     1      -2.171 -13.445   2.719  0.00  0.00    +0.031 A 
ATOM     26  C   UNL     1      -2.870 -14.543   3.171  0.00  0.00    +0.002 A 
ATOM     27  C   UNL     1      -4.239 -14.468   3.378  0.00  0.00    +0.004 A 
ATOM     28  C   UNL     1      -4.919 -13.292   3.133  0.00  0.00    +0.048 A 
ATOM     29  C   UNL     1      -4.232 -12.178   2.678  0.00  0.00    +0.157 A 
ATOM     30  O   UNL     1      -4.601 -10.916   2.361  0.00  0.00    -0.424 OA
ATOM     31  H   UNL     1       2.846 -10.068   1.403  0.00  0.00    +0.155 HD
ATOM     32  H   UNL     1      -3.126  -6.593   0.509  0.00  0.00    +0.154 HD
ATOM     33  H   UNL     1      -4.310  -8.412   1.548  0.00  0.00    +0.159 HD
ENDROOT
BRANCH   1  38
ATOM     34  C   UNL     1      -0.018   1.503   0.010  0.00  0.00    +0.044 C 
ATOM     35  C   UNL     1       0.002  -0.004   0.002  0.00  0.00    -0.050 A 
ATOM     36  C   UNL     1       0.006  -0.689  -1.199  0.00  0.00    +0.003 A 
ATOM     37  C   UNL     1       0.025  -2.071  -1.206  0.00  0.00    +0.004 A 
ATOM     38  C   UNL     1       0.040  -2.768  -0.013  0.00  0.00    -0.043 A 
ATOM     39  C   UNL     1       0.037  -2.084   1.188  0.00  0.00    +0.004 A 
ATOM     40  C   UNL     1       0.023  -0.702   1.195  0.00  0.00    +0.003 A 
ENDBRANCH   1  38
TORSDOF 1
