REMARK  Name = ZINC03109839
REMARK  6 active torsions:
REMARK  status: ('A' for Active; 'I' for Inactive)
REMARK    1  A    between atoms: C_6  and  C_7
REMARK    2  A    between atoms: N_11  and  C_15
REMARK    3  A    between atoms: C_15  and  C_16
REMARK    4  A    between atoms: N_18  and  C_19
REMARK    5  A    between atoms: C_22  and  S_25
REMARK    6  A    between atoms: S_25  and  N_28
REMARK                            x       y       z     vdW  Elec       q    Type
REMARK                         _______ _______ _______ _____ _____    ______ ____
ROOT
ATOM      1  C   UNL     1       5.865   0.140  -0.219  0.00  0.00    +0.213 C 
ENDROOT
BRANCH   1   6
ATOM      2  C   UNL     1       8.435   4.015   1.510  0.00  0.00    +0.028 C 
ATOM      3  C   UNL     1       7.926   3.166   0.583  0.00  0.00    +0.080 C 
ATOM      4  C   UNL     1       7.067   1.977   0.765  0.00  0.00    +0.261 C 
ATOM      5  O   UNL     1       6.702   1.615   1.868  0.00  0.00    -0.269 OA
ATOM      6  N   UNL     1       6.715   1.327  -0.332  0.00  0.00    -0.219 N 
ATOM      7  C   UNL     1       7.126   1.730  -1.552  0.00  0.00    +0.286 C 
ATOM      8  O   UNL     1       6.884   1.229  -2.633  0.00  0.00    -0.262 OA
ATOM      9  S   UNL     1       8.108   3.177  -1.195  0.00  0.00    -0.026 S 
BRANCH   2  15
ATOM     10  C   UNL     1      10.076   4.940  -0.114  0.00  0.00    +0.009 A 
ATOM     11  C   UNL     1      10.979   5.912  -0.485  0.00  0.00    +0.020 A 
ATOM     12  C   UNL     1      11.233   6.984   0.355  0.00  0.00    +0.041 A 
ATOM     13  C   UNL     1      10.578   7.090   1.571  0.00  0.00    +0.020 A 
ATOM     14  C   UNL     1       9.667   6.130   1.953  0.00  0.00    +0.009 A 
ATOM     15  C   UNL     1       9.405   5.044   1.110  0.00  0.00    -0.024 A 
ATOM     16 CL   UNL     1      12.378   8.200  -0.118  0.00  0.00    -0.084 Cl
ENDBRANCH   2  15
ENDBRANCH   1   6
BRANCH   1  17
ATOM     17  C   UNL     1       4.417   0.550  -0.293  0.00  0.00    +0.235 C 
ATOM     18  O   UNL     1       4.124   1.719  -0.428  0.00  0.00    -0.274 OA
ATOM     19  N   UNL     1       3.447  -0.383  -0.210  0.00  0.00    -0.284 N 
ATOM     20  H   UNL     1       3.676  -1.305  -0.016  0.00  0.00    +0.155 HD
BRANCH  19  21
ATOM     21  C   UNL     1       2.110  -0.020  -0.405  0.00  0.00    +0.034 A 
ATOM     22  C   UNL     1       1.231  -0.905  -1.018  0.00  0.00    +0.025 A 
ATOM     23  C   UNL     1      -0.087  -0.542  -1.214  0.00  0.00    +0.030 A 
ATOM     24  C   UNL     1      -0.535   0.697  -0.792  0.00  0.00    +0.105 A 
ATOM     25  C   UNL     1       0.337   1.579  -0.182  0.00  0.00    +0.030 A 
ATOM     26  C   UNL     1       1.658   1.224   0.013  0.00  0.00    +0.025 A 
BRANCH  24  27
ATOM     27  S   UNL     1      -2.219   1.153  -1.039  0.00  0.00    +0.056 S 
ATOM     28  O   UNL     1      -2.957  -0.057  -1.138  0.00  0.00    -0.153 OA
ATOM     29  O   UNL     1      -2.515   2.150  -0.070  0.00  0.00    -0.153 OA
BRANCH  27  30
ATOM     30  N   UNL     1      -2.314   1.889  -2.520  0.00  0.00    -0.204 NA
ATOM     31  H   UNL     1      -1.517   1.992  -3.062  0.00  0.00    +0.144 HD
ATOM     32  H   UNL     1      -3.167   2.217  -2.844  0.00  0.00    +0.144 HD
ENDBRANCH  27  30
ENDBRANCH  24  27
ENDBRANCH  19  21
ENDBRANCH   1  17
TORSDOF 6
