REMARK  Name = ZINC16136719
REMARK  10 active torsions:
REMARK  status: ('A' for Active; 'I' for Inactive)
REMARK    1  A    between atoms: C_1  and  C_2
REMARK    2  A    between atoms: C_2  and  C_32
REMARK    3  A    between atoms: N_3  and  N_4
REMARK    4  A    between atoms: C_5  and  C_16
REMARK    5  A    between atoms: C_19  and  O_24
REMARK    6  A    between atoms: C_20  and  O_22
REMARK    7  A    between atoms: O_22  and  C_23
REMARK    8  A    between atoms: O_24  and  C_25
REMARK    9  A    between atoms: C_25  and  C_26
REMARK   10  A    between atoms: C_37  and  O_38
REMARK                            x       y       z     vdW  Elec       q    Type
REMARK                         _______ _______ _______ _____ _____    ______ ____
ROOT
ATOM      1  N   UNL     1       0.073   0.106   2.295  0.00  0.00    -0.163 N 
ATOM      2  C   UNL     1       0.325  -0.626   3.535  0.00  0.00    +0.216 C 
ATOM      3  N   UNL     1      -0.391   0.003   4.652  0.00  0.00    -0.320 N 
ATOM      4  C   UNL     1      -0.355   1.388   4.767  0.00  0.00    +0.041 A 
ATOM      5  C   UNL     1      -0.440   2.024   5.994  0.00  0.00    +0.024 A 
ATOM      6  C   UNL     1      -0.394   3.404   6.053  0.00  0.00    +0.002 A 
ATOM      7  C   UNL     1      -0.263   4.155   4.896  0.00  0.00    +0.001 A 
ATOM      8  C   UNL     1      -0.179   3.537   3.665  0.00  0.00    +0.015 A 
ATOM      9  C   UNL     1      -0.227   2.147   3.590  0.00  0.00    +0.059 A 
ATOM     10  C   UNL     1      -0.147   1.438   2.301  0.00  0.00    +0.270 C 
ATOM     11  O   UNL     1      -0.282   2.044   1.255  0.00  0.00    -0.268 OA
ATOM     12  H   UNL     1      -0.879  -0.535   5.294  0.00  0.00    +0.148 HD
ENDROOT
BRANCH   2  13
ATOM     13  C   UNL     1       1.803  -0.620   3.828  0.00  0.00    -0.004 A 
ATOM     14  C   UNL     1       2.712  -0.566   2.788  0.00  0.00    +0.011 A 
ATOM     15  C   UNL     1       4.069  -0.560   3.051  0.00  0.00    +0.050 A 
ATOM     16  C   UNL     1       4.521  -0.608   4.360  0.00  0.00    +0.162 A 
ATOM     17  C   UNL     1       3.606  -0.662   5.407  0.00  0.00    +0.162 A 
ATOM     18  C   UNL     1       2.247  -0.662   5.137  0.00  0.00    +0.056 A 
BRANCH  17  19
ATOM     19  O   UNL     1       4.044  -0.709   6.694  0.00  0.00    -0.491 OA
ATOM     20  C   UNL     1       3.049  -0.762   7.717  0.00  0.00    +0.277 C 
ENDBRANCH  17  19
BRANCH  16  21
ATOM     21  O   UNL     1       5.855  -0.603   4.621  0.00  0.00    -0.484 OA
BRANCH  21  22
ATOM     22  C   UNL     1       6.736  -0.547   3.497  0.00  0.00    +0.264 C 
BRANCH  22  23
ATOM     23  C   UNL     1       8.164  -0.549   3.977  0.00  0.00    -0.010 A 
ATOM     24  C   UNL     1       8.803   0.645   4.251  0.00  0.00    +0.007 A 
ATOM     25  C   UNL     1      10.114   0.643   4.692  0.00  0.00    +0.000 A 
ATOM     26  C   UNL     1      10.785  -0.554   4.859  0.00  0.00    +0.000 A 
ATOM     27  C   UNL     1      10.145  -1.749   4.585  0.00  0.00    +0.000 A 
ATOM     28  C   UNL     1       8.834  -1.747   4.149  0.00  0.00    +0.007 A 
ENDBRANCH  22  23
ENDBRANCH  21  22
ENDBRANCH  16  21
ENDBRANCH   2  13
BRANCH   1  31
ATOM     29  C   UNL     1      -2.322  -0.151   0.957  0.00  0.00    +0.068 C 
ATOM     30  C   UNL     1      -1.030  -0.682   0.390  0.00  0.00    +0.067 C 
ATOM     31  N   UNL     1       0.067  -0.586   1.076  0.00  0.00    -0.179 NA
BRANCH  30  32
ATOM     32  C   UNL     1      -1.014  -1.311  -0.943  0.00  0.00    +0.039 A 
ATOM     33  C   UNL     1      -2.191  -1.412  -1.687  0.00  0.00    +0.013 A 
ATOM     34  C   UNL     1      -2.169  -2.001  -2.933  0.00  0.00    +0.001 A 
ATOM     35  C   UNL     1      -0.983  -2.494  -3.450  0.00  0.00    +0.004 A 
ATOM     36  C   UNL     1       0.189  -2.401  -2.724  0.00  0.00    +0.046 A 
ATOM     37  C   UNL     1       0.185  -1.806  -1.473  0.00  0.00    +0.126 A 
BRANCH  37  38
ATOM     38  O   UNL     1       1.338  -1.708  -0.761  0.00  0.00    -0.506 OA
ATOM     39  H   UNL     1       1.510  -2.466  -0.186  0.00  0.00    +0.292 HD
ENDBRANCH  37  38
ENDBRANCH  30  32
ENDBRANCH   1  31
TORSDOF 8
