REMARK  Name = ZINC20756558
REMARK  7 active torsions:
REMARK  status: ('A' for Active; 'I' for Inactive)
REMARK    1  A    between atoms: C_1  and  C_2
REMARK    2  A    between atoms: C_2  and  C_3
REMARK    3  A    between atoms: C_2  and  N_4
REMARK    4  A    between atoms: N_4  and  S_5
REMARK    5  A    between atoms: S_5  and  C_8
REMARK    6  A    between atoms: C_21  and  C_24
REMARK    7  A    between atoms: C_27  and  N_30
REMARK                            x       y       z     vdW  Elec       q    Type
REMARK                         _______ _______ _______ _____ _____    ______ ____
ROOT
ATOM      1  C   UNL     1      -1.868  -0.711   3.402  0.00  0.00    +0.106 A 
ATOM      2  C   UNL     1      -3.149  -0.520   2.915  0.00  0.00    +0.030 A 
ATOM      3  C   UNL     1      -3.927  -1.613   2.588  0.00  0.00    +0.025 A 
ATOM      4  C   UNL     1      -3.427  -2.898   2.760  0.00  0.00    +0.031 A 
ATOM      5  C   UNL     1      -2.146  -3.094   3.253  0.00  0.00    -0.018 A 
ATOM      6  C   UNL     1      -1.372  -1.987   3.572  0.00  0.00    +0.034 A 
ATOM      7  C   UNL     1      -1.566  -4.458   3.452  0.00  0.00    +0.049 C 
ATOM      8  C   UNL     1      -1.536  -4.836   4.914  0.00  0.00    -0.023 C 
ATOM      9  C   UNL     1      -1.784  -6.115   5.057  0.00  0.00    -0.030 C 
ATOM     10  C   UNL     1      -2.009  -6.767   3.707  0.00  0.00    +0.033 C 
ATOM     11  C   UNL     1      -2.402  -5.571   2.790  0.00  0.00    +0.029 C 
ATOM     12  C   UNL     1      -3.894  -5.301   3.008  0.00  0.00    +0.105 C 
ATOM     13  N   UNL     1      -4.230  -3.995   2.432  0.00  0.00    -0.336 N 
ATOM     14  H   UNL     1      -5.096  -3.897   1.760  0.00  0.00    +0.147 HD
ENDROOT
BRANCH  12  15
ATOM     15  C   UNL     1      -4.195  -5.295   4.484  0.00  0.00    -0.027 A 
ATOM     16  C   UNL     1      -3.914  -4.173   5.242  0.00  0.00    +0.008 A 
ATOM     17  C   UNL     1      -4.194  -4.166   6.596  0.00  0.00    +0.033 A 
ATOM     18  C   UNL     1      -4.748  -5.282   7.193  0.00  0.00    +0.126 A 
ATOM     19  C   UNL     1      -5.025  -6.405   6.436  0.00  0.00    +0.033 A 
ATOM     20  C   UNL     1      -4.748  -6.412   5.082  0.00  0.00    +0.008 A 
BRANCH  18  21
ATOM     21  N   UNL     1      -5.045  -5.275   8.643  0.00  0.00    +0.056 N 
ATOM     22  O   UNL     1      -5.533  -6.259   9.170  0.00  0.00    -0.126 OA
ATOM     23  O   UNL     1      -4.801  -4.285   9.310  0.00  0.00    -0.126 OA
ENDBRANCH  18  21
ENDBRANCH  12  15
BRANCH   1  24
ATOM     24  S   UNL     1      -0.870   0.681   3.814  0.00  0.00    +0.059 S 
ATOM     25  O   UNL     1       0.083   0.230   4.766  0.00  0.00    -0.153 OA
ATOM     26  O   UNL     1      -1.761   1.756   4.078  0.00  0.00    -0.153 OA
BRANCH  24  27
ATOM     27  N   UNL     1      -0.020   1.094   2.454  0.00  0.00    -0.187 NA
ATOM     28  H   UNL     1       1.050   0.847   2.393  0.00  0.00    +0.148 HD
BRANCH  27  30
ATOM     29  C   UNL     1      -0.013   1.086   0.008  0.00  0.00    +0.025 C 
ATOM     30  C   UNL     1      -0.729   1.579   1.267  0.00  0.00    +0.070 C 
ATOM     31  C   UNL     1      -0.750   3.109   1.275  0.00  0.00    +0.025 C 
ENDBRANCH  27  30
ENDBRANCH  24  27
ENDBRANCH   1  24
TORSDOF 5
