REMARK  Name = ZINC38592122
REMARK  5 active torsions:
REMARK  status: ('A' for Active; 'I' for Inactive)
REMARK    1  A    between atoms: C_4  and  C_7
REMARK    2  A    between atoms: C_7  and  C_8
REMARK    3  A    between atoms: C_11  and  C_35
REMARK    4  A    between atoms: C_14  and  C_16
REMARK    5  A    between atoms: C_18  and  C_29
REMARK                            x       y       z     vdW  Elec       q    Type
REMARK                         _______ _______ _______ _____ _____    ______ ____
ROOT
ATOM      1  C   UNL     1       3.817  -1.118   0.893  0.00  0.00    +0.240 C 
ATOM      2  O   UNL     1       3.018  -0.769   1.737  0.00  0.00    -0.273 OA
ATOM      3  N   UNL     1       4.962  -1.727   1.260  0.00  0.00    -0.185 N 
ATOM      4  C   UNL     1       5.365  -2.036   2.642  0.00  0.00    +0.137 C 
ATOM      5  C   UNL     1       6.736  -2.720   2.466  0.00  0.00    +0.083 C 
ATOM      6  C   UNL     1       6.951  -2.717   0.969  0.00  0.00    +0.055 C 
ATOM      7  N   UNL     1       5.957  -2.175   0.393  0.00  0.00    -0.185 NA
ENDROOT
BRANCH   6   8
ATOM      8  C   UNL     1       8.160  -3.278   0.266  0.00  0.00    +0.152 C 
ATOM      9  C   UNL     1       8.076  -2.877  -1.195  0.00  0.00    -0.014 C 
ATOM     10  C   UNL     1       8.074  -3.910  -2.137  0.00  0.00    +0.002 A 
ATOM     11  C   UNL     1       8.000  -3.626  -3.517  0.00  0.00    +0.030 A 
ATOM     12  C   UNL     1       8.000  -4.651  -4.413  0.00  0.00    +0.042 A 
ATOM     13  C   UNL     1       8.072  -5.979  -3.995  0.00  0.00    +0.022 A 
ATOM     14  C   UNL     1       8.147  -6.314  -2.678  0.00  0.00    +0.025 A 
ATOM     15  C   UNL     1       8.151  -5.307  -1.696  0.00  0.00    +0.041 A 
ATOM     16  N   UNL     1       8.224  -5.639  -0.403  0.00  0.00    -0.284 N 
ATOM     17  C   UNL     1       8.233  -4.756   0.576  0.00  0.00    +0.230 C 
ATOM     18  O   UNL     1       8.302  -5.131   1.732  0.00  0.00    -0.274 OA
ATOM     19 CL   UNL     1       7.908  -4.296  -6.110  0.00  0.00    -0.084 Cl
ATOM     20  H   UNL     1       8.273  -6.580  -0.172  0.00  0.00    +0.155 HD
BRANCH   9  21
ATOM     21  C   UNL     1       8.003  -1.517  -1.587  0.00  0.00    -0.020 A 
ATOM     22  C   UNL     1       6.873  -1.038  -2.270  0.00  0.00    +0.008 A 
ATOM     23  C   UNL     1       6.812   0.285  -2.646  0.00  0.00    +0.001 A 
ATOM     24  C   UNL     1       7.860   1.143  -2.353  0.00  0.00    +0.000 A 
ATOM     25  C   UNL     1       8.979   0.680  -1.680  0.00  0.00    +0.001 A 
ATOM     26  C   UNL     1       9.057  -0.638  -1.290  0.00  0.00    +0.008 A 
ENDBRANCH   9  21
ENDBRANCH   6   8
BRANCH   4  27
ATOM     27  C   UNL     1       5.497  -0.773   3.452  0.00  0.00    -0.025 A 
ATOM     28  C   UNL     1       6.027   0.366   2.875  0.00  0.00    +0.005 A 
ATOM     29  C   UNL     1       6.149   1.525   3.619  0.00  0.00    +0.000 A 
ATOM     30  C   UNL     1       5.740   1.546   4.939  0.00  0.00    +0.000 A 
ATOM     31  C   UNL     1       5.209   0.407   5.516  0.00  0.00    +0.000 A 
ATOM     32  C   UNL     1       5.083  -0.751   4.771  0.00  0.00    +0.005 A 
ENDBRANCH   4  27
BRANCH   1  33
ATOM     33  C   UNL     1       3.530  -0.869  -0.565  0.00  0.00    +0.132 C 
BRANCH  33  37
ATOM     34  C   UNL     1      -0.248   1.086  -0.961  0.00  0.00    +0.000 A 
ATOM     35  C   UNL     1       0.906   1.834  -0.821  0.00  0.00    +0.000 A 
ATOM     36  C   UNL     1       2.129   1.201  -0.693  0.00  0.00    +0.004 A 
ATOM     37  C   UNL     1       2.197  -0.179  -0.704  0.00  0.00    -0.039 A 
ATOM     38  C   UNL     1       1.042  -0.927  -0.843  0.00  0.00    +0.004 A 
ATOM     39  C   UNL     1      -0.180  -0.294  -0.972  0.00  0.00    +0.000 A 
ENDBRANCH  33  37
ENDBRANCH   1  33
TORSDOF 5
