REMARK  Name = ZINC12813480
REMARK  8 active torsions:
REMARK  status: ('A' for Active; 'I' for Inactive)
REMARK    1  A    between atoms: C_1  and  C_2
REMARK    2  A    between atoms: C_2  and  O_3
REMARK    3  A    between atoms: O_3  and  C_4
REMARK    4  A    between atoms: N_9  and  C_12
REMARK    5  A    between atoms: C_12  and  C_13
REMARK    6  A    between atoms: C_19  and  C_25
REMARK    7  A    between atoms: C_20  and  C_24
REMARK    8  A    between atoms: C_28  and  C_31
REMARK                            x       y       z     vdW  Elec       q    Type
REMARK                         _______ _______ _______ _____ _____    ______ ____
ROOT
ATOM      1  C   UNL     1      -6.590  -5.239  -1.582  0.00  0.00    +0.125 A 
ATOM      2  N   UNL     1      -7.534  -5.846  -2.346  0.00  0.00    -0.309 N 
ATOM      3  H   UNL     1      -7.921  -5.367  -3.095  0.00  0.00    +0.170 HD
ATOM      4  C   UNL     1      -7.944  -7.101  -2.083  0.00  0.00    +0.260 A 
ATOM      5  O   UNL     1      -8.792  -7.634  -2.779  0.00  0.00    -0.267 OA
ATOM      6  C   UNL     1      -7.368  -7.802  -0.975  0.00  0.00    +0.080 A 
ATOM      7  C   UNL     1      -7.641  -9.151  -0.494  0.00  0.00    +0.007 A 
ATOM      8  C   UNL     1      -6.964  -9.606   0.588  0.00  0.00    -0.003 A 
ATOM      9  S   UNL     1      -5.912  -8.234   1.023  0.00  0.00    -0.073 S 
ATOM     10  C   UNL     1      -6.401  -7.093  -0.244  0.00  0.00    +0.116 A 
ATOM     11  N   UNL     1      -6.043  -5.854  -0.568  0.00  0.00    -0.225 NA
ATOM     12  C   UNL     1      -7.074 -10.950   1.261  0.00  0.00    +0.052 C 
ENDROOT
BRANCH   7  13
ATOM     13  C   UNL     1      -8.641 -10.008  -1.175  0.00  0.00    -0.016 A 
ATOM     14  C   UNL     1      -9.987  -9.644  -1.181  0.00  0.00    +0.009 A 
ATOM     15  C   UNL     1     -10.913 -10.445  -1.817  0.00  0.00    +0.004 A 
ATOM     16  C   UNL     1     -10.508 -11.607  -2.448  0.00  0.00    -0.050 A 
ATOM     17  C   UNL     1      -9.174 -11.974  -2.446  0.00  0.00    +0.004 A 
ATOM     18  C   UNL     1      -8.238 -11.178  -1.817  0.00  0.00    +0.009 A 
ATOM     19  C   UNL     1     -11.524 -12.479  -3.140  0.00  0.00    +0.044 C 
ENDBRANCH   7  13
BRANCH   1  20
ATOM     20  C   UNL     1      -6.162  -3.832  -1.914  0.00  0.00    +0.158 C 
BRANCH  20  26
ATOM     21  C   UNL     1      -1.497  -1.836   0.006  0.00  0.00    +0.403 C 
ATOM     22  O   UNL     1      -0.523  -2.563  -0.007  0.00  0.00    -0.226 OA
ATOM     23  N   UNL     1      -2.735  -2.368   0.015  0.00  0.00    -0.265 N 
ATOM     24  C   UNL     1      -3.927  -1.506   0.025  0.00  0.00    +0.126 C 
ATOM     25  C   UNL     1      -4.864  -1.958  -1.100  0.00  0.00    +0.104 C 
ATOM     26  N   UNL     1      -5.135  -3.395  -0.960  0.00  0.00    -0.292 NA
ATOM     27  C   UNL     1      -3.906  -4.186  -1.109  0.00  0.00    +0.104 C 
ATOM     28  C   UNL     1      -2.930  -3.825   0.009  0.00  0.00    +0.126 C 
BRANCH  21  29
ATOM     29  O   UNL     1      -1.339  -0.499   0.012  0.00  0.00    -0.451 OA
BRANCH  29  31
ATOM     30  C   UNL     1      -0.019   1.526   0.010  0.00  0.00    +0.048 C 
ATOM     31  C   UNL     1       0.002  -0.004   0.002  0.00  0.00    +0.230 C 
ENDBRANCH  29  31
ENDBRANCH  21  29
ENDBRANCH  20  26
ENDBRANCH   1  20
TORSDOF 5
