REMARK  Name = ZINC65298359
REMARK  7 active torsions:
REMARK  status: ('A' for Active; 'I' for Inactive)
REMARK    1  A    between atoms: C_1  and  C_2
REMARK    2  A    between atoms: C_2  and  O_3
REMARK    3  A    between atoms: O_3  and  C_4
REMARK    4  A    between atoms: C_8  and  C_11
REMARK    5  A    between atoms: C_9  and  O_10
REMARK    6  A    between atoms: C_14  and  C_26
REMARK    7  A    between atoms: C_23  and  C_25
REMARK                            x       y       z     vdW  Elec       q    Type
REMARK                         _______ _______ _______ _____ _____    ______ ____
ROOT
ATOM      1  C   UNL     1       2.218  -4.287  -3.802  0.00  0.00    -0.028 C 
ATOM      2  C   UNL     1       1.268  -4.261  -5.004  0.00  0.00    +0.044 C 
ATOM      3  C   UNL     1       1.855  -5.082  -6.119  0.00  0.00    +0.040 C 
ATOM      4  N   UNL     1       2.820  -5.904  -5.943  0.00  0.00    -0.300 NA
ATOM      5  C   UNL     1       3.471  -6.138  -4.658  0.00  0.00    +0.032 C 
ATOM      6  N   UNL     1       2.612  -5.684  -3.556  0.00  0.00    +0.401 N 
ATOM      7  C   UNL     1       3.751  -7.635  -4.493  0.00  0.00    +0.029 C 
ATOM      8  C   UNL     1       4.630  -8.116  -5.651  0.00  0.00    +0.108 C 
ATOM      9  N   UNL     1       5.839  -7.283  -5.706  0.00  0.00    -0.302 N 
ATOM     10  C   UNL     1       5.687  -5.823  -5.769  0.00  0.00    +0.108 C 
ATOM     11  C   UNL     1       4.796  -5.369  -4.610  0.00  0.00    +0.029 C 
ATOM     12  C   UNL     1       7.063  -7.847  -5.698  0.00  0.00    +0.212 C 
ATOM     13  O   UNL     1       7.178  -9.044  -5.544  0.00  0.00    -0.276 OA
ATOM     14  C   UNL     1       8.289  -6.990  -5.882  0.00  0.00    +0.109 C 
ATOM     15  H   UNL     1       3.119  -5.744  -2.686  0.00  0.00    -0.081 HD
ATOM     16  H   UNL     1       1.788  -6.265  -3.510  0.00  0.00    -0.081 HD
ENDROOT
BRANCH   3  17
ATOM     17  C   UNL     1       1.292  -4.934  -7.475  0.00  0.00    -0.004 A 
ATOM     18  C   UNL     1       0.241  -4.043  -7.705  0.00  0.00    +0.011 A 
ATOM     19  C   UNL     1      -0.280  -3.910  -8.975  0.00  0.00    +0.020 A 
ATOM     20  C   UNL     1       0.236  -4.657 -10.021  0.00  0.00    +0.041 A 
ATOM     21  C   UNL     1       1.278  -5.542  -9.799  0.00  0.00    +0.020 A 
ATOM     22  C   UNL     1       1.811  -5.681  -8.535  0.00  0.00    +0.011 A 
ATOM     23 CL   UNL     1      -0.426  -4.483 -11.616  0.00  0.00    -0.084 Cl
ENDBRANCH   3  17
BRANCH   1  28
ATOM     24  C   UNL     1       0.764  -1.859  -1.288  0.00  0.00    +0.162 A 
ATOM     25  C   UNL     1       0.227  -2.728  -0.352  0.00  0.00    +0.049 A 
ATOM     26  C   UNL     1       0.336  -4.094  -0.534  0.00  0.00    +0.004 A 
ATOM     27  C   UNL     1       0.979  -4.597  -1.649  0.00  0.00    +0.006 A 
ATOM     28  C   UNL     1       1.517  -3.736  -2.588  0.00  0.00    -0.016 A 
ATOM     29  C   UNL     1       1.407  -2.365  -2.414  0.00  0.00    +0.160 A 
BRANCH  29  30
ATOM     30  O   UNL     1       1.930  -1.517  -3.339  0.00  0.00    -0.503 OA
ATOM     31  H   UNL     1       2.849  -1.269  -3.170  0.00  0.00    +0.292 HD
ENDBRANCH  29  30
BRANCH  24  32
ATOM     32  O   UNL     1       0.658  -0.515  -1.111  0.00  0.00    -0.489 OA
BRANCH  32  34
ATOM     33  C   UNL     1      -0.035   1.462   0.093  0.00  0.00    +0.048 C 
ATOM     34  C   UNL     1      -0.015  -0.068   0.068  0.00  0.00    +0.226 C 
ENDBRANCH  32  34
ENDBRANCH  24  32
ENDBRANCH   1  28
TORSDOF 5
