REMARK  Name = ZINC09043300
REMARK  11 active torsions:
REMARK  status: ('A' for Active; 'I' for Inactive)
REMARK    1  A    between atoms: C_1  and  C_2
REMARK    2  A    between atoms: C_2  and  C_4
REMARK    3  A    between atoms: C_2  and  S_15
REMARK    4  A    between atoms: N_6  and  C_7
REMARK    5  A    between atoms: C_10  and  O_13
REMARK    6  A    between atoms: O_13  and  C_14
REMARK    7  A    between atoms: S_15  and  C_16
REMARK    8  A    between atoms: C_22  and  C_27
REMARK    9  A    between atoms: C_30  and  C_33
REMARK   10  A    between atoms: C_33  and  C_34
REMARK   11  A    between atoms: C_33  and  C_35
REMARK                            x       y       z     vdW  Elec       q    Type
REMARK                         _______ _______ _______ _____ _____    ______ ____
ROOT
ATOM      1  C   UNL     1       2.533  -0.027   1.238  0.00  0.00    +0.171 A 
ATOM      2  N   UNL     1       3.483  -0.316   2.174  0.00  0.00    -0.301 N 
ATOM      3  H   UNL     1       3.238  -0.834   2.957  0.00  0.00    +0.171 HD
ATOM      4  C   UNL     1       4.753   0.105   2.031  0.00  0.00    +0.261 A 
ATOM      5  O   UNL     1       5.590  -0.161   2.876  0.00  0.00    -0.267 OA
ATOM      6  C   UNL     1       5.108   0.868   0.876  0.00  0.00    +0.080 A 
ATOM      7  C   UNL     1       6.404   1.428   0.504  0.00  0.00    +0.004 A 
ATOM      8  C   UNL     1       6.505   2.124  -0.652  0.00  0.00    +0.056 A 
ATOM      9  S   UNL     1       4.851   2.068  -1.315  0.00  0.00    -0.076 S 
ATOM     10  C   UNL     1       4.069   1.120  -0.036  0.00  0.00    +0.117 A 
ATOM     11  N   UNL     1       2.835   0.670   0.161  0.00  0.00    -0.216 NA
ENDROOT
BRANCH   7  12
ATOM     12  C   UNL     1       7.587   1.238   1.377  0.00  0.00    -0.017 A 
ATOM     13  C   UNL     1       7.503   1.519   2.740  0.00  0.00    +0.009 A 
ATOM     14  C   UNL     1       8.607   1.340   3.548  0.00  0.00    +0.004 A 
ATOM     15  C   UNL     1       9.796   0.884   3.007  0.00  0.00    -0.045 A 
ATOM     16  C   UNL     1       9.886   0.604   1.656  0.00  0.00    +0.004 A 
ATOM     17  C   UNL     1       8.786   0.773   0.839  0.00  0.00    +0.009 A 
BRANCH  15  18
ATOM     18  C   UNL     1      10.999   0.692   3.895  0.00  0.00    +0.013 C 
ATOM     19  C   UNL     1      11.439  -0.773   3.847  0.00  0.00    +0.012 C 
ATOM     20  C   UNL     1      12.142   1.583   3.405  0.00  0.00    +0.012 C 
ENDBRANCH  15  18
ENDBRANCH   7  12
BRANCH   1  21
ATOM     21  S   UNL     1       0.882  -0.601   1.468  0.00  0.00    -0.075 S 
BRANCH  21  23
ATOM     22  C   UNL     1      -0.030   1.532   0.018  0.00  0.00    +0.029 C 
ATOM     23  C   UNL     1      -0.000   0.002   0.002  0.00  0.00    +0.137 C 
BRANCH  23  24
ATOM     24  C   UNL     1      -1.411  -0.527   0.013  0.00  0.00    +0.230 C 
ATOM     25  O   UNL     1      -1.935  -0.837   1.062  0.00  0.00    -0.274 OA
ATOM     26  N   UNL     1      -2.090  -0.657  -1.144  0.00  0.00    -0.285 N 
ATOM     27  H   UNL     1      -1.697  -0.348  -1.975  0.00  0.00    +0.155 HD
BRANCH  26  28
ATOM     28  C   UNL     1      -3.365  -1.239  -1.147  0.00  0.00    +0.034 A 
ATOM     29  C   UNL     1      -3.766  -2.029  -2.216  0.00  0.00    +0.027 A 
ATOM     30  C   UNL     1      -5.022  -2.602  -2.218  0.00  0.00    +0.047 A 
ATOM     31  C   UNL     1      -5.883  -2.390  -1.151  0.00  0.00    +0.120 A 
ATOM     32  C   UNL     1      -5.483  -1.602  -0.083  0.00  0.00    +0.047 A 
ATOM     33  C   UNL     1      -4.225  -1.032  -0.077  0.00  0.00    +0.027 A 
BRANCH  31  34
ATOM     34  O   UNL     1      -7.120  -2.955  -1.154  0.00  0.00    -0.495 OA
ATOM     35  C   UNL     1      -7.954  -2.695  -0.024  0.00  0.00    +0.277 C 
ENDBRANCH  31  34
ENDBRANCH  26  28
ENDBRANCH  23  24
ENDBRANCH  21  23
ENDBRANCH   1  21
TORSDOF 7
