REMARK  Name = ZINC39438926
REMARK  4 active torsions:
REMARK  status: ('A' for Active; 'I' for Inactive)
REMARK    1  A    between atoms: C_1  and  C_2
REMARK    2  A    between atoms: C_5  and  C_16
REMARK    3  A    between atoms: C_6  and  C_15
REMARK    4  A    between atoms: N_21  and  C_22
REMARK                            x       y       z     vdW  Elec       q    Type
REMARK                         _______ _______ _______ _____ _____    ______ ____
ROOT
ATOM      1  C   UNL     1       2.748  -1.859  -1.760  0.00  0.00    +0.078 A 
ATOM      2  C   UNL     1       2.427  -1.988  -3.084  0.00  0.00    +0.076 A 
ATOM      3  S   UNL     1       3.755  -3.043  -3.649  0.00  0.00    -0.060 S 
ATOM      4  C   UNL     1       4.597  -3.206  -2.081  0.00  0.00    +0.163 A 
ATOM      5  N   UNL     1       3.835  -2.472  -1.292  0.00  0.00    -0.225 NA
ATOM      6  N   UNL     1       5.750  -3.912  -1.775  0.00  0.00    -0.294 N 
ATOM      7  H   UNL     1       6.048  -3.979  -0.854  0.00  0.00    +0.154 HD
ENDROOT
BRANCH   1  11
ATOM      8  C   UNL     1       0.182   1.822  -0.309  0.00  0.00    +0.032 C 
ATOM      9  C   UNL     1       0.221   0.317  -0.040  0.00  0.00    +0.097 C 
ATOM     10  C   UNL     1       0.809  -0.401  -1.226  0.00  0.00    +0.002 C 
ATOM     11  C   UNL     1       1.903  -1.046  -0.862  0.00  0.00    -0.004 C 
ATOM     12  C   UNL     1       2.161  -0.828   0.606  0.00  0.00    +0.106 C 
ATOM     13  N   UNL     1       1.084   0.038   1.115  0.00  0.00    -0.287 N 
ATOM     14  C   UNL     1       0.918   0.494   2.410  0.00  0.00    +0.214 A 
ATOM     15  H   UNL     1      -0.808   1.654   2.325  0.00  0.00    +0.192 HD
ATOM     16  N   UNL     1       1.706   0.232   3.431  0.00  0.00    -0.202 NA
ATOM     17  C   UNL     1       1.241   0.837   4.525  0.00  0.00    +0.246 A 
ATOM     18  N   UNL     1       0.154   1.493   4.221  0.00  0.00    -0.160 NA
ATOM     19  N   UNL     1      -0.077   1.293   2.850  0.00  0.00    -0.247 N 
ATOM     20  C   UNL     1       2.145  -2.169   1.342  0.00  0.00    +0.033 C 
ENDBRANCH   1  11
BRANCH   6  21
ATOM     21  C   UNL     1       6.483  -4.530  -2.795  0.00  0.00    +0.036 A 
ATOM     22  C   UNL     1       6.637  -3.897  -4.021  0.00  0.00    +0.027 A 
ATOM     23  C   UNL     1       7.360  -4.507  -5.028  0.00  0.00    +0.051 A 
ATOM     24  C   UNL     1       7.935  -5.752  -4.818  0.00  0.00    +0.162 A 
ATOM     25  C   UNL     1       7.785  -6.386  -3.590  0.00  0.00    +0.164 A 
ATOM     26  C   UNL     1       7.063  -5.772  -2.578  0.00  0.00    +0.072 A 
ATOM     27  O   UNL     1       8.349  -7.604  -3.363  0.00  0.00    -0.485 OA
ATOM     28  C   UNL     1       8.753  -8.352  -4.514  0.00  0.00    +0.270 C 
ATOM     29  C   UNL     1       9.516  -7.410  -5.456  0.00  0.00    +0.270 C 
ATOM     30  O   UNL     1       8.640  -6.339  -5.824  0.00  0.00    -0.485 OA
ENDBRANCH   6  21
TORSDOF 2
