REMARK  Name = ZINC27498398
REMARK  6 active torsions:
REMARK  status: ('A' for Active; 'I' for Inactive)
REMARK    1  A    between atoms: C_1  and  C_2
REMARK    2  A    between atoms: C_7  and  C_8
REMARK    3  A    between atoms: N_10  and  C_11
REMARK    4  A    between atoms: C_11  and  C_12
REMARK    5  A    between atoms: C_12  and  C_14
REMARK    6  A    between atoms: C_12  and  N_19
REMARK                            x       y       z     vdW  Elec       q    Type
REMARK                         _______ _______ _______ _____ _____    ______ ____
ROOT
ATOM      1  C   UNL     1      -3.015   4.387  -2.420  0.00  0.00    +0.261 C 
ATOM      2  O   UNL     1      -2.424   4.213  -3.470  0.00  0.00    -0.269 OA
ATOM      3  N   UNL     1      -2.623   3.732  -1.309  0.00  0.00    -0.311 N 
ATOM      4  H   UNL     1      -3.157   3.889  -0.361  0.00  0.00    +0.149 HD
ENDROOT
BRANCH   1  11
ATOM      5  C   UNL     1      -4.128   6.040  -4.828  0.00  0.00    +0.047 C 
ATOM      6  C   UNL     1      -4.648   6.035  -3.413  0.00  0.00    -0.010 A 
ATOM      7  C   UNL     1      -5.732   6.771  -2.918  0.00  0.00    +0.042 A 
ATOM      8  C   UNL     1      -5.859   6.474  -1.561  0.00  0.00    +0.027 A 
ATOM      9  N   UNL     1      -4.909   5.595  -1.242  0.00  0.00    -0.354 N 
ATOM     10  H   UNL     1      -4.830   5.221  -0.211  0.00  0.00    +0.166 HD
ATOM     11  C   UNL     1      -4.156   5.309  -2.365  0.00  0.00    +0.106 A 
ATOM     12  C   UNL     1      -6.919   7.093  -0.684  0.00  0.00    +0.054 C 
ATOM     13  C   UNL     1      -7.427   8.381  -1.339  0.00  0.00    +0.014 C 
ATOM     14  C   UNL     1      -7.864   8.118  -2.783  0.00  0.00    +0.080 C 
ATOM     15  C   UNL     1      -6.639   7.713  -3.590  0.00  0.00    +0.165 C 
ATOM     16  O   UNL     1      -6.426   8.137  -4.707  0.00  0.00    -0.292 OA
ENDBRANCH   1  11
BRANCH   3  17
ATOM     17  C   UNL     1      -1.484   2.812  -1.365  0.00  0.00    +0.097 C 
BRANCH  17  18
ATOM     18  C   UNL     1      -1.250   2.205   0.020  0.00  0.00    +0.016 C 
BRANCH  18  19
ATOM     19  N   UNL     1      -1.085   3.283   1.005  0.00  0.00    +0.387 N 
ATOM     20  C   UNL     1       0.013   4.181   0.623  0.00  0.00    -0.078 C 
ATOM     21  C   UNL     1       0.063   5.368   1.587  0.00  0.00    -0.019 C 
ATOM     22  C   UNL     1       0.273   4.851   3.014  0.00  0.00    -0.004 C 
ATOM     23  C   UNL     1      -0.857   3.882   3.369  0.00  0.00    -0.019 C 
ATOM     24  C   UNL     1      -0.880   2.738   2.353  0.00  0.00    -0.078 C 
ATOM     25  H   UNL     1      -2.012   3.875   1.020  0.00  0.00    -0.081 HD
ENDBRANCH  18  19
BRANCH  18  26
ATOM     26  C   UNL     1      -0.007   1.355  -0.007  0.00  0.00    +0.093 A 
ATOM     27  C   UNL     1       0.028   0.011   0.034  0.00  0.00    +0.043 A 
ATOM     28  C   UNL     1       1.389  -0.366  -0.020  0.00  0.00    +0.041 A 
ATOM     29  C   UNL     1       2.105   0.770  -0.091  0.00  0.00    +0.195 A 
ATOM     30  O   UNL     1       1.254   1.810  -0.083  0.00  0.00    -0.469 OA
ENDBRANCH  18  26
ENDBRANCH  17  18
ENDBRANCH   3  17
TORSDOF 5
