REMARK  Name = ZINC13785437
REMARK  6 active torsions:
REMARK  status: ('A' for Active; 'I' for Inactive)
REMARK    1  A    between atoms: C_4  and  C_7
REMARK    2  A    between atoms: N_9  and  C_10
REMARK    3  A    between atoms: C_10  and  C_12
REMARK    4  A    between atoms: C_10  and  C_24
REMARK    5  A    between atoms: N_26  and  N_27
REMARK    6  A    between atoms: C_28  and  C_29
REMARK                            x       y       z     vdW  Elec       q    Type
REMARK                         _______ _______ _______ _____ _____    ______ ____
ROOT
ATOM      1  C   UNL     1       1.278   2.115   0.001  0.00  0.00    +0.212 C 
ENDROOT
BRANCH   1   2
ATOM      2  C   UNL     1       2.062   1.768  -1.239  0.00  0.00    +0.099 A 
ATOM      3  C   UNL     1       2.927   0.588  -1.251  0.00  0.00    +0.013 A 
ATOM      4  C   UNL     1       3.056  -0.243  -0.137  0.00  0.00    +0.010 A 
ATOM      5  C   UNL     1       3.877  -1.334  -0.198  0.00  0.00    +0.001 A 
ATOM      6  C   UNL     1       4.586  -1.629  -1.355  0.00  0.00    +0.001 A 
ATOM      7  C   UNL     1       4.479  -0.827  -2.470  0.00  0.00    +0.014 A 
ATOM      8  C   UNL     1       3.648   0.291  -2.430  0.00  0.00    +0.050 A 
ATOM      9  C   UNL     1       3.490   1.185  -3.585  0.00  0.00    +0.272 A 
ATOM     10  O   UNL     1       4.090   0.970  -4.623  0.00  0.00    -0.266 OA
ATOM     11  N   UNL     1       2.667   2.249  -3.474  0.00  0.00    -0.242 N 
ATOM     12  H   UNL     1       2.537   2.934  -4.325  0.00  0.00    +0.192 HD
ATOM     13  N   UNL     1       1.964   2.514  -2.299  0.00  0.00    -0.173 NA
ENDBRANCH   1   2
BRANCH   1  16
ATOM     14  C   UNL     1       1.901   4.417   0.501  0.00  0.00    +0.245 C 
ATOM     15  O   UNL     1       2.960   4.006   0.933  0.00  0.00    -0.270 OA
ATOM     16  N   UNL     1       0.991   3.551   0.012  0.00  0.00    -0.295 N 
ATOM     17  H   UNL     1       0.033   3.924  -0.380  0.00  0.00    +0.150 HD
BRANCH  14  21
ATOM     18  C   UNL     1       1.069   8.582   0.531  0.00  0.00    +0.000 A 
ATOM     19  C   UNL     1       2.275   8.117   1.024  0.00  0.00    +0.001 A 
ATOM     20  C   UNL     1       2.551   6.766   1.018  0.00  0.00    +0.013 A 
ATOM     21  C   UNL     1       1.611   5.867   0.511  0.00  0.00    +0.037 A 
ATOM     22  C   UNL     1       0.399   6.343   0.010  0.00  0.00    +0.013 A 
ATOM     23  C   UNL     1       0.132   7.696   0.028  0.00  0.00    +0.001 A 
ENDBRANCH  14  21
ENDBRANCH   1  16
BRANCH   1  24
ATOM     24  C   UNL     1      -0.016   1.344   0.009  0.00  0.00    +0.259 C 
ATOM     25  O   UNL     1      -1.075   1.936   0.018  0.00  0.00    -0.272 OA
ATOM     26  N   UNL     1       0.002  -0.004   0.002  0.00  0.00    -0.205 N 
ATOM     27  H   UNL     1       0.962  -0.541  -0.010  0.00  0.00    +0.177 HD
BRANCH  26  28
ATOM     28  N   UNL     1      -1.202  -0.721   0.010  0.00  0.00    -0.188 NA
ATOM     29  C   UNL     1      -1.184  -2.018   0.003  0.00  0.00    +0.138 C 
BRANCH  29  30
ATOM     30  C   UNL     1      -2.451  -2.773   0.011  0.00  0.00    -0.005 A 
ATOM     31  C   UNL     1      -3.672  -2.094   0.032  0.00  0.00    +0.010 A 
ATOM     32  C   UNL     1      -4.853  -2.806   0.034  0.00  0.00    +0.016 A 
ATOM     33  C   UNL     1      -4.831  -4.191   0.027  0.00  0.00    +0.018 A 
ATOM     34  C   UNL     1      -3.624  -4.870   0.011  0.00  0.00    +0.016 A 
ATOM     35  C   UNL     1      -2.436  -4.170   0.003  0.00  0.00    +0.010 A 
ATOM     36 BR   UNL     1      -6.455  -5.158   0.038  0.00  0.00    -0.050 Br
ENDBRANCH  29  30
ENDBRANCH  26  28
ENDBRANCH   1  24
TORSDOF 6
