REMARK  Name = ZINC00421466
REMARK  4 active torsions:
REMARK  status: ('A' for Active; 'I' for Inactive)
REMARK    1  A    between atoms: C_1  and  C_2
REMARK    2  A    between atoms: C_9  and  C_14
REMARK    3  A    between atoms: C_16  and  C_27
REMARK    4  A    between atoms: C_17  and  N_26
REMARK                            x       y       z     vdW  Elec       q    Type
REMARK                         _______ _______ _______ _____ _____    ______ ____
ROOT
ATOM      1  C   UNL     1      -2.752   2.244   2.504  0.00  0.00    +0.106 C 
ATOM      2  C   UNL     1      -1.761   2.862   3.450  0.00  0.00    +0.098 C 
ATOM      3  C   UNL     1      -0.436   2.607   3.318  0.00  0.00    +0.198 C 
ATOM      4  O   UNL     1       0.027   1.798   2.352  0.00  0.00    -0.445 OA
ATOM      5  C   UNL     1      -0.718   1.572   1.252  0.00  0.00    +0.115 C 
ATOM      6  C   UNL     1      -2.049   1.767   1.256  0.00  0.00    +0.046 C 
ATOM      7  C   UNL     1      -2.826   1.532   0.106  0.00  0.00    +0.163 C 
ATOM      8  O   UNL     1      -4.028   1.699   0.154  0.00  0.00    -0.292 OA
ATOM      9  C   UNL     1      -2.194   1.078  -1.182  0.00  0.00    +0.080 C 
ATOM     10  C   UNL     1      -0.751   1.592  -1.233  0.00  0.00    +0.016 C 
ATOM     11  C   UNL     1      -0.013   1.086   0.008  0.00  0.00    +0.075 C 
ENDROOT
BRANCH   1  20
ATOM     12  C   UNL     1      -8.804  -1.266   5.086  0.00  0.00    +0.044 C 
ATOM     13  C   UNL     1      -7.316  -1.210   4.854  0.00  0.00    -0.050 A 
ATOM     14  C   UNL     1      -6.515  -2.265   5.268  0.00  0.00    +0.005 A 
ATOM     15  C   UNL     1      -5.152  -2.236   5.065  0.00  0.00    +0.026 A 
ATOM     16  C   UNL     1      -4.571  -1.138   4.439  0.00  0.00    +0.049 A 
ATOM     17  C   UNL     1      -5.387  -0.070   4.020  0.00  0.00    -0.001 A 
ATOM     18  C   UNL     1      -6.768  -0.122   4.237  0.00  0.00    +0.013 A 
ATOM     19  C   UNL     1      -4.766   1.081   3.361  0.00  0.00    +0.020 A 
ATOM     20  C   UNL     1      -3.422   1.076   3.179  0.00  0.00    +0.030 A 
ATOM     21  C   UNL     1      -2.650  -0.023   3.613  0.00  0.00    +0.253 A 
ATOM     22  O   UNL     1      -1.445  -0.010   3.434  0.00  0.00    -0.268 OA
ATOM     23  N   UNL     1      -3.211  -1.082   4.223  0.00  0.00    -0.322 N 
ATOM     24  H   UNL     1      -2.632  -1.839   4.526  0.00  0.00    +0.169 HD
ENDBRANCH   1  20
BRANCH   3  25
ATOM     25  N   UNL     1       0.450   3.187   4.191  0.00  0.00    -0.328 N 
ATOM     26  H   UNL     1       0.127   3.772   4.893  0.00  0.00    +0.145 HD
ATOM     27  H   UNL     1       1.400   3.011   4.106  0.00  0.00    +0.145 HD
ENDBRANCH   3  25
BRANCH   2  28
ATOM     28  C   UNL     1      -2.218   3.725   4.498  0.00  0.00    +0.101 C 
ATOM     29  N   UNL     1      -2.581   4.409   5.329  0.00  0.00    -0.191 NA
ENDBRANCH   2  28
TORSDOF 3
