REMARK  Name = ZINC63919966
REMARK  7 active torsions:
REMARK  status: ('A' for Active; 'I' for Inactive)
REMARK    1  A    between atoms: C_7  and  C_10
REMARK    2  A    between atoms: C_10  and  C_12
REMARK    3  A    between atoms: C_10  and  C_29
REMARK    4  A    between atoms: C_12  and  N_13
REMARK    5  A    between atoms: C_14  and  C_16
REMARK    6  A    between atoms: C_16  and  N_17
REMARK    7  A    between atoms: C_18  and  C_20
REMARK                            x       y       z     vdW  Elec       q    Type
REMARK                         _______ _______ _______ _____ _____    ______ ____
ROOT
ATOM      1  C   UNL     1       0.947  -4.042   1.218  0.00  0.00    +0.116 C 
ENDROOT
BRANCH   1   2
ATOM      2  N   UNL     1      -0.044  -5.118   1.282  0.00  0.00    -0.313 N 
ATOM      3  C   UNL     1      -0.013  -6.003   2.298  0.00  0.00    +0.230 C 
ATOM      4  O   UNL     1       0.836  -5.909   3.159  0.00  0.00    -0.274 OA
ATOM      5  H   UNL     1      -0.723  -5.194   0.593  0.00  0.00    +0.149 HD
BRANCH   3   6
ATOM      6  C   UNL     1      -1.034  -7.111   2.364  0.00  0.00    +0.200 C 
BRANCH   6   7
ATOM      7  N   UNL     1      -0.788  -7.931   3.553  0.00  0.00    -0.303 N 
ATOM      8  C   UNL     1      -1.582  -8.986   3.820  0.00  0.00    +0.245 C 
ATOM      9  O   UNL     1      -2.503  -9.258   3.073  0.00  0.00    -0.270 OA
ATOM     10  H   UNL     1      -0.053  -7.714   4.148  0.00  0.00    +0.150 HD
BRANCH   8  11
ATOM     11  C   UNL     1      -1.334  -9.813   5.017  0.00  0.00    +0.040 A 
ATOM     12  C   UNL     1      -0.281  -9.499   5.879  0.00  0.00    +0.017 A 
ATOM     13  C   UNL     1      -0.051 -10.270   6.997  0.00  0.00    +0.050 A 
ATOM     14  C   UNL     1      -0.865 -11.362   7.271  0.00  0.00    +0.166 A 
ATOM     15  C   UNL     1      -1.919 -11.681   6.414  0.00  0.00    +0.167 A 
ATOM     16  C   UNL     1      -2.157 -10.908   5.295  0.00  0.00    +0.062 A 
ATOM     17  O   UNL     1      -2.558 -12.785   6.902  0.00  0.00    -0.453 OA
ATOM     18  C   UNL     1      -1.638 -13.377   7.839  0.00  0.00    +0.466 C 
ATOM     19  O   UNL     1      -0.847 -12.264   8.293  0.00  0.00    -0.453 OA
ENDBRANCH   8  11
ENDBRANCH   6   7
ENDBRANCH   3   6
ENDBRANCH   1   2
BRANCH   1  20
ATOM     20  C   UNL     1       0.691  -3.186  -0.024  0.00  0.00    +0.066 C 
BRANCH  20  27
ATOM     21  C   UNL     1      -0.016   1.348   0.009  0.00  0.00    +0.001 A 
ATOM     22  C   UNL     1       1.166   2.101   0.002  0.00  0.00    +0.002 A 
ATOM     23  C   UNL     1       2.391   1.535  -0.013  0.00  0.00    +0.026 A 
ATOM     24  C   UNL     1       2.529   0.120  -0.022  0.00  0.00    +0.043 A 
ATOM     25  N   UNL     1       3.587  -0.654  -0.037  0.00  0.00    -0.380 N 
ATOM     26  C   UNL     1       3.143  -2.053  -0.041  0.00  0.00    +0.145 C 
ATOM     27  C   UNL     1       1.631  -2.008  -0.025  0.00  0.00    -0.033 C 
ATOM     28  C   UNL     1       1.295  -0.698  -0.014  0.00  0.00    -0.000 A 
ATOM     29  C   UNL     1       0.002  -0.004   0.002  0.00  0.00    +0.010 A 
ATOM     30  H   UNL     1       4.509  -0.353  -0.045  0.00  0.00    +0.160 HD
ENDBRANCH  20  27
BRANCH  20  31
ATOM     31  C   UNL     1       0.920  -4.014  -1.262  0.00  0.00    -0.020 A 
ATOM     32  C   UNL     1       2.158  -4.583  -1.493  0.00  0.00    +0.006 A 
ATOM     33  C   UNL     1       2.369  -5.342  -2.629  0.00  0.00    +0.000 A 
ATOM     34  C   UNL     1       1.341  -5.534  -3.534  0.00  0.00    +0.001 A 
ATOM     35  C   UNL     1       0.103  -4.965  -3.303  0.00  0.00    +0.020 A 
ATOM     36  C   UNL     1      -0.110  -4.210  -2.164  0.00  0.00    +0.045 A 
ATOM     37 CL   UNL     1      -1.668  -3.501  -1.871  0.00  0.00    -0.083 Cl
ENDBRANCH  20  31
ENDBRANCH   1  20
TORSDOF 7
