REMARK  Name = ZINC63270703
REMARK  6 active torsions:
REMARK  status: ('A' for Active; 'I' for Inactive)
REMARK    1  A    between atoms: C_1  and  O_2
REMARK    2  A    between atoms: O_2  and  C_3
REMARK    3  A    between atoms: C_3  and  C_5
REMARK    4  A    between atoms: C_5  and  C_7
REMARK    5  A    between atoms: C_5  and  N_14
REMARK    6  A    between atoms: C_7  and  C_8
REMARK                            x       y       z     vdW  Elec       q    Type
REMARK                         _______ _______ _______ _____ _____    ______ ____
ROOT
ATOM      1  N   UNL     1      -2.644  -2.567   0.013  0.00  0.00    -0.286 N 
ATOM      2  C   UNL     1      -3.306  -2.679   1.182  0.00  0.00    +0.303 C 
ATOM      3  O   UNL     1      -2.718  -2.508   2.232  0.00  0.00    -0.253 OA
ATOM      4  N   UNL     1      -4.619  -2.981   1.186  0.00  0.00    -0.283 N 
ATOM      5  C   UNL     1      -5.294  -3.302  -0.075  0.00  0.00    +0.114 C 
ATOM      6  C   UNL     1      -6.471  -2.333  -0.289  0.00  0.00    +0.052 C 
ATOM      7  C   UNL     1      -7.207  -2.249   1.025  0.00  0.00    -0.036 C 
ATOM      8  C   UNL     1      -8.490  -2.408   1.323  0.00  0.00    -0.001 A 
ATOM      9  C   UNL     1      -9.675  -2.613   0.475  0.00  0.00    +0.010 A 
ATOM     10  C   UNL     1     -10.860  -2.760   1.126  0.00  0.00    +0.001 A 
ATOM     11  C   UNL     1     -10.982  -2.725   2.518  0.00  0.00    +0.002 A 
ATOM     12  C   UNL     1      -9.947  -2.532   3.375  0.00  0.00    +0.026 A 
ATOM     13  C   UNL     1      -8.651  -2.357   2.809  0.00  0.00    +0.043 A 
ATOM     14  N   UNL     1      -7.506  -2.135   3.383  0.00  0.00    -0.376 N 
ATOM     15  C   UNL     1      -6.494  -1.959   2.340  0.00  0.00    +0.124 C 
ATOM     16  C   UNL     1      -5.360  -2.989   2.458  0.00  0.00    +0.138 C 
ATOM     17  H   UNL     1      -3.094  -2.775  -0.821  0.00  0.00    +0.151 HD
ATOM     18  H   UNL     1      -7.348  -2.095   4.339  0.00  0.00    +0.160 HD
ENDROOT
BRANCH   1  19
ATOM     19  C   UNL     1      -1.245  -2.131   0.003  0.00  0.00    +0.187 C 
BRANCH  19  20
ATOM     20  C   UNL     1      -1.188  -0.625   0.013  0.00  0.00    +0.328 C 
ATOM     21  O   UNL     1      -2.210   0.018   0.029  0.00  0.00    -0.249 OA
BRANCH  20  23
ATOM     22  C   UNL     1      -0.021   1.430   0.017  0.00  0.00    +0.280 C 
ATOM     23  O   UNL     1      -0.001   0.001   0.006  0.00  0.00    -0.467 OA
ENDBRANCH  20  23
ENDBRANCH  19  20
BRANCH  19  24
ATOM     24  C   UNL     1      -0.556  -2.659  -1.258  0.00  0.00    +0.069 C 
BRANCH  24  25
ATOM     25  C   UNL     1      -0.505  -4.164  -1.209  0.00  0.00    -0.045 A 
ATOM     26  C   UNL     1       0.575  -4.800  -0.626  0.00  0.00    +0.004 A 
ATOM     27  C   UNL     1       0.623  -6.181  -0.582  0.00  0.00    +0.000 A 
ATOM     28  C   UNL     1      -0.410  -6.926  -1.120  0.00  0.00    +0.000 A 
ATOM     29  C   UNL     1      -1.490  -6.289  -1.703  0.00  0.00    +0.000 A 
ATOM     30  C   UNL     1      -1.540  -4.909  -1.743  0.00  0.00    +0.004 A 
ENDBRANCH  24  25
ENDBRANCH  19  24
ENDBRANCH   1  19
TORSDOF 5
