REMARK  Name = ZINC20708068
REMARK  6 active torsions:
REMARK  status: ('A' for Active; 'I' for Inactive)
REMARK    1  A    between atoms: C_1  and  C_2
REMARK    2  A    between atoms: C_4  and  C_38
REMARK    3  A    between atoms: C_6  and  N_8
REMARK    4  A    between atoms: N_8  and  S_9
REMARK    5  A    between atoms: S_9  and  C_12
REMARK    6  A    between atoms: C_25  and  C_28
REMARK                            x       y       z     vdW  Elec       q    Type
REMARK                         _______ _______ _______ _____ _____    ______ ____
ROOT
ATOM      1  C   UNL     1      -3.653   6.707  -0.510  0.00  0.00    +0.109 A 
ATOM      2  C   UNL     1      -3.777   8.084  -0.495  0.00  0.00    +0.030 A 
ATOM      3  C   UNL     1      -2.796   8.862   0.086  0.00  0.00    +0.025 A 
ATOM      4  C   UNL     1      -1.679   8.268   0.660  0.00  0.00    +0.031 A 
ATOM      5  C   UNL     1      -1.567   6.874   0.655  0.00  0.00    -0.018 A 
ATOM      6  C   UNL     1      -2.549   6.106   0.066  0.00  0.00    +0.034 A 
ATOM      7  C   UNL     1      -0.375   6.282   1.298  0.00  0.00    +0.049 C 
ATOM      8  C   UNL     1       0.155   4.953   0.896  0.00  0.00    -0.023 C 
ATOM      9  C   UNL     1       1.470   4.949   1.079  0.00  0.00    -0.030 C 
ATOM     10  C   UNL     1       1.932   6.316   1.587  0.00  0.00    +0.033 C 
ATOM     11  C   UNL     1       0.830   7.236   1.044  0.00  0.00    +0.029 C 
ATOM     12  C   UNL     1       0.542   8.506   1.825  0.00  0.00    +0.105 C 
ATOM     13  N   UNL     1      -0.679   9.080   1.211  0.00  0.00    -0.336 N 
ATOM     14  H   UNL     1      -0.818  10.171   1.179  0.00  0.00    +0.147 HD
ENDROOT
BRANCH  12  15
ATOM     15  C   UNL     1       1.702   9.461   1.712  0.00  0.00    -0.026 A 
ATOM     16  C   UNL     1       1.841  10.239   0.564  0.00  0.00    +0.006 A 
ATOM     17  C   UNL     1       2.874  11.115   0.432  0.00  0.00    +0.009 A 
ATOM     18  C   UNL     1       3.823  11.232   1.462  0.00  0.00    -0.018 A 
ATOM     19  C   UNL     1       4.906  12.121   1.360  0.00  0.00    +0.008 A 
ATOM     20  C   UNL     1       5.806  12.207   2.377  0.00  0.00    +0.001 A 
ATOM     21  C   UNL     1       5.670  11.425   3.523  0.00  0.00    +0.001 A 
ATOM     22  C   UNL     1       4.634  10.553   3.657  0.00  0.00    +0.008 A 
ATOM     23  C   UNL     1       3.685  10.437   2.627  0.00  0.00    -0.018 A 
ATOM     24  C   UNL     1       2.601   9.547   2.730  0.00  0.00    +0.014 A 
ENDBRANCH  12  15
BRANCH   1  25
ATOM     25  S   UNL     1      -4.902   5.718  -1.262  0.00  0.00    +0.072 S 
ATOM     26  O   UNL     1      -5.478   6.507  -2.294  0.00  0.00    -0.150 OA
ATOM     27  O   UNL     1      -4.319   4.446  -1.511  0.00  0.00    -0.150 OA
BRANCH  25  28
ATOM     28  N   UNL     1      -6.088   5.481  -0.130  0.00  0.00    -0.216 N 
ATOM     29  H   UNL     1      -7.103   5.867  -0.308  0.00  0.00    +0.174 HD
BRANCH  28  35
ATOM     30  C   UNL     1      -5.218   1.233   2.183  0.00  0.00    +0.044 C 
ATOM     31  C   UNL     1      -5.372   2.732   2.201  0.00  0.00    -0.048 A 
ATOM     32  C   UNL     1      -5.227   3.427   3.388  0.00  0.00    +0.006 A 
ATOM     33  C   UNL     1      -5.368   4.803   3.409  0.00  0.00    -0.048 A 
ATOM     34  C   UNL     1      -5.653   5.487   2.244  0.00  0.00    +0.028 A 
ATOM     35  C   UNL     1      -5.799   4.792   1.050  0.00  0.00    +0.049 A 
ATOM     36  C   UNL     1      -5.662   3.410   1.033  0.00  0.00    +0.028 A 
ATOM     37  C   UNL     1      -5.210   5.555   4.705  0.00  0.00    +0.044 C 
ENDBRANCH  28  35
ENDBRANCH  25  28
ENDBRANCH   1  25
TORSDOF 4
