REMARK  Name = ZINC36657471
REMARK  5 active torsions:
REMARK  status: ('A' for Active; 'I' for Inactive)
REMARK    1  A    between atoms: C_1  and  C_2
REMARK    2  A    between atoms: C_2  and  C_28
REMARK    3  A    between atoms: N_5  and  C_9
REMARK    4  A    between atoms: C_9  and  C_10
REMARK    5  A    between atoms: C_15  and  C_18
REMARK                            x       y       z     vdW  Elec       q    Type
REMARK                         _______ _______ _______ _____ _____    ______ ____
ROOT
ATOM      1  C   UNL     1       4.020  -0.950  -1.644  0.00  0.00    +0.237 C 
ATOM      2  O   UNL     1       3.975   0.180  -1.206  0.00  0.00    -0.274 OA
ATOM      3  N   UNL     1       5.097  -1.360  -2.343  0.00  0.00    -0.263 N 
ATOM      4  C   UNL     1       6.156  -0.487  -2.562  0.00  0.00    +0.165 A 
ATOM      5  N   UNL     1       7.283  -0.691  -3.217  0.00  0.00    -0.225 NA
ATOM      6  C   UNL     1       8.195   0.264  -3.330  0.00  0.00    +0.080 A 
ATOM      7  C   UNL     1       7.964   1.484  -2.757  0.00  0.00    +0.076 A 
ATOM      8  S   UNL     1       6.349   1.211  -2.038  0.00  0.00    -0.060 S 
ATOM      9  H   UNL     1       5.133  -2.264  -2.693  0.00  0.00    +0.157 HD
ENDROOT
BRANCH   6  10
ATOM     10  C   UNL     1       9.454   0.012  -4.071  0.00  0.00    +0.002 A 
ATOM     11  C   UNL     1      10.415   1.031  -4.178  0.00  0.00    +0.010 A 
ATOM     12  C   UNL     1      11.577   0.826  -4.851  0.00  0.00    +0.009 A 
ATOM     13  C   UNL     1      11.830  -0.421  -5.452  0.00  0.00    -0.018 A 
ATOM     14  C   UNL     1      13.024  -0.658  -6.153  0.00  0.00    +0.008 A 
ATOM     15  C   UNL     1      13.241  -1.875  -6.724  0.00  0.00    +0.001 A 
ATOM     16  C   UNL     1      12.295  -2.893  -6.624  0.00  0.00    +0.001 A 
ATOM     17  C   UNL     1      11.126  -2.700  -5.954  0.00  0.00    +0.008 A 
ATOM     18  C   UNL     1      10.867  -1.457  -5.350  0.00  0.00    -0.017 A 
ATOM     19  C   UNL     1       9.675  -1.226  -4.646  0.00  0.00    +0.018 A 
ENDBRANCH   6  10
BRANCH   1  20
ATOM     20  C   UNL     1       2.871  -1.896  -1.406  0.00  0.00    +0.214 C 
BRANCH  20  25
ATOM     21  C   UNL     1      -0.019   1.526   0.010  0.00  0.00    +0.047 C 
ATOM     22  C   UNL     1       0.002  -0.004   0.002  0.00  0.00    +0.135 C 
ATOM     23  C   UNL     1       0.815  -0.520  -1.169  0.00  0.00    +0.251 C 
ATOM     24  O   UNL     1       0.595  -0.342  -2.348  0.00  0.00    -0.272 OA
ATOM     25  N   UNL     1       1.833  -1.217  -0.627  0.00  0.00    -0.215 N 
ATOM     26  C   UNL     1       1.777  -1.214   0.710  0.00  0.00    +0.310 C 
ATOM     27  O   UNL     1       2.586  -1.776   1.421  0.00  0.00    -0.252 OA
ATOM     28  N   UNL     1       0.724  -0.519   1.178  0.00  0.00    -0.281 N 
ATOM     29  H   UNL     1       0.487  -0.383   2.109  0.00  0.00    +0.152 HD
BRANCH  22  30
ATOM     30  C   UNL     1      -1.401  -0.551  -0.040  0.00  0.00    -0.015 A 
ATOM     31  C   UNL     1      -2.004  -0.815  -1.256  0.00  0.00    +0.009 A 
ATOM     32  C   UNL     1      -3.291  -1.317  -1.296  0.00  0.00    +0.039 A 
ATOM     33  C   UNL     1      -3.976  -1.557  -0.117  0.00  0.00    +0.123 A 
ATOM     34  C   UNL     1      -3.372  -1.293   1.100  0.00  0.00    +0.039 A 
ATOM     35  C   UNL     1      -2.083  -0.796   1.138  0.00  0.00    +0.009 A 
ATOM     36  F   UNL     1      -5.234  -2.048  -0.155  0.00  0.00    -0.205 F 
ENDBRANCH  22  30
ENDBRANCH  20  25
ENDBRANCH   1  20
TORSDOF 4
