REMARK  Name = ZINC09934496
REMARK  5 active torsions:
REMARK  status: ('A' for Active; 'I' for Inactive)
REMARK    1  A    between atoms: C_4  and  C_7
REMARK    2  A    between atoms: C_8  and  C_17
REMARK    3  A    between atoms: N_27  and  C_28
REMARK    4  A    between atoms: C_28  and  C_29
REMARK    5  A    between atoms: N_34  and  C_37
REMARK                            x       y       z     vdW  Elec       q    Type
REMARK                         _______ _______ _______ _____ _____    ______ ____
ROOT
ATOM      1  C   UNL     1      -4.861  -4.576   4.617  0.00  0.00    +0.141 C 
ATOM      2  C   UNL     1      -5.807  -5.695   4.975  0.00  0.00    -0.010 A 
ATOM      3  C   UNL     1      -5.822  -6.630   5.984  0.00  0.00    +0.006 A 
ATOM      4  C   UNL     1      -6.850  -7.555   6.055  0.00  0.00    +0.000 A 
ATOM      5  C   UNL     1      -7.863  -7.543   5.113  0.00  0.00    +0.001 A 
ATOM      6  C   UNL     1      -7.858  -6.610   4.096  0.00  0.00    +0.013 A 
ATOM      7  C   UNL     1      -6.825  -5.674   4.019  0.00  0.00    +0.042 A 
ATOM      8  C   UNL     1      -6.550  -4.573   3.075  0.00  0.00    +0.248 C 
ATOM      9  O   UNL     1      -7.250  -4.282   2.125  0.00  0.00    -0.270 OA
ATOM     10  N   UNL     1      -5.413  -3.941   3.415  0.00  0.00    -0.278 N 
ENDROOT
BRANCH   1  12
ATOM     11  C   UNL     1      -3.747  -3.391   6.590  0.00  0.00    +0.053 A 
ATOM     12  C   UNL     1      -4.790  -3.578   5.744  0.00  0.00    +0.010 A 
ATOM     13  C   UNL     1      -5.833  -2.632   6.136  0.00  0.00    +0.006 A 
ATOM     14  C   UNL     1      -7.116  -2.353   5.658  0.00  0.00    +0.010 A 
ATOM     15  C   UNL     1      -7.867  -1.382   6.256  0.00  0.00    +0.001 A 
ATOM     16  C   UNL     1      -7.365  -0.668   7.336  0.00  0.00    +0.002 A 
ATOM     17  C   UNL     1      -6.103  -0.926   7.824  0.00  0.00    +0.026 A 
ATOM     18  C   UNL     1      -5.320  -1.911   7.231  0.00  0.00    +0.047 A 
ATOM     19  N   UNL     1      -4.053  -2.389   7.483  0.00  0.00    -0.354 N 
ATOM     20  H   UNL     1      -3.466  -2.071   8.187  0.00  0.00    +0.166 HD
BRANCH  11  24
ATOM     21  C   UNL     1      -0.094  -5.556   6.496  0.00  0.00    +0.000 A 
ATOM     22  C   UNL     1      -0.075  -4.181   6.643  0.00  0.00    +0.001 A 
ATOM     23  C   UNL     1      -1.258  -3.472   6.674  0.00  0.00    +0.010 A 
ATOM     24  C   UNL     1      -2.475  -4.145   6.558  0.00  0.00    -0.001 A 
ATOM     25  C   UNL     1      -2.487  -5.533   6.416  0.00  0.00    +0.010 A 
ATOM     26  C   UNL     1      -1.297  -6.230   6.380  0.00  0.00    +0.001 A 
ENDBRANCH  11  24
ENDBRANCH   1  12
BRANCH  10  27
ATOM     27  C   UNL     1      -4.827  -2.801   2.706  0.00  0.00    +0.204 C 
BRANCH  27  28
ATOM     28  C   UNL     1      -3.878  -3.303   1.648  0.00  0.00    +0.233 C 
ATOM     29  O   UNL     1      -3.708  -4.494   1.500  0.00  0.00    -0.274 OA
ATOM     30  N   UNL     1      -3.217  -2.426   0.865  0.00  0.00    -0.297 N 
ATOM     31  C   UNL     1      -2.287  -2.894  -0.173  0.00  0.00    +0.126 C 
ATOM     32  C   UNL     1      -0.954  -2.158   0.000  0.00  0.00    +0.125 C 
ATOM     33  N   UNL     1      -1.196  -0.709   0.010  0.00  0.00    -0.314 N 
ATOM     34  C   UNL     1      -2.030  -0.316   1.153  0.00  0.00    +0.125 C 
ATOM     35  C   UNL     1      -3.407  -0.977   1.028  0.00  0.00    +0.126 C 
BRANCH  33  36
ATOM     36  C   UNL     1       0.002  -0.004   0.002  0.00  0.00    +0.099 A 
ATOM     37  C   UNL     1      -0.017   1.387   0.010  0.00  0.00    +0.042 A 
ATOM     38  C   UNL     1       1.182   2.076   0.002  0.00  0.00    +0.005 A 
ATOM     39  C   UNL     1       2.365   1.348  -0.013  0.00  0.00    +0.018 A 
ATOM     40  C   UNL     1       2.310  -0.031  -0.020  0.00  0.00    +0.084 A 
ATOM     41  N   UNL     1       1.150  -0.741  -0.013  0.00  0.00    -0.350 N 
ATOM     42  H   UNL     1       1.139  -1.768  -0.018  0.00  0.00    +0.166 HD
ENDBRANCH  33  36
ENDBRANCH  27  28
ENDBRANCH  10  27
TORSDOF 5
