REMARK  Name = ZINC64539548
REMARK  6 active torsions:
REMARK  status: ('A' for Active; 'I' for Inactive)
REMARK    1  A    between atoms: C_6  and  C_7
REMARK    2  A    between atoms: C_7  and  N_8
REMARK    3  A    between atoms: C_15  and  C_17
REMARK    4  A    between atoms: N_19  and  C_20
REMARK    5  A    between atoms: C_20  and  C_21
REMARK    6  A    between atoms: C_21  and  C_22
REMARK                            x       y       z     vdW  Elec       q    Type
REMARK                         _______ _______ _______ _____ _____    ______ ____
ROOT
ATOM      1  N   UNL     1      -1.726  -1.017  -1.368  0.00  0.00    -0.292 N 
ATOM      2  C   UNL     1      -2.580  -0.058  -2.051  0.00  0.00    +0.110 C 
ATOM      3  C   UNL     1      -1.808   0.943  -2.909  0.00  0.00    +0.042 C 
ATOM      4  C   UNL     1      -0.728   0.212  -3.716  0.00  0.00    +0.146 C 
ATOM      5  N   UNL     1      -1.268  -1.037  -4.260  0.00  0.00    -0.258 N 
ATOM      6  C   UNL     1      -1.559  -2.130  -3.485  0.00  0.00    +0.124 A 
ATOM      7  C   UNL     1      -2.045  -3.099  -4.298  0.00  0.00    +0.067 A 
ATOM      8  C   UNL     1      -2.025  -2.533  -5.593  0.00  0.00    +0.148 A 
ATOM      9  N   UNL     1      -1.547  -1.305  -5.483  0.00  0.00    -0.166 NA
ATOM     10  C   UNL     1      -1.331  -2.135  -2.025  0.00  0.00    +0.265 C 
ATOM     11  O   UNL     1      -0.826  -3.081  -1.452  0.00  0.00    -0.268 OA
ENDROOT
BRANCH   8  12
ATOM     12  C   UNL     1      -2.458  -3.193  -6.841  0.00  0.00    +0.264 C 
ATOM     13  O   UNL     1      -2.883  -4.332  -6.811  0.00  0.00    -0.268 OA
ATOM     14  N   UNL     1      -2.384  -2.532  -8.014  0.00  0.00    -0.310 N 
ATOM     15  H   UNL     1      -2.046  -1.624  -8.038  0.00  0.00    +0.149 HD
BRANCH  14  16
ATOM     16  C   UNL     1      -2.814  -3.187  -9.252  0.00  0.00    +0.109 C 
BRANCH  16  17
ATOM     17  C   UNL     1      -2.627  -2.226 -10.428  0.00  0.00    +0.052 C 
BRANCH  17  18
ATOM     18  C   UNL     1      -3.070  -2.900 -11.702  0.00  0.00    -0.040 C 
ATOM     19  C   UNL     1      -4.283  -2.805 -12.292  0.00  0.00    +0.000 A 
ATOM     20  C   UNL     1      -5.507  -2.076 -11.938  0.00  0.00    +0.030 A 
ATOM     21  C   UNL     1      -6.589  -2.180 -12.745  0.00  0.00    +0.042 A 
ATOM     22  C   UNL     1      -6.569  -2.966 -13.907  0.00  0.00    +0.022 A 
ATOM     23  C   UNL     1      -5.482  -3.664 -14.297  0.00  0.00    +0.027 A 
ATOM     24  C   UNL     1      -4.288  -3.627 -13.524  0.00  0.00    +0.043 A 
ATOM     25  N   UNL     1      -3.124  -4.206 -13.688  0.00  0.00    -0.380 N 
ATOM     26  C   UNL     1      -2.245  -3.812 -12.582  0.00  0.00    +0.144 C 
ATOM     27 CL   UNL     1      -8.038  -1.320 -12.330  0.00  0.00    -0.084 Cl
ATOM     28  H   UNL     1      -2.883  -4.794 -14.421  0.00  0.00    +0.160 HD
ENDBRANCH  17  18
ENDBRANCH  16  17
ENDBRANCH  14  16
ENDBRANCH   8  12
BRANCH   1  29
ATOM     29  C   UNL     1      -1.293  -0.775   0.010  0.00  0.00    +0.143 C 
BRANCH  29  35
ATOM     30  C   UNL     1      -0.017   1.378   0.010  0.00  0.00    +0.008 A 
ATOM     31  C   UNL     1       1.170   2.086   0.002  0.00  0.00    +0.038 A 
ATOM     32  C   UNL     1       2.379   1.410  -0.013  0.00  0.00    +0.123 A 
ATOM     33  C   UNL     1       2.396   0.026  -0.021  0.00  0.00    +0.038 A 
ATOM     34  C   UNL     1       1.208  -0.680  -0.013  0.00  0.00    +0.008 A 
ATOM     35  C   UNL     1       0.002  -0.004   0.002  0.00  0.00    -0.030 A 
ATOM     36  F   UNL     1       3.540   2.101  -0.021  0.00  0.00    -0.205 F 
ENDBRANCH  29  35
ENDBRANCH   1  29
TORSDOF 6
