REMARK  Name = ZINC08890424
REMARK  4 active torsions:
REMARK  status: ('A' for Active; 'I' for Inactive)
REMARK    1  A    between atoms: C_1  and  C_2
REMARK    2  A    between atoms: C_5  and  C_28
REMARK    3  A    between atoms: C_10  and  C_12
REMARK    4  A    between atoms: C_12  and  N_13
REMARK                            x       y       z     vdW  Elec       q    Type
REMARK                         _______ _______ _______ _____ _____    ______ ____
ROOT
ATOM      1  N   UNL     1       4.134  -3.125   1.580  0.00  0.00    -0.215 N 
ATOM      2  C   UNL     1       4.585  -3.626   2.751  0.00  0.00    +0.251 C 
ATOM      3  O   UNL     1       4.229  -3.319   3.869  0.00  0.00    -0.272 OA
ATOM      4  C   UNL     1       5.624  -4.649   2.371  0.00  0.00    +0.138 C 
ATOM      5  C   UNL     1       5.250  -6.041   2.893  0.00  0.00    +0.045 C 
ATOM      6  C   UNL     1       6.043  -6.116   4.218  0.00  0.00    +0.038 C 
ATOM      7  C   UNL     1       7.212  -5.171   4.035  0.00  0.00    -0.042 A 
ATOM      8  C   UNL     1       6.967  -4.323   2.967  0.00  0.00    -0.012 A 
ATOM      9  C   UNL     1       7.908  -3.369   2.618  0.00  0.00    +0.006 A 
ATOM     10  C   UNL     1       9.088  -3.261   3.329  0.00  0.00    +0.000 A 
ATOM     11  C   UNL     1       9.331  -4.107   4.394  0.00  0.00    +0.000 A 
ATOM     12  C   UNL     1       8.395  -5.060   4.745  0.00  0.00    +0.004 A 
ATOM     13  N   UNL     1       5.655  -4.617   0.909  0.00  0.00    -0.281 N 
ATOM     14  C   UNL     1       4.743  -3.697   0.533  0.00  0.00    +0.310 C 
ATOM     15  O   UNL     1       4.503  -3.416  -0.625  0.00  0.00    -0.252 OA
ATOM     16  H   UNL     1       6.216  -5.152   0.326  0.00  0.00    +0.152 HD
ENDROOT
BRANCH   1  17
ATOM     17  C   UNL     1       3.103  -2.090   1.470  0.00  0.00    +0.213 C 
BRANCH  17  25
ATOM     18  C   UNL     1      -0.019   1.526   0.010  0.00  0.00    +0.009 C 
ATOM     19  C   UNL     1       0.002  -0.004   0.002  0.00  0.00    +0.004 C 
ATOM     20  C   UNL     1      -1.433  -0.534   0.015  0.00  0.00    +0.009 C 
ATOM     21  C   UNL     1      -1.414  -2.064  -0.027  0.00  0.00    +0.004 C 
ATOM     22  C   UNL     1      -0.692  -2.596   1.215  0.00  0.00    +0.111 C 
ATOM     23  N   UNL     1       0.639  -1.977   1.288  0.00  0.00    -0.300 N 
ATOM     24  C   UNL     1       0.742  -0.512   1.244  0.00  0.00    +0.111 C 
ATOM     25  C   UNL     1       1.746  -2.740   1.395  0.00  0.00    +0.234 C 
ATOM     26  O   UNL     1       1.648  -3.948   1.431  0.00  0.00    -0.274 OA
ATOM     27  C   UNL     1      -2.850  -2.592  -0.049  0.00  0.00    +0.009 C 
ENDBRANCH  17  25
ENDBRANCH   1  17
TORSDOF 2
