REMARK  Name = ZINC41914860
REMARK  6 active torsions:
REMARK  status: ('A' for Active; 'I' for Inactive)
REMARK    1  A    between atoms: C_1  and  C_2
REMARK    2  A    between atoms: C_6  and  C_19
REMARK    3  A    between atoms: C_8  and  C_10
REMARK    4  A    between atoms: C_8  and  N_13
REMARK    5  A    between atoms: C_19  and  C_20
REMARK    6  A    between atoms: C_19  and  C_21
REMARK                            x       y       z     vdW  Elec       q    Type
REMARK                         _______ _______ _______ _____ _____    ______ ____
ROOT
ATOM      1  C   UNL     1      -1.656   0.792  -0.926  0.00  0.00    +0.007 C 
ATOM      2  C   UNL     1      -1.084  -0.568  -0.519  0.00  0.00    -0.012 C 
ATOM      3  C   UNL     1      -2.224  -1.489  -0.078  0.00  0.00    +0.004 C 
ATOM      4  C   UNL     1      -1.652  -2.848   0.329  0.00  0.00    +0.007 C 
ATOM      5  C   UNL     1      -0.670  -2.662   1.487  0.00  0.00    +0.026 C 
ATOM      6  C   UNL     1       0.470  -1.741   1.047  0.00  0.00    +0.142 C 
ATOM      7  C   UNL     1      -0.102  -0.382   0.640  0.00  0.00    +0.041 C 
ENDROOT
BRANCH   6   8
ATOM      8  N   UNL     1       1.168  -2.339  -0.094  0.00  0.00    -0.275 N 
ATOM      9  C   UNL     1       1.348  -1.576  -1.315  0.00  0.00    +0.121 C 
ATOM     10  C   UNL     1       2.502  -2.154  -2.177  0.00  0.00    +0.098 C 
ATOM     11  S   UNL     1       2.473  -3.891  -1.562  0.00  0.00    -0.066 S 
ATOM     12  C   UNL     1       1.647  -3.595  -0.008  0.00  0.00    +0.275 C 
ATOM     13  O   UNL     1       1.539  -4.364   0.928  0.00  0.00    -0.263 OA
ENDBRANCH   6   8
BRANCH   6  14
ATOM     14  C   UNL     1       1.437  -1.558   2.188  0.00  0.00    +0.379 C 
ATOM     15  O   UNL     1       2.621  -1.804   2.029  0.00  0.00    -0.244 OA
ATOM     16  O   UNL     1       1.036  -1.164   3.270  0.00  0.00    -0.244 OA
ENDBRANCH   6  14
BRANCH   5  17
ATOM     17  C   UNL     1      -1.399  -2.038   2.679  0.00  0.00    -0.012 C 
ATOM     18  C   UNL     1      -1.297  -0.513   2.597  0.00  0.00    +0.007 C 
ATOM     19  C   UNL     1      -2.871  -2.453   2.651  0.00  0.00    +0.007 C 
ENDBRANCH   5  17
TORSDOF 3
