REMARK  Name = ZINC27570613
REMARK  12 active torsions:
REMARK  status: ('A' for Active; 'I' for Inactive)
REMARK    1  A    between atoms: C_1  and  C_2
REMARK    2  A    between atoms: C_2  and  C_3
REMARK    3  A    between atoms: C_2  and  C_4
REMARK    4  A    between atoms: C_4  and  C_6
REMARK    5  A    between atoms: C_4  and  N_25
REMARK    6  A    between atoms: N_8  and  C_9
REMARK    7  A    between atoms: C_9  and  C_10
REMARK    8  A    between atoms: C_10  and  C_12
REMARK    9  A    between atoms: C_10  and  N_20
REMARK   10  A    between atoms: C_17  and  O_18
REMARK   11  A    between atoms: O_18  and  C_19
REMARK   12  A    between atoms: C_26  and  C_28
REMARK                            x       y       z     vdW  Elec       q    Type
REMARK                         _______ _______ _______ _____ _____    ______ ____
ROOT
ATOM      1  C   UNL     1      -2.413   1.080   0.796  0.00  0.00    +0.234 C 
ATOM      2  O   UNL     1      -2.132   0.122   1.484  0.00  0.00    -0.274 OA
ATOM      3  N   UNL     1      -3.702   1.348   0.508  0.00  0.00    -0.315 N 
ATOM      4  H   UNL     1      -3.963   2.263  -0.044  0.00  0.00    +0.149 HD
ENDROOT
BRANCH   1   5
ATOM      5  C   UNL     1      -1.321   1.971   0.263  0.00  0.00    +0.162 C 
BRANCH   5   6
ATOM      6  N   UNL     1      -0.054   1.636   0.917  0.00  0.00    -0.300 N 
ATOM      7  C   UNL     1       0.925   2.558   1.003  0.00  0.00    +0.250 C 
ATOM      8  O   UNL     1       0.755   3.670   0.542  0.00  0.00    -0.270 OA
ATOM      9  H   UNL     1       0.099   0.631   1.337  0.00  0.00    +0.150 HD
BRANCH   7  10
ATOM     10  C   UNL     1       2.204   2.218   1.657  0.00  0.00    +0.107 A 
ATOM     11  C   UNL     1       3.255   1.679   0.908  0.00  0.00    +0.138 A 
ATOM     12  C   UNL     1       4.451   1.369   1.527  0.00  0.00    +0.039 A 
ATOM     13  C   UNL     1       4.606   1.579   2.885  0.00  0.00    +0.006 A 
ATOM     14  C   UNL     1       3.570   2.106   3.634  0.00  0.00    +0.039 A 
ATOM     15  C   UNL     1       2.369   2.428   3.030  0.00  0.00    +0.138 A 
ATOM     16  F   UNL     1       1.358   2.943   3.763  0.00  0.00    -0.205 F 
ATOM     17  F   UNL     1       3.104   1.468  -0.418  0.00  0.00    -0.205 F 
ENDBRANCH   7  10
ENDBRANCH   5   6
BRANCH   5  19
ATOM     18  C   UNL     1      -0.165   2.757  -1.809  0.00  0.00    +0.009 C 
ATOM     19  C   UNL     1      -1.185   1.764  -1.248  0.00  0.00    +0.012 C 
ATOM     20  C   UNL     1      -0.714   0.336  -1.526  0.00  0.00    +0.009 C 
ENDBRANCH   5  19
ENDBRANCH   1   5
BRANCH   3  21
ATOM     21  C   UNL     1      -4.755   0.420   0.929  0.00  0.00    +0.093 C 
BRANCH  21  22
ATOM     22  C   UNL     1      -6.101   0.894   0.378  0.00  0.00    -0.017 C 
BRANCH  22  23
ATOM     23  C   UNL     1      -7.194  -0.020   0.870  0.00  0.00    -0.018 A 
ATOM     24  C   UNL     1      -7.874   0.279   2.035  0.00  0.00    +0.005 A 
ATOM     25  C   UNL     1      -8.880  -0.556   2.484  0.00  0.00    +0.000 A 
ATOM     26  C   UNL     1      -9.201  -1.699   1.775  0.00  0.00    +0.004 A 
ATOM     27  C   UNL     1      -8.520  -2.006   0.612  0.00  0.00    +0.046 A 
ATOM     28  C   UNL     1      -7.514  -1.166   0.157  0.00  0.00    +0.122 A 
BRANCH  28  29
ATOM     29  O   UNL     1      -6.843  -1.466  -0.987  0.00  0.00    -0.495 OA
ATOM     30  C   UNL     1      -7.226  -2.661  -1.669  0.00  0.00    +0.277 C 
ENDBRANCH  28  29
ENDBRANCH  22  23
BRANCH  22  31
ATOM     31  N   UNL     1      -6.365   2.264   0.839  0.00  0.00    +0.385 N 
ATOM     32  C   UNL     1      -7.805   2.602   0.707  0.00  0.00    -0.078 C 
ATOM     33  C   UNL     1      -7.980   3.793   1.683  0.00  0.00    -0.020 C 
ATOM     34  C   UNL     1      -7.058   3.411   2.863  0.00  0.00    -0.020 C 
ATOM     35  C   UNL     1      -6.046   2.410   2.276  0.00  0.00    -0.078 C 
ATOM     36  H   UNL     1      -5.733   2.915   0.218  0.00  0.00    -0.081 HD
ENDBRANCH  22  31
ENDBRANCH  21  22
ENDBRANCH   3  21
TORSDOF 9
