REMARK  Name = ZINC39609681
REMARK  4 active torsions:
REMARK  status: ('A' for Active; 'I' for Inactive)
REMARK    1  A    between atoms: C_6  and  C_7
REMARK    2  A    between atoms: C_7  and  N_8
REMARK    3  A    between atoms: C_9  and  C_11
REMARK    4  A    between atoms: C_22  and  C_24
REMARK                            x       y       z     vdW  Elec       q    Type
REMARK                         _______ _______ _______ _____ _____    ______ ____
ROOT
ATOM      1  C   UNL     1      -3.301  -1.908  -3.716  0.00  0.00    +0.100 C 
ATOM      2  C   UNL     1      -2.096  -2.767  -4.162  0.00  0.00    +0.121 C 
ATOM      3  N   UNL     1      -2.543  -4.167  -3.972  0.00  0.00    -0.296 N 
ATOM      4  C   UNL     1      -3.961  -4.163  -4.405  0.00  0.00    +0.115 C 
ATOM      5  C   UNL     1      -4.523  -2.827  -3.880  0.00  0.00    -0.004 C 
ATOM      6  C   UNL     1      -5.500  -2.232  -4.890  0.00  0.00    -0.010 C 
ATOM      7  C   UNL     1      -6.734  -3.134  -4.992  0.00  0.00    -0.082 C 
ATOM      8  N   UNL     1      -7.370  -3.248  -3.675  0.00  0.00    +0.379 N 
ATOM      9  C   UNL     1      -6.456  -3.906  -2.733  0.00  0.00    -0.082 C 
ATOM     10  C   UNL     1      -5.211  -3.037  -2.535  0.00  0.00    -0.010 C 
ATOM     11  C   UNL     1      -1.823  -5.208  -3.509  0.00  0.00    +0.247 C 
ATOM     12  O   UNL     1      -0.703  -5.026  -3.074  0.00  0.00    -0.270 OA
ATOM     13  H   UNL     1      -7.598  -2.326  -3.332  0.00  0.00    -0.086 HD
ATOM     14  H   UNL     1      -8.216  -3.792  -3.756  0.00  0.00    -0.086 HD
ENDROOT
BRANCH  11  15
ATOM     15  C   UNL     1      -2.395  -6.571  -3.532  0.00  0.00    +0.040 A 
ATOM     16  C   UNL     1      -3.452  -6.873  -4.393  0.00  0.00    +0.033 A 
ATOM     17  C   UNL     1      -3.982  -8.147  -4.409  0.00  0.00    +0.043 A 
ATOM     18  C   UNL     1      -3.468  -9.125  -3.575  0.00  0.00    +0.040 A 
ATOM     19  C   UNL     1      -2.420  -8.832  -2.719  0.00  0.00    +0.043 A 
ATOM     20  C   UNL     1      -1.877  -7.562  -2.697  0.00  0.00    +0.033 A 
ATOM     21 CL   UNL     1      -1.783 -10.064  -1.675  0.00  0.00    -0.083 Cl
ATOM     22 CL   UNL     1      -5.297  -8.525  -5.479  0.00  0.00    -0.083 Cl
ENDBRANCH  11  15
BRANCH   1  24
ATOM     23  N   UNL     1      -3.781  -0.397  -1.817  0.00  0.00    -0.311 N 
ATOM     24  C   UNL     1      -3.145  -1.494  -2.276  0.00  0.00    +0.218 C 
ATOM     25  O   UNL     1      -2.449  -2.148  -1.529  0.00  0.00    -0.275 OA
ATOM     26  H   UNL     1      -4.338   0.126  -2.415  0.00  0.00    +0.149 HD
BRANCH  23  27
ATOM     27  C   UNL     1      -3.629   0.005  -0.417  0.00  0.00    +0.139 C 
BRANCH  27  33
ATOM     28  C   UNL     1      -5.751   1.153   0.249  0.00  0.00    +0.007 A 
ATOM     29  C   UNL     1      -6.492   2.297   0.483  0.00  0.00    +0.022 A 
ATOM     30  C   UNL     1      -5.916   3.542   0.305  0.00  0.00    +0.059 A 
ATOM     31  C   UNL     1      -4.598   3.642  -0.108  0.00  0.00    +0.060 A 
ATOM     32  C   UNL     1      -3.858   2.496  -0.341  0.00  0.00    +0.026 A 
ATOM     33  C   UNL     1      -4.435   1.253  -0.163  0.00  0.00    -0.029 A 
ATOM     34 CL   UNL     1      -3.874   5.203  -0.332  0.00  0.00    -0.082 Cl
ATOM     35 CL   UNL     1      -6.845   4.979   0.598  0.00  0.00    -0.082 Cl
ENDBRANCH  27  33
ENDBRANCH  23  27
ENDBRANCH   1  24
TORSDOF 4
