REMARK  Name = ZINC35668305
REMARK  11 active torsions:
REMARK  status: ('A' for Active; 'I' for Inactive)
REMARK    1  A    between atoms: C_1  and  C_2
REMARK    2  A    between atoms: C_2  and  O_3
REMARK    3  A    between atoms: O_3  and  C_4
REMARK    4  A    between atoms: C_6  and  C_16
REMARK    5  A    between atoms: C_9  and  O_10
REMARK    6  A    between atoms: O_10  and  C_11
REMARK    7  A    between atoms: C_11  and  C_12
REMARK    8  A    between atoms: C_12  and  C_14
REMARK    9  A    between atoms: CA_17  and  C_18
REMARK   10  A    between atoms: CA_17  and  N_21
REMARK   11  A    between atoms: C_22  and  C_24
REMARK                            x       y       z     vdW  Elec       q    Type
REMARK                         _______ _______ _______ _____ _____    ______ ____
ROOT
ATOM      1  C   UNL     1      -1.425  -1.808   0.285  0.00  0.00    +0.164 A 
ATOM      2  C   UNL     1      -0.328  -2.648   0.265  0.00  0.00    +0.057 A 
ATOM      3  C   UNL     1      -0.508  -4.024   0.079  0.00  0.00    -0.018 A 
ATOM      4  C   UNL     1      -1.798  -4.541  -0.086  0.00  0.00    +0.026 A 
ATOM      5  C   UNL     1      -2.886  -3.696  -0.065  0.00  0.00    +0.059 A 
ATOM      6  C   UNL     1      -2.707  -2.332   0.126  0.00  0.00    +0.175 A 
ATOM      7  I   UNL     1      -4.817  -4.471  -0.312  0.00  0.00    -0.040 I 
ENDROOT
BRANCH   3   8
ATOM      8  C   UNL     1       0.654  -4.922   0.056  0.00  0.00    +0.038 C 
ATOM      9  CA  UNL     1       0.579  -6.143   0.642  0.00  0.00    +0.123 C 
BRANCH   9  10
ATOM     10  N   UNL     1       1.702  -6.979   0.665  0.00  0.00    -0.276 N 
ATOM     11  C   UNL     1       1.663  -8.142   1.347  0.00  0.00    +0.248 C 
ATOM     12  O   UNL     1       0.629  -8.502   1.875  0.00  0.00    -0.270 OA
ATOM     13  H   UNL     1       2.508  -6.721   0.192  0.00  0.00    +0.155 HD
BRANCH  11  14
ATOM     14  C   UNL     1       2.878  -8.978   1.451  0.00  0.00    +0.037 A 
ATOM     15  C   UNL     1       4.068  -8.564   0.850  0.00  0.00    +0.013 A 
ATOM     16  C   UNL     1       5.197  -9.349   0.951  0.00  0.00    +0.001 A 
ATOM     17  C   UNL     1       5.152 -10.545   1.646  0.00  0.00    +0.000 A 
ATOM     18  C   UNL     1       3.976 -10.961   2.244  0.00  0.00    +0.001 A 
ATOM     19  C   UNL     1       2.841 -10.182   2.155  0.00  0.00    +0.013 A 
ENDBRANCH  11  14
ENDBRANCH   9  10
BRANCH   9  20
ATOM     20  C   UNL     1      -0.676  -6.588   1.249  0.00  0.00    +0.400 C 
ATOM     21  O   UNL     1      -1.422  -7.339   0.633  0.00  0.00    -0.239 OA
ATOM     22  OXT UNL     1      -0.981  -6.208   2.373  0.00  0.00    -0.239 OA
ENDBRANCH   9  20
ENDBRANCH   3   8
BRANCH   1  23
ATOM     23  O   UNL     1      -1.254  -0.471   0.466  0.00  0.00    -0.489 OA
BRANCH  23  25
ATOM     24  C   UNL     1       0.080   1.514   0.812  0.00  0.00    +0.048 C 
ATOM     25  C   UNL     1       0.088  -0.004   0.622  0.00  0.00    +0.226 C 
ENDBRANCH  23  25
ENDBRANCH   1  23
BRANCH   6  26
ATOM     26  O   UNL     1      -3.784  -1.504   0.151  0.00  0.00    -0.483 OA
BRANCH  26  27
ATOM     27  C   UNL     1      -4.207  -0.950  -1.097  0.00  0.00    +0.259 C 
BRANCH  27  28
ATOM     28  C   UNL     1      -5.405  -0.065  -0.873  0.00  0.00    -0.043 C 
ATOM     29  C   UNL     1      -5.889   0.090   0.334  0.00  0.00    +0.011 C 
ATOM     30  C   UNL     1      -6.047   0.643  -2.038  0.00  0.00    +0.042 C 
ENDBRANCH  27  28
ENDBRANCH  26  27
ENDBRANCH   6  26
TORSDOF 9
