REMARK  Name = ZINC12624695
REMARK  12 active torsions:
REMARK  status: ('A' for Active; 'I' for Inactive)
REMARK    1  A    between atoms: C_1  and  C_2
REMARK    2  A    between atoms: C_2  and  C_3
REMARK    3  A    between atoms: C_3  and  C_4
REMARK    4  A    between atoms: C_7  and  C_10
REMARK    5  A    between atoms: C_10  and  C_12
REMARK    6  A    between atoms: C_12  and  C_37
REMARK    7  A    between atoms: C_13  and  C_29
REMARK    8  A    between atoms: C_19  and  C_21
REMARK    9  A    between atoms: C_24  and  O_27
REMARK   10  A    between atoms: O_27  and  C_28
REMARK   11  A    between atoms: C_32  and  O_35
REMARK   12  A    between atoms: O_35  and  C_36
REMARK                            x       y       z     vdW  Elec       q    Type
REMARK                         _______ _______ _______ _____ _____    ______ ____
ROOT
ATOM      1  C   UNL     1       0.571   8.485   1.929  0.00  0.00    +0.164 C 
ATOM      2  C   UNL     1       0.526   7.998   3.381  0.00  0.00    +0.132 C 
ATOM      3  N   UNL     1       1.518   8.735   4.166  0.00  0.00    -0.318 N 
ATOM      4  C   UNL     1       1.882   9.984   3.838  0.00  0.00    +0.131 C 
ATOM      5  S   UNL     1       3.040  10.785   4.811  0.00  0.00    -0.019 S 
ATOM      6  N   UNL     1       1.374  10.630   2.777  0.00  0.00    -0.318 N 
ATOM      7  C   UNL     1       0.371  10.005   1.914  0.00  0.00    +0.132 C 
ATOM      8  H   UNL     1       1.921   8.310   4.939  0.00  0.00    +0.148 HD
ATOM      9  H   UNL     1       1.678  11.529   2.579  0.00  0.00    +0.148 HD
ENDROOT
BRANCH   7  10
ATOM     10  C   UNL     1      -1.008  10.336   2.422  0.00  0.00    -0.025 A 
ATOM     11  C   UNL     1      -1.259  10.346   3.782  0.00  0.00    +0.009 A 
ATOM     12  C   UNL     1      -2.521  10.655   4.251  0.00  0.00    +0.046 A 
ATOM     13  C   UNL     1      -3.541  10.944   3.356  0.00  0.00    +0.120 A 
ATOM     14  C   UNL     1      -3.288  10.928   1.992  0.00  0.00    +0.046 A 
ATOM     15  C   UNL     1      -2.023  10.624   1.528  0.00  0.00    +0.009 A 
BRANCH  13  16
ATOM     16  O   UNL     1      -4.785  11.242   3.814  0.00  0.00    -0.495 OA
ATOM     17  C   UNL     1      -4.972  11.240   5.231  0.00  0.00    +0.277 C 
ENDBRANCH  13  16
ENDBRANCH   7  10
BRANCH   2  18
ATOM     18  C   UNL     1       0.836   6.524   3.427  0.00  0.00    -0.025 A 
ATOM     19  C   UNL     1       2.142   6.088   3.297  0.00  0.00    +0.009 A 
ATOM     20  C   UNL     1       2.429   4.738   3.345  0.00  0.00    +0.046 A 
ATOM     21  C   UNL     1       1.404   3.818   3.512  0.00  0.00    +0.120 A 
ATOM     22  C   UNL     1       0.094   4.257   3.636  0.00  0.00    +0.046 A 
ATOM     23  C   UNL     1      -0.187   5.609   3.594  0.00  0.00    +0.009 A 
BRANCH  21  24
ATOM     24  O   UNL     1       1.683   2.488   3.553  0.00  0.00    -0.495 OA
ATOM     25  C   UNL     1       3.054   2.109   3.418  0.00  0.00    +0.277 C 
ENDBRANCH  21  24
ENDBRANCH   2  18
BRANCH   1  26
ATOM     26  C   UNL     1      -0.527   7.822   1.138  0.00  0.00    +0.187 C 
ATOM     27  O   UNL     1      -1.332   7.110   1.698  0.00  0.00    -0.290 OA
BRANCH  26  31
ATOM     28  C   UNL     1      -0.801   8.449  -3.048  0.00  0.00    -0.047 A 
ATOM     29  C   UNL     1       0.210   9.059  -2.325  0.00  0.00    +0.004 A 
ATOM     30  C   UNL     1       0.302   8.864  -0.964  0.00  0.00    +0.012 A 
ATOM     31  C   UNL     1      -0.622   8.040  -0.314  0.00  0.00    +0.019 A 
ATOM     32  C   UNL     1      -1.638   7.423  -1.052  0.00  0.00    +0.012 A 
ATOM     33  C   UNL     1      -1.720   7.632  -2.413  0.00  0.00    +0.004 A 
BRANCH  28  34
ATOM     34  C   UNL     1      -0.898   8.672  -4.535  0.00  0.00    +0.035 C 
BRANCH  34  36
ATOM     35  C   UNL     1      -1.887  10.111  -6.322  0.00  0.00    +0.004 C 
ATOM     36  C   UNL     1      -1.788   9.885  -4.812  0.00  0.00    +0.001 C 
ENDBRANCH  34  36
ENDBRANCH  28  34
ENDBRANCH  26  31
ENDBRANCH   1  26
BRANCH   1  37
ATOM     37  C   UNL     1       1.877   8.153   1.336  0.00  0.00    +0.082 C 
ATOM     38  N   UNL     1       2.885   7.896   0.879  0.00  0.00    -0.195 NA
ENDBRANCH   1  37
TORSDOF 9
