REMARK  Name = ZINC39424958
REMARK  10 active torsions:
REMARK  status: ('A' for Active; 'I' for Inactive)
REMARK    1  A    between atoms: C_1  and  C_2
REMARK    2  A    between atoms: C_2  and  C_4
REMARK    3  A    between atoms: C_2  and  N_28
REMARK    4  A    between atoms: C_7  and  S_16
REMARK    5  A    between atoms: N_8  and  C_9
REMARK    6  A    between atoms: S_16  and  C_17
REMARK    7  A    between atoms: C_17  and  C_19
REMARK    8  A    between atoms: C_17  and  C_22
REMARK    9  A    between atoms: C_19  and  C_20
REMARK   10  A    between atoms: C_19  and  C_21
REMARK                            x       y       z     vdW  Elec       q    Type
REMARK                         _______ _______ _______ _____ _____    ______ ____
ROOT
ATOM      1  C   UNL     1       0.701  -0.310  -1.350  0.00  0.00    +0.125 A 
ATOM      2  N   UNL     1       0.371  -0.104  -2.594  0.00  0.00    -0.135 NA
ATOM      3  N   UNL     1       1.208  -0.687  -3.376  0.00  0.00    -0.122 NA
ATOM      4  C   UNL     1       2.126  -1.303  -2.669  0.00  0.00    +0.197 A 
ATOM      5  N   UNL     1       1.835  -1.077  -1.352  0.00  0.00    -0.275 N 
ENDROOT
BRANCH   5   6
ATOM      6  C   UNL     1       2.549  -1.538  -0.235  0.00  0.00    +0.050 A 
ATOM      7  C   UNL     1       3.175  -0.633   0.612  0.00  0.00    +0.029 A 
ATOM      8  C   UNL     1       3.877  -1.089   1.711  0.00  0.00    +0.040 A 
ATOM      9  C   UNL     1       3.956  -2.447   1.968  0.00  0.00    +0.124 A 
ATOM     10  C   UNL     1       3.332  -3.351   1.125  0.00  0.00    +0.040 A 
ATOM     11  C   UNL     1       2.624  -2.899   0.029  0.00  0.00    +0.029 A 
ATOM     12  F   UNL     1       4.644  -2.891   3.043  0.00  0.00    -0.205 F 
ENDBRANCH   5   6
BRANCH   1  14
ATOM     13  C   UNL     1       0.256   1.700   0.032  0.00  0.00    -0.005 C 
ATOM     14  C   UNL     1      -0.027   0.206  -0.136  0.00  0.00    -0.002 C 
BRANCH  14  15
ATOM     15  N   UNL     1      -1.471  -0.003  -0.305  0.00  0.00    +0.386 N 
ATOM     16  C   UNL     1      -2.180   0.508   0.875  0.00  0.00    -0.078 C 
ATOM     17  C   UNL     1      -3.689   0.366   0.669  0.00  0.00    -0.019 C 
ATOM     18  C   UNL     1      -4.035  -1.111   0.464  0.00  0.00    -0.004 C 
ATOM     19  C   UNL     1      -3.234  -1.653  -0.723  0.00  0.00    -0.019 C 
ATOM     20  C   UNL     1      -1.741  -1.437  -0.466  0.00  0.00    -0.078 C 
ATOM     21  H   UNL     1      -1.788   0.492  -1.125  0.00  0.00    -0.081 HD
ENDBRANCH  14  15
ENDBRANCH   1  14
BRANCH   4  22
ATOM     22  S   UNL     1       3.481  -2.238  -3.298  0.00  0.00    -0.073 S 
BRANCH  22  23
ATOM     23  C   UNL     1       3.199  -2.268  -5.089  0.00  0.00    +0.143 C 
BRANCH  23  24
ATOM     24  C   UNL     1       1.960  -3.070  -5.390  0.00  0.00    +0.234 C 
ATOM     25  O   UNL     1       1.535  -3.859  -4.573  0.00  0.00    -0.274 OA
ATOM     26  N   UNL     1       1.322  -2.911  -6.567  0.00  0.00    -0.239 N 
ATOM     27  C   UNL     1       0.213  -3.628  -6.835  0.00  0.00    +0.303 C 
ATOM     28  O   UNL     1      -0.212  -4.419  -6.016  0.00  0.00    -0.253 OA
ATOM     29  N   UNL     1      -0.424  -3.469  -8.012  0.00  0.00    -0.313 N 
ATOM     30  H   UNL     1       1.662  -2.280  -7.220  0.00  0.00    +0.159 HD
ATOM     31  H   UNL     1      -0.084  -2.837  -8.666  0.00  0.00    +0.146 HD
ATOM     32  H   UNL     1      -1.222  -3.985  -8.206  0.00  0.00    +0.146 HD
ENDBRANCH  23  24
BRANCH  23  33
ATOM     33  C   UNL     1       4.402  -2.909  -5.784  0.00  0.00    +0.005 C 
ATOM     34  C   UNL     1       5.635  -2.025  -5.588  0.00  0.00    +0.009 C 
ATOM     35  C   UNL     1       4.664  -4.290  -5.179  0.00  0.00    +0.009 C 
ENDBRANCH  23  33
ENDBRANCH  22  23
ENDBRANCH   4  22
TORSDOF 7
