REMARK  Name = ZINC56157337
REMARK  8 active torsions:
REMARK  status: ('A' for Active; 'I' for Inactive)
REMARK    1  A    between atoms: C_1  and  C_2
REMARK    2  A    between atoms: C_2  and  C_4
REMARK    3  A    between atoms: C_2  and  N_15
REMARK    4  A    between atoms: N_6  and  C_7
REMARK    5  A    between atoms: C_10  and  S_13
REMARK    6  A    between atoms: S_13  and  C_14
REMARK    7  A    between atoms: N_15  and  C_16
REMARK    8  A    between atoms: C_20  and  N_22
REMARK                            x       y       z     vdW  Elec       q    Type
REMARK                         _______ _______ _______ _____ _____    ______ ____
ROOT
ATOM      1  N   UNL     1      -1.512  -0.553  -0.494  0.00  0.00    -0.333 N 
ATOM      2  H   UNL     1      -2.002  -0.787  -1.297  0.00  0.00    +0.147 HD
ENDROOT
BRANCH   1   3
ATOM      3  C   UNL     1      -2.127  -0.657   0.756  0.00  0.00    +0.029 A 
ATOM      4  C   UNL     1      -1.426  -0.317   1.907  0.00  0.00    +0.023 A 
ATOM      5  C   UNL     1      -2.034  -0.419   3.143  0.00  0.00    +0.004 A 
ATOM      6  C   UNL     1      -3.341  -0.860   3.239  0.00  0.00    +0.024 A 
ATOM      7  C   UNL     1      -4.046  -1.202   2.092  0.00  0.00    +0.040 A 
ATOM      8  C   UNL     1      -3.440  -1.094   0.849  0.00  0.00    +0.046 A 
BRANCH   7   9
ATOM      9  N   UNL     1      -5.369  -1.648   2.191  0.00  0.00    -0.254 N 
ATOM     10  C   UNL     1      -6.165  -1.686   3.427  0.00  0.00    +0.134 C 
ATOM     11  C   UNL     1      -7.524  -2.254   2.973  0.00  0.00    +0.125 C 
ATOM     12  N   UNL     1      -7.349  -2.475   1.530  0.00  0.00    -0.297 N 
ATOM     13  C   UNL     1      -6.112  -2.103   1.174  0.00  0.00    +0.307 C 
ATOM     14  O   UNL     1      -5.701  -2.176   0.033  0.00  0.00    -0.252 OA
ATOM     15  H   UNL     1      -8.023  -2.831   0.930  0.00  0.00    +0.150 HD
ENDBRANCH   7   9
ENDBRANCH   1   3
BRANCH   1  17
ATOM     16  C   UNL     1      -0.097   1.438  -0.614  0.00  0.00    +0.038 C 
ATOM     17  C   UNL     1      -0.124  -0.091  -0.591  0.00  0.00    +0.154 C 
BRANCH  17  18
ATOM     18  C   UNL     1       0.494  -0.624  -1.858  0.00  0.00    +0.237 C 
ATOM     19  O   UNL     1      -0.159  -1.321  -2.606  0.00  0.00    -0.273 OA
ATOM     20  N   UNL     1       1.774  -0.326  -2.160  0.00  0.00    -0.284 N 
ATOM     21  H   UNL     1       2.276   0.283  -1.596  0.00  0.00    +0.155 HD
BRANCH  20  22
ATOM     22  C   UNL     1       2.378  -0.896  -3.289  0.00  0.00    +0.034 A 
ATOM     23  C   UNL     1       3.724  -1.235  -3.258  0.00  0.00    +0.024 A 
ATOM     24  C   UNL     1       4.321  -1.796  -4.370  0.00  0.00    +0.016 A 
ATOM     25  C   UNL     1       3.573  -2.022  -5.519  0.00  0.00    +0.008 A 
ATOM     26  C   UNL     1       2.226  -1.683  -5.549  0.00  0.00    +0.016 A 
ATOM     27  C   UNL     1       1.630  -1.126  -4.435  0.00  0.00    +0.024 A 
BRANCH  25  28
ATOM     28  S   UNL     1       4.333  -2.738  -6.938  0.00  0.00    -0.129 S 
ATOM     29  C   UNL     1       2.990  -2.833  -8.154  0.00  0.00    +0.090 C 
ENDBRANCH  25  28
ENDBRANCH  20  22
ENDBRANCH  17  18
ENDBRANCH   1  17
TORSDOF 6
