REMARK  Name = ZINC56807105
REMARK  8 active torsions:
REMARK  status: ('A' for Active; 'I' for Inactive)
REMARK    1  A    between atoms: C_3  and  O_8
REMARK    2  A    between atoms: O_8  and  C_9
REMARK    3  A    between atoms: C_9  and  C_10
REMARK    4  A    between atoms: C_10  and  C_12
REMARK    5  A    between atoms: C_10  and  O_31
REMARK    6  A    between atoms: C_12  and  N_13
REMARK    7  A    between atoms: N_16  and  C_17
REMARK    8  A    between atoms: N_26  and  C_28
REMARK                            x       y       z     vdW  Elec       q    Type
REMARK                         _______ _______ _______ _____ _____    ______ ____
ROOT
ATOM      1  N   UNL     1       8.397   2.394  -0.193  0.00  0.00    -0.297 N 
ATOM      2  C   UNL     1       9.645   1.900  -0.309  0.00  0.00    +0.300 C 
ATOM      3  O   UNL     1       9.818   0.701  -0.408  0.00  0.00    -0.253 OA
ATOM      4  N   UNL     1      10.702   2.736  -0.315  0.00  0.00    -0.296 N 
ATOM      5  H   UNL     1       8.259   3.350  -0.113  0.00  0.00    +0.150 HD
ATOM      6  H   UNL     1      10.565   3.693  -0.236  0.00  0.00    +0.151 HD
ENDROOT
BRANCH   4   7
ATOM      7  C   UNL     1      12.056   2.201  -0.441  0.00  0.00    +0.077 C 
ATOM      8  C   UNL     1      12.610   1.817   0.933  0.00  0.00    -0.007 C 
ATOM      9  C   UNL     1      12.595   3.023   1.860  0.00  0.00    +0.003 C 
ATOM     10  C   UNL     1      13.337   4.221   1.289  0.00  0.00    +0.001 C 
ATOM     11  C   UNL     1      12.993   4.505  -0.164  0.00  0.00    +0.003 C 
ATOM     12  C   UNL     1      12.996   3.255  -1.032  0.00  0.00    -0.007 C 
ATOM     13  C   UNL     1      14.395   2.670  -1.171  0.00  0.00    -0.073 C 
ATOM     14  N   UNL     1      14.927   2.154   0.086  0.00  0.00    +0.382 N 
ATOM     15  C   UNL     1      14.014   1.247   0.775  0.00  0.00    -0.073 C 
ATOM     16  H   UNL     1      15.188   2.914   0.694  0.00  0.00    -0.081 HD
BRANCH  14  17
ATOM     17  C   UNL     1      16.162   1.417  -0.211  0.00  0.00    -0.069 C 
ATOM     18  C   UNL     1      17.410   1.777   0.598  0.00  0.00    -0.017 C 
ATOM     19  C   UNL     1      17.305   2.192  -0.871  0.00  0.00    -0.017 C 
ENDBRANCH  14  17
ENDBRANCH   4   7
BRANCH   1  20
ATOM     20  C   UNL     1       7.247   1.485  -0.186  0.00  0.00    +0.140 C 
BRANCH  20  21
ATOM     21  C   UNL     1       5.957   2.295  -0.043  0.00  0.00    +0.169 C 
BRANCH  21  22
ATOM     22  O   UNL     1       5.990   3.031   1.181  0.00  0.00    -0.387 OA
ATOM     23  H   UNL     1       6.068   2.478   1.970  0.00  0.00    +0.210 HD
ENDBRANCH  21  22
BRANCH  21  24
ATOM     24  C   UNL     1       4.757   1.346  -0.037  0.00  0.00    +0.261 C 
BRANCH  24  25
ATOM     25  O   UNL     1       3.548   2.107  -0.021  0.00  0.00    -0.489 OA
BRANCH  25  28
ATOM     26  C   UNL     1      -0.017   1.378   0.010  0.00  0.00    +0.006 A 
ATOM     27  C   UNL     1       1.169   2.087   0.002  0.00  0.00    +0.046 A 
ATOM     28  C   UNL     1       2.381   1.411  -0.013  0.00  0.00    +0.123 A 
ATOM     29  C   UNL     1       2.400   0.024  -0.021  0.00  0.00    +0.084 A 
ATOM     30  C   UNL     1       1.210  -0.682  -0.013  0.00  0.00    +0.127 A 
ATOM     31  C   UNL     1       0.002  -0.004   0.002  0.00  0.00    +0.038 A 
ATOM     32  F   UNL     1       1.226  -2.033  -0.021  0.00  0.00    -0.205 F 
ENDBRANCH  25  28
ENDBRANCH  24  25
ENDBRANCH  21  24
ENDBRANCH  20  21
ENDBRANCH   1  20
TORSDOF 8
