REMARK  Name = ZINC22414201
REMARK  6 active torsions:
REMARK  status: ('A' for Active; 'I' for Inactive)
REMARK    1  A    between atoms: C_1  and  C_2
REMARK    2  A    between atoms: N_4  and  C_5
REMARK    3  A    between atoms: C_8  and  N_11
REMARK    4  A    between atoms: C_12  and  C_14
REMARK    5  A    between atoms: C_14  and  N_15
REMARK    6  A    between atoms: N_27  and  C_30
REMARK                            x       y       z     vdW  Elec       q    Type
REMARK                         _______ _______ _______ _____ _____    ______ ____
ROOT
ATOM      1  N   UNL     1       1.198  10.441   0.257  0.00  0.00    -0.280 N 
ATOM      2  C   UNL     1       1.946  10.687   1.391  0.00  0.00    +0.105 A 
ATOM      3  C   UNL     1       1.703  10.535   2.827  0.00  0.00    +0.045 A 
ATOM      4  C   UNL     1       0.622  10.095   3.591  0.00  0.00    +0.014 A 
ATOM      5  C   UNL     1       0.715  10.078   4.955  0.00  0.00    +0.001 A 
ATOM      6  C   UNL     1       1.879  10.496   5.584  0.00  0.00    +0.004 A 
ATOM      7  C   UNL     1       2.958  10.933   4.847  0.00  0.00    +0.047 A 
ATOM      8  C   UNL     1       2.886  10.959   3.459  0.00  0.00    +0.138 A 
ATOM      9  O   UNL     1       3.763  11.328   2.503  0.00  0.00    -0.448 OA
ATOM     10  C   UNL     1       3.232  11.174   1.270  0.00  0.00    +0.217 A 
ATOM     11  C   UNL     1       3.741  11.417  -0.031  0.00  0.00    +0.304 A 
ATOM     12  O   UNL     1       4.870  11.851  -0.178  0.00  0.00    -0.263 OA
ATOM     13  N   UNL     1       2.966  11.164  -1.104  0.00  0.00    -0.223 N 
ATOM     14  C   UNL     1       1.717  10.685  -0.961  0.00  0.00    +0.338 A 
ATOM     15  O   UNL     1       1.045  10.469  -1.951  0.00  0.00    -0.246 OA
ENDROOT
BRANCH  13  16
ATOM     16  C   UNL     1       3.469  11.404  -2.390  0.00  0.00    +0.090 A 
ATOM     17  C   UNL     1       3.289  12.643  -2.988  0.00  0.00    +0.029 A 
ATOM     18  C   UNL     1       3.791  12.879  -4.253  0.00  0.00    +0.002 A 
ATOM     19  C   UNL     1       4.463  11.878  -4.930  0.00  0.00    +0.003 A 
ATOM     20  C   UNL     1       4.641  10.639  -4.341  0.00  0.00    +0.040 A 
ATOM     21  C   UNL     1       4.145  10.399  -3.072  0.00  0.00    +0.147 A 
ATOM     22  F   UNL     1       4.318   9.188  -2.497  0.00  0.00    -0.203 F 
ENDBRANCH  13  16
BRANCH   1  23
ATOM     23  C   UNL     1      -0.166   9.920   0.380  0.00  0.00    +0.223 C 
BRANCH  23  25
ATOM     24  N   UNL     1      -1.277   7.712   0.472  0.00  0.00    -0.284 N 
ATOM     25  C   UNL     1      -0.131   8.414   0.370  0.00  0.00    +0.237 C 
ATOM     26  O   UNL     1       0.929   7.833   0.271  0.00  0.00    -0.274 OA
ATOM     27  H   UNL     1      -2.230   8.236   0.639  0.00  0.00    +0.155 HD
BRANCH  24  31
ATOM     28  C   UNL     1      -1.212   3.555   0.154  0.00  0.00    +0.033 A 
ATOM     29  C   UNL     1      -0.158   4.221   0.765  0.00  0.00    +0.025 A 
ATOM     30  C   UNL     1      -0.178   5.598   0.867  0.00  0.00    +0.025 A 
ATOM     31  C   UNL     1      -1.255   6.316   0.365  0.00  0.00    +0.034 A 
ATOM     32  C   UNL     1      -2.312   5.649  -0.242  0.00  0.00    +0.025 A 
ATOM     33  C   UNL     1      -2.291   4.273  -0.347  0.00  0.00    +0.025 A 
BRANCH  28  37
ATOM     34  C   UNL     1       0.009  -0.004   0.043  0.00  0.00    +0.109 C 
ATOM     35  C   UNL     1      -0.014   1.502   0.029  0.00  0.00    +0.214 C 
ATOM     36  O   UNL     1       1.027   2.124  -0.005  0.00  0.00    -0.276 OA
ATOM     37  N   UNL     1      -1.191   2.159   0.048  0.00  0.00    -0.286 N 
ATOM     38  H   UNL     1      -2.135   1.597  -0.020  0.00  0.00    +0.155 HD
ENDBRANCH  28  37
ENDBRANCH  24  31
ENDBRANCH  23  25
ENDBRANCH   1  23
TORSDOF 5
