REMARK  Name = ZINC02795762
REMARK  9 active torsions:
REMARK  status: ('A' for Active; 'I' for Inactive)
REMARK    1  A    between atoms: C_1  and  C_2
REMARK    2  A    between atoms: C_7  and  O_8
REMARK    3  A    between atoms: O_8  and  C_9
REMARK    4  A    between atoms: C_9  and  C_10
REMARK    5  A    between atoms: C_10  and  C_11
REMARK    6  A    between atoms: C_11  and  C_12
REMARK    7  A    between atoms: N_14  and  C_15
REMARK    8  A    between atoms: C_16  and  C_26
REMARK    9  A    between atoms: C_21  and  C_25
REMARK                            x       y       z     vdW  Elec       q    Type
REMARK                         _______ _______ _______ _____ _____    ______ ____
ROOT
ATOM      1  C   UNL     1      -3.569  -6.205   0.396  0.00  0.00    +0.218 C 
ATOM      2  O   UNL     1      -4.297  -5.325  -0.013  0.00  0.00    -0.275 OA
ATOM      3  N   UNL     1      -2.304  -5.917   0.763  0.00  0.00    -0.279 N 
ATOM      4  H   UNL     1      -1.722  -6.620   1.090  0.00  0.00    +0.155 HD
ENDROOT
BRANCH   3   5
ATOM      5  C   UNL     1      -1.836  -4.615   0.673  0.00  0.00    +0.084 A 
ATOM      6  C   UNL     1      -0.579  -4.127   0.999  0.00  0.00    +0.068 A 
ATOM      7  C   UNL     1      -0.340  -2.706   0.809  0.00  0.00    -0.023 A 
ATOM      8  C   UNL     1      -1.390  -2.006   0.327  0.00  0.00    -0.004 A 
ATOM      9  S   UNL     1      -2.678  -3.203   0.125  0.00  0.00    -0.077 S 
ATOM     10  C   UNL     1      -1.437  -0.538   0.030  0.00  0.00    +0.046 C 
ATOM     11  C   UNL     1       0.002  -0.004   0.002  0.00  0.00    -0.009 C 
ATOM     12  C   UNL     1       0.742  -0.514   1.242  0.00  0.00    +0.008 C 
ATOM     13  C   UNL     1       0.984  -2.020   1.121  0.00  0.00    +0.037 C 
ATOM     14  C   UNL     1      -0.019   1.526   0.010  0.00  0.00    +0.008 C 
BRANCH   6  15
ATOM     15  C   UNL     1       0.470  -5.011   1.517  0.00  0.00    +0.244 C 
ATOM     16  O   UNL     1       0.577  -5.192   2.716  0.00  0.00    -0.270 OA
ATOM     17  N   UNL     1       1.315  -5.624   0.665  0.00  0.00    -0.325 N 
ATOM     18  H   UNL     1       1.230  -5.480  -0.291  0.00  0.00    +0.145 HD
ATOM     19  H   UNL     1       2.009  -6.209   1.007  0.00  0.00    +0.145 HD
ENDBRANCH   6  15
ENDBRANCH   3   5
BRANCH   1  20
ATOM     20  C   UNL     1      -4.078  -7.620   0.494  0.00  0.00    +0.099 C 
BRANCH  20  21
ATOM     21  C   UNL     1      -5.532  -7.673   0.019  0.00  0.00    +0.050 C 
BRANCH  21  22
ATOM     22  C   UNL     1      -6.049  -9.110   0.118  0.00  0.00    +0.229 C 
BRANCH  22  23
ATOM     23  O   UNL     1      -7.406  -9.159  -0.325  0.00  0.00    -0.492 OA
BRANCH  23  30
ATOM     24  C   UNL     1     -10.094  -9.276  -1.185  0.00  0.00    +0.047 C 
ATOM     25  C   UNL     1      -9.339 -10.491  -0.711  0.00  0.00    -0.007 A 
ATOM     26  C   UNL     1      -9.959 -11.725  -0.690  0.00  0.00    +0.027 A 
ATOM     27  C   UNL     1      -9.269 -12.840  -0.249  0.00  0.00    +0.041 A 
ATOM     28  C   UNL     1      -7.954 -12.722   0.167  0.00  0.00    +0.023 A 
ATOM     29  C   UNL     1      -7.329 -11.491   0.142  0.00  0.00    +0.047 A 
ATOM     30  C   UNL     1      -8.020 -10.372  -0.300  0.00  0.00    +0.123 A 
ATOM     31 CL   UNL     1     -10.053 -14.389  -0.216  0.00  0.00    -0.084 Cl
ENDBRANCH  23  30
ENDBRANCH  22  23
ENDBRANCH  21  22
ENDBRANCH  20  21
ENDBRANCH   1  20
TORSDOF 7
