REMARK  Name = ZINC63395263
REMARK  4 active torsions:
REMARK  status: ('A' for Active; 'I' for Inactive)
REMARK    1  A    between atoms: C_4  and  C_7
REMARK    2  A    between atoms: C_7  and  C_8
REMARK    3  A    between atoms: C_7  and  N_14
REMARK    4  A    between atoms: C_15  and  C_17
REMARK                            x       y       z     vdW  Elec       q    Type
REMARK                         _______ _______ _______ _____ _____    ______ ____
ROOT
ATOM      1  N   UNL     1       3.611  -1.865  -0.930  0.00  0.00    -0.304 N 
ATOM      2  C   UNL     1       3.825  -1.716  -2.253  0.00  0.00    +0.219 C 
ATOM      3  O   UNL     1       4.099  -0.624  -2.704  0.00  0.00    -0.275 OA
ATOM      4  H   UNL     1       3.392  -2.738  -0.569  0.00  0.00    +0.150 HD
ENDROOT
BRANCH   2   5
ATOM      5  C   UNL     1       3.722  -2.906  -3.171  0.00  0.00    +0.101 C 
ATOM      6  C   UNL     1       2.308  -3.493  -3.098  0.00  0.00    +0.015 C 
ATOM      7  C   UNL     1       2.196  -4.771  -3.926  0.00  0.00    +0.005 C 
ATOM      8  C   UNL     1       2.433  -4.461  -5.414  0.00  0.00    +0.033 C 
ATOM      9  C   UNL     1       3.724  -3.684  -5.492  0.00  0.00    -0.038 C 
ATOM     10  C   UNL     1       4.812  -3.854  -6.232  0.00  0.00    +0.001 A 
ATOM     11  C   UNL     1       5.115  -4.785  -7.331  0.00  0.00    +0.030 A 
ATOM     12  C   UNL     1       6.364  -4.700  -7.862  0.00  0.00    +0.042 A 
ATOM     13  C   UNL     1       7.330  -3.792  -7.415  0.00  0.00    +0.022 A 
ATOM     14  C   UNL     1       7.134  -2.893  -6.417  0.00  0.00    +0.027 A 
ATOM     15  C   UNL     1       5.856  -2.880  -5.787  0.00  0.00    +0.043 A 
ATOM     16  N   UNL     1       5.393  -2.120  -4.838  0.00  0.00    -0.377 N 
ATOM     17  C   UNL     1       3.996  -2.470  -4.611  0.00  0.00    +0.118 C 
ATOM     18 CL   UNL     1       6.781  -5.772  -9.162  0.00  0.00    -0.084 Cl
ATOM     19  H   UNL     1       5.893  -1.439  -4.362  0.00  0.00    +0.160 HD
ENDBRANCH   2   5
BRANCH   1  20
ATOM     20  C   UNL     1       3.711  -0.707  -0.038  0.00  0.00    +0.134 C 
BRANCH  20  24
ATOM     21  C   UNL     1      -0.017   1.378   0.010  0.00  0.00    +0.000 A 
ATOM     22  C   UNL     1       1.171   2.086   0.002  0.00  0.00    +0.000 A 
ATOM     23  C   UNL     1       2.377   1.411  -0.013  0.00  0.00    +0.006 A 
ATOM     24  C   UNL     1       2.396   0.029  -0.020  0.00  0.00    -0.023 A 
ATOM     25  C   UNL     1       1.208  -0.679  -0.012  0.00  0.00    +0.006 A 
ATOM     26  C   UNL     1       0.002  -0.004   0.002  0.00  0.00    +0.000 A 
ENDBRANCH  20  24
BRANCH  20  27
ATOM     27  C   UNL     1       4.044  -1.175   1.356  0.00  0.00    -0.023 A 
ATOM     28  C   UNL     1       3.455  -2.320   1.860  0.00  0.00    +0.006 A 
ATOM     29  C   UNL     1       3.760  -2.748   3.138  0.00  0.00    +0.000 A 
ATOM     30  C   UNL     1       4.654  -2.033   3.912  0.00  0.00    +0.000 A 
ATOM     31  C   UNL     1       5.243  -0.888   3.408  0.00  0.00    +0.000 A 
ATOM     32  C   UNL     1       4.941  -0.462   2.128  0.00  0.00    +0.006 A 
ENDBRANCH  20  27
ENDBRANCH   1  20
TORSDOF 4
