REMARK  Name = ZINC39342449
REMARK  3 active torsions:
REMARK  status: ('A' for Active; 'I' for Inactive)
REMARK    1  A    between atoms: C_3  and  C_9
REMARK    2  A    between atoms: C_21  and  N_25
REMARK    3  A    between atoms: C_22  and  C_23
REMARK                            x       y       z     vdW  Elec       q    Type
REMARK                         _______ _______ _______ _____ _____    ______ ____
ROOT
ATOM      1  C   UNL     1       3.671   2.186  -0.023  0.00  0.00    +0.086 C 
ATOM      2  C   UNL     1       3.752   3.064   1.232  0.00  0.00    +0.171 C 
ATOM      3  C   UNL     1       4.105   2.220   2.422  0.00  0.00    +0.233 C 
ATOM      4  O   UNL     1       3.377   1.301   2.733  0.00  0.00    -0.274 OA
ATOM      5  N   UNL     1       5.208   2.457   3.149  0.00  0.00    -0.238 N 
ATOM      6  C   UNL     1       6.048   3.457   2.838  0.00  0.00    +0.332 C 
ATOM      7  O   UNL     1       7.022   3.653   3.540  0.00  0.00    -0.250 OA
ATOM      8  N   UNL     1       5.840   4.244   1.772  0.00  0.00    -0.131 NA
ATOM      9  C   UNL     1       4.810   4.114   0.990  0.00  0.00    +0.204 C 
ATOM     10  O   UNL     1       4.650   4.911  -0.090  0.00  0.00    -0.428 OA
ATOM     11  C   UNL     1       4.202   4.323  -1.221  0.00  0.00    +0.200 C 
ATOM     12  C   UNL     1       3.726   3.060  -1.247  0.00  0.00    +0.095 C 
ATOM     13  H   UNL     1       5.401   1.895   3.916  0.00  0.00    +0.159 HD
ENDROOT
BRANCH   1  16
ATOM     14  C   UNL     1      -0.017   1.378   0.010  0.00  0.00    +0.002 A 
ATOM     15  C   UNL     1       1.171   2.086   0.002  0.00  0.00    +0.006 A 
ATOM     16  C   UNL     1       2.378   1.413  -0.013  0.00  0.00    -0.018 A 
ATOM     17  C   UNL     1       2.398   0.030  -0.021  0.00  0.00    +0.063 A 
ATOM     18  C   UNL     1       1.209  -0.679  -0.013  0.00  0.00    +0.060 A 
ATOM     19  C   UNL     1       0.002  -0.004   0.002  0.00  0.00    +0.021 A 
ATOM     20 CL   UNL     1       1.234  -2.415  -0.023  0.00  0.00    -0.082 Cl
ATOM     21 CL   UNL     1       3.914  -0.816  -0.041  0.00  0.00    -0.082 Cl
ENDBRANCH   1  16
BRANCH  11  22
ATOM     22  N   UNL     1       4.233   5.039  -2.392  0.00  0.00    -0.328 N 
ATOM     23  H   UNL     1       4.571   5.948  -2.396  0.00  0.00    +0.145 HD
ATOM     24  H   UNL     1       3.916   4.636  -3.215  0.00  0.00    +0.145 HD
ENDBRANCH  11  22
BRANCH  12  25
ATOM     25  C   UNL     1       3.252   2.530  -2.490  0.00  0.00    +0.100 C 
ATOM     26  N   UNL     1       2.877   2.109  -3.476  0.00  0.00    -0.191 NA
ENDBRANCH  12  25
TORSDOF 3
