REMARK  Name = ZINC32972000
REMARK  19 active torsions:
REMARK  status: ('A' for Active; 'I' for Inactive)
REMARK    1  A    between atoms: C_1  and  C_2
REMARK    2  A    between atoms: C_2  and  C_3
REMARK    3  A    between atoms: C_2  and  C_4
REMARK    4  A    between atoms: C_4  and  N_5
REMARK    5  A    between atoms: C_6  and  N_38
REMARK    6  A    between atoms: C_7  and  N_14
REMARK    7  A    between atoms: N_14  and  C_15
REMARK    8  A    between atoms: C_15  and  C_16
REMARK    9  A    between atoms: C_16  and  C_17
REMARK   10  A    between atoms: C_16  and  C_18
REMARK   11  A    between atoms: C_19  and  C_21
REMARK   12  A    between atoms: C_21  and  N_22
REMARK   13  A    between atoms: N_22  and  C_23
REMARK   14  A    between atoms: C_24  and  C_26
REMARK   15  A    between atoms: C_27  and  C_28
REMARK   16  A    between atoms: C_31  and  O_36
REMARK   17  A    between atoms: C_32  and  O_34
REMARK   18  A    between atoms: O_34  and  C_35
REMARK   19  A    between atoms: O_36  and  C_37
REMARK                            x       y       z     vdW  Elec       q    Type
REMARK                         _______ _______ _______ _____ _____    ______ ____
ROOT
ATOM      1  N   UNL     1       1.043   1.992   0.035  0.00  0.00    -0.263 N 
ATOM      2  C   UNL     1      -0.128   1.324  -0.022  0.00  0.00    +0.237 C 
ATOM      3  O   UNL     1      -0.133   0.115  -0.130  0.00  0.00    -0.274 OA
ENDROOT
BRANCH   1   6
ATOM      4  N   UNL     1       4.278   0.679   1.179  0.00  0.00    -0.280 N 
ATOM      5  C   UNL     1       3.098   1.386   1.168  0.00  0.00    +0.127 A 
ATOM      6  C   UNL     1       2.260   1.279   0.077  0.00  0.00    +0.140 A 
ATOM      7  C   UNL     1       2.637   0.443  -0.990  0.00  0.00    +0.277 A 
ATOM      8  O   UNL     1       1.912   0.326  -1.964  0.00  0.00    -0.266 OA
ATOM      9  N   UNL     1       3.806  -0.224  -0.931  0.00  0.00    -0.273 N 
ATOM     10  H   UNL     1       4.112  -0.872  -1.766  0.00  0.00    +0.173 HD
ATOM     11  C   UNL     1       4.611  -0.107   0.140  0.00  0.00    +0.331 A 
ATOM     12  O   UNL     1       5.659  -0.724   0.169  0.00  0.00    -0.246 OA
BRANCH   5  13
ATOM     13  N   UNL     1       2.759   2.190   2.230  0.00  0.00    -0.343 N 
ATOM     14  H   UNL     1       1.814   2.752   2.214  0.00  0.00    +0.144 HD
ATOM     15  H   UNL     1       3.432   2.271   3.096  0.00  0.00    +0.144 HD
ENDBRANCH   5  13
BRANCH   4  16
ATOM     16  C   UNL     1       5.178   0.783   2.331  0.00  0.00    +0.131 C 
BRANCH  16  18
ATOM     17  C   UNL     1       5.084  -1.677   2.760  0.00  0.00    +0.009 C 
ATOM     18  C   UNL     1       4.819  -0.293   3.357  0.00  0.00    +0.003 C 
ATOM     19  C   UNL     1       5.674  -0.107   4.612  0.00  0.00    +0.009 C 
ENDBRANCH  16  18
ENDBRANCH   4  16
ENDBRANCH   1   6
BRANCH   1  20
ATOM     20  C   UNL     1       1.050   3.457   0.055  0.00  0.00    +0.117 C 
BRANCH  20  21
ATOM     21  C   UNL     1       1.125   3.985  -1.379  0.00  0.00    +0.001 C 
ATOM     22  C   UNL     1       0.956   5.506  -1.371  0.00  0.00    +0.009 C 
ATOM     23  C   UNL     1       2.484   3.627  -1.984  0.00  0.00    +0.009 C 
ENDBRANCH  20  21
ENDBRANCH   1  20
BRANCH   2  24
ATOM     24  C   UNL     1      -1.431   2.079   0.040  0.00  0.00    +0.204 C 
BRANCH  24  25
ATOM     25  N   UNL     1      -2.546   1.130   0.065  0.00  0.00    -0.292 N 
ATOM     26  C   UNL     1      -3.056   0.632   1.345  0.00  0.00    +0.133 C 
ATOM     27  C   UNL     1      -3.102   0.713  -1.090  0.00  0.00    +0.240 C 
ATOM     28  O   UNL     1      -2.679   1.127  -2.154  0.00  0.00    -0.271 OA
BRANCH  27  29
ATOM     29  C   UNL     1      -4.216  -0.235  -1.065  0.00  0.00    +0.068 C 
ATOM     30  C   UNL     1      -4.773  -0.652  -2.222  0.00  0.00    +0.013 C 
BRANCH  30  31
ATOM     31  C   UNL     1      -5.892  -1.605  -2.197  0.00  0.00    -0.021 A 
ATOM     32  C   UNL     1      -6.381  -2.081  -0.975  0.00  0.00    +0.012 A 
ATOM     33  C   UNL     1      -7.429  -2.974  -0.954  0.00  0.00    +0.050 A 
ATOM     34  C   UNL     1      -8.004  -3.404  -2.143  0.00  0.00    +0.162 A 
ATOM     35  C   UNL     1      -7.522  -2.934  -3.365  0.00  0.00    +0.162 A 
ATOM     36  C   UNL     1      -6.475  -2.034  -3.394  0.00  0.00    +0.057 A 
BRANCH  35  37
ATOM     37  O   UNL     1      -8.088  -3.357  -4.527  0.00  0.00    -0.491 OA
ATOM     38  C   UNL     1      -7.545  -2.834  -5.741  0.00  0.00    +0.277 C 
ENDBRANCH  35  37
BRANCH  34  39
ATOM     39  O   UNL     1      -9.037  -4.285  -2.117  0.00  0.00    -0.491 OA
ATOM     40  C   UNL     1      -9.481  -4.726  -0.832  0.00  0.00    +0.277 C 
ENDBRANCH  34  39
ENDBRANCH  30  31
ENDBRANCH  27  29
ENDBRANCH  24  25
ENDBRANCH   2  24
TORSDOF 12
