REMARK  Name = ZINC39665547
REMARK  9 active torsions:
REMARK  status: ('A' for Active; 'I' for Inactive)
REMARK    1  A    between atoms: C_1  and  C_2
REMARK    2  A    between atoms: C_2  and  C_4
REMARK    3  A    between atoms: C_2  and  O_29
REMARK    4  A    between atoms: C_4  and  N_5
REMARK    5  A    between atoms: C_6  and  C_8
REMARK    6  A    between atoms: C_19  and  C_21
REMARK    7  A    between atoms: O_29  and  C_30
REMARK    8  A    between atoms: C_33  and  O_36
REMARK    9  A    between atoms: O_36  and  C_37
REMARK                            x       y       z     vdW  Elec       q    Type
REMARK                         _______ _______ _______ _____ _____    ______ ____
ROOT
ATOM      1  C   UNL     1      -1.954  -3.752   0.518  0.00  0.00    +0.100 C 
ATOM      2  C   UNL     1      -1.267  -4.029   1.874  0.00  0.00    +0.121 C 
ATOM      3  N   UNL     1      -2.383  -4.304   2.810  0.00  0.00    -0.296 N 
ATOM      4  C   UNL     1      -3.343  -5.105   2.013  0.00  0.00    +0.115 C 
ATOM      5  C   UNL     1      -3.314  -4.463   0.612  0.00  0.00    -0.004 C 
ATOM      6  C   UNL     1      -3.424  -5.538  -0.464  0.00  0.00    -0.010 C 
ATOM      7  C   UNL     1      -4.807  -6.191  -0.389  0.00  0.00    -0.082 C 
ATOM      8  N   UNL     1      -5.843  -5.170  -0.582  0.00  0.00    +0.379 N 
ATOM      9  C   UNL     1      -5.791  -4.190   0.510  0.00  0.00    -0.082 C 
ATOM     10  C   UNL     1      -4.449  -3.453   0.472  0.00  0.00    -0.010 C 
ATOM     11  C   UNL     1      -2.498  -3.915   4.095  0.00  0.00    +0.249 C 
ATOM     12  O   UNL     1      -3.484  -4.223   4.737  0.00  0.00    -0.270 OA
ATOM     13  H   UNL     1      -5.691  -4.700  -1.461  0.00  0.00    -0.086 HD
ATOM     14  H   UNL     1      -6.751  -5.611  -0.592  0.00  0.00    -0.086 HD
ENDROOT
BRANCH  11  15
ATOM     15  C   UNL     1      -1.429  -3.114   4.723  0.00  0.00    +0.073 A 
ATOM     16  C   UNL     1      -1.473  -1.718   4.670  0.00  0.00    +0.054 A 
ATOM     17  C   UNL     1      -0.469  -0.975   5.260  0.00  0.00    +0.021 A 
ATOM     18  C   UNL     1       0.579  -1.610   5.902  0.00  0.00    +0.003 A 
ATOM     19  C   UNL     1       0.630  -2.991   5.958  0.00  0.00    +0.021 A 
ATOM     20  C   UNL     1      -0.369  -3.747   5.379  0.00  0.00    +0.054 A 
ATOM     21 CL   UNL     1      -0.307  -5.480   5.458  0.00  0.00    -0.083 Cl
ATOM     22 CL   UNL     1      -2.787  -0.919   3.863  0.00  0.00    -0.083 Cl
ENDBRANCH  11  15
BRANCH   1  24
ATOM     23  N   UNL     1      -2.244  -1.762  -0.923  0.00  0.00    -0.312 N 
ATOM     24  C   UNL     1      -2.149  -2.270   0.322  0.00  0.00    +0.218 C 
ATOM     25  O   UNL     1      -2.219  -1.535   1.284  0.00  0.00    -0.275 OA
ATOM     26  H   UNL     1      -2.188  -2.350  -1.692  0.00  0.00    +0.149 HD
BRANCH  23  27
ATOM     27  C   UNL     1      -2.434  -0.322  -1.113  0.00  0.00    +0.148 C 
BRANCH  27  29
ATOM     28  C   UNL     1      -2.708   1.492  -2.809  0.00  0.00    +0.053 C 
ATOM     29  C   UNL     1      -2.510  -0.012  -2.610  0.00  0.00    +0.187 C 
BRANCH  29  30
ATOM     30  O   UNL     1      -1.296  -0.421  -3.244  0.00  0.00    -0.488 OA
BRANCH  30  31
ATOM     31  C   UNL     1      -1.361  -0.713  -4.570  0.00  0.00    +0.121 A 
ATOM     32  C   UNL     1      -0.249  -1.225  -5.222  0.00  0.00    +0.049 A 
ATOM     33  C   UNL     1      -0.314  -1.522  -6.570  0.00  0.00    +0.049 A 
ATOM     34  C   UNL     1      -1.492  -1.308  -7.270  0.00  0.00    +0.120 A 
ATOM     35  C   UNL     1      -2.604  -0.797  -6.618  0.00  0.00    +0.049 A 
ATOM     36  C   UNL     1      -2.540  -0.504  -5.270  0.00  0.00    +0.049 A 
BRANCH  34  37
ATOM     37  O   UNL     1      -1.556  -1.600  -8.597  0.00  0.00    -0.495 OA
ATOM     38  C   UNL     1      -2.801  -1.355  -9.255  0.00  0.00    +0.277 C 
ENDBRANCH  34  37
ENDBRANCH  30  31
ENDBRANCH  29  30
ENDBRANCH  27  29
ENDBRANCH  23  27
ENDBRANCH   1  24
TORSDOF 7
