REMARK  Name = ZINC39968989
REMARK  4 active torsions:
REMARK  status: ('A' for Active; 'I' for Inactive)
REMARK    1  A    between atoms: C_1  and  O_2
REMARK    2  A    between atoms: O_2  and  C_3
REMARK    3  A    between atoms: C_6  and  C_20
REMARK    4  A    between atoms: C_11  and  C_13
REMARK                            x       y       z     vdW  Elec       q    Type
REMARK                         _______ _______ _______ _____ _____    ______ ____
ROOT
ATOM      1  C   UNL     1       1.050  -0.501   1.099  0.00  0.00    +0.339 C 
ATOM      2  O   UNL     1       1.807   0.072   2.058  0.00  0.00    -0.245 OA
ATOM      3  C   UNL     1       0.799  -1.839   1.139  0.00  0.00    +0.085 C 
ATOM      4  C   UNL     1       0.135  -2.496   0.082  0.00  0.00    +0.075 C 
ATOM      5  N   UNL     1      -0.100  -3.798   0.139  0.00  0.00    -0.192 NA
ATOM      6  C   UNL     1       0.250  -4.581   1.151  0.00  0.00    +0.155 C 
ATOM      7  S   UNL     1      -0.131  -6.247   1.063  0.00  0.00    -0.017 S 
ATOM      8  N   UNL     1       0.891  -4.126   2.244  0.00  0.00    -0.314 N 
ATOM      9  C   UNL     1       1.225  -2.693   2.319  0.00  0.00    +0.143 C 
ATOM     10  H   UNL     1       1.131  -4.729   2.965  0.00  0.00    +0.149 HD
ENDROOT
BRANCH   9  11
ATOM     11  C   UNL     1       0.581  -2.131   3.560  0.00  0.00    -0.004 A 
ATOM     12  C   UNL     1      -0.509  -1.287   3.451  0.00  0.00    +0.007 A 
ATOM     13  C   UNL     1      -1.101  -0.772   4.589  0.00  0.00    +0.000 A 
ATOM     14  C   UNL     1      -0.603  -1.099   5.837  0.00  0.00    +0.001 A 
ATOM     15  C   UNL     1       0.487  -1.942   5.947  0.00  0.00    +0.020 A 
ATOM     16  C   UNL     1       1.076  -2.463   4.808  0.00  0.00    +0.046 A 
ATOM     17 CL   UNL     1       2.441  -3.527   4.946  0.00  0.00    -0.083 Cl
ENDBRANCH   9  11
BRANCH   4  18
ATOM     18  C   UNL     1      -0.303  -1.724  -1.101  0.00  0.00    -0.001 A 
ATOM     19  C   UNL     1       0.530  -1.617  -2.216  0.00  0.00    +0.011 A 
ATOM     20  C   UNL     1       0.116  -0.895  -3.316  0.00  0.00    +0.020 A 
ATOM     21  C   UNL     1      -1.123  -0.277  -3.316  0.00  0.00    +0.041 A 
ATOM     22  C   UNL     1      -1.955  -0.380  -2.213  0.00  0.00    +0.020 A 
ATOM     23  C   UNL     1      -1.554  -1.104  -1.109  0.00  0.00    +0.011 A 
ATOM     24 CL   UNL     1      -1.637   0.630  -4.704  0.00  0.00    -0.084 Cl
ENDBRANCH   4  18
BRANCH   1  26
ATOM     25  C   UNL     1       0.751   1.663   0.183  0.00  0.00    +0.280 C 
ATOM     26  O   UNL     1       0.543   0.252   0.102  0.00  0.00    -0.465 OA
ENDBRANCH   1  26
TORSDOF 3
