REMARK  Name = ZINC60090099
REMARK  6 active torsions:
REMARK  status: ('A' for Active; 'I' for Inactive)
REMARK    1  A    between atoms: C_1  and  C_2
REMARK    2  A    between atoms: N_16  and  C_17
REMARK    3  A    between atoms: C_17  and  C_18
REMARK    4  A    between atoms: C_18  and  C_19
REMARK    5  A    between atoms: N_21  and  C_22
REMARK    6  A    between atoms: C_27  and  C_28
REMARK                            x       y       z     vdW  Elec       q    Type
REMARK                         _______ _______ _______ _____ _____    ______ ____
ROOT
ATOM      1  C   UNL     1      -0.133   1.490  -0.021  0.00  0.00    -0.008 C 
ATOM      2  C   UNL     1      -0.022  -0.036   0.001  0.00  0.00    -0.040 C 
ATOM      3  C   UNL     1       0.572  -0.509  -1.300  0.00  0.00    -0.054 A 
ATOM      4  C   UNL     1       0.161   0.100  -2.476  0.00  0.00    +0.051 A 
ATOM      5  C   UNL     1       0.679  -0.307  -3.694  0.00  0.00    +0.162 A 
ATOM      6  C   UNL     1       1.618  -1.331  -3.736  0.00  0.00    +0.162 A 
ATOM      7  C   UNL     1       2.024  -1.937  -2.559  0.00  0.00    +0.053 A 
ATOM      8  C   UNL     1       1.503  -1.526  -1.342  0.00  0.00    -0.038 A 
ATOM      9  C   UNL     1       1.974  -2.204  -0.084  0.00  0.00    -0.019 C 
ATOM     10  C   UNL     1       3.397  -1.726   0.263  0.00  0.00    +0.010 C 
ATOM     11  C   UNL     1       4.098  -2.993   0.814  0.00  0.00    +0.001 C 
ATOM     12  C   UNL     1       3.532  -4.118  -0.089  0.00  0.00    +0.001 C 
ATOM     13  C   UNL     1       2.056  -3.722  -0.307  0.00  0.00    +0.010 C 
ATOM     14  C   UNL     1       1.029  -1.897   1.074  0.00  0.00    -0.066 C 
ATOM     15  N   UNL     1       0.817  -0.442   1.132  0.00  0.00    +0.385 N 
ATOM     16  O   UNL     1       2.146  -1.745  -4.921  0.00  0.00    -0.485 OA
ATOM     17  C   UNL     1       1.437  -1.369  -6.106  0.00  0.00    +0.270 C 
ATOM     18  C   UNL     1       1.077   0.119  -6.000  0.00  0.00    +0.270 C 
ATOM     19  O   UNL     1       0.260   0.301  -4.838  0.00  0.00    -0.485 OA
ATOM     20  H   UNL     1       1.706   0.031   1.080  0.00  0.00    -0.081 HD
ENDROOT
BRANCH  15  21
ATOM     21  C   UNL     1       0.146  -0.094   2.391  0.00  0.00    -0.069 C 
BRANCH  21  22
ATOM     22  C   UNL     1       1.087  -0.375   3.565  0.00  0.00    +0.077 C 
BRANCH  22  23
ATOM     23  C   UNL     1       0.359  -0.131   4.862  0.00  0.00    +0.215 C 
ATOM     24  O   UNL     1      -0.798   0.233   4.849  0.00  0.00    -0.276 OA
ATOM     25  N   UNL     1       0.994  -0.316   6.036  0.00  0.00    -0.284 N 
ATOM     26  H   UNL     1       1.892  -0.682   6.049  0.00  0.00    +0.155 HD
BRANCH  25  27
ATOM     27  C   UNL     1       0.359   0.018   7.232  0.00  0.00    +0.051 A 
ATOM     28  C   UNL     1      -0.650   0.971   7.243  0.00  0.00    +0.024 A 
ATOM     29  C   UNL     1      -1.277   1.301   8.428  0.00  0.00    +0.002 A 
ATOM     30  C   UNL     1      -0.905   0.686   9.613  0.00  0.00    +0.001 A 
ATOM     31  C   UNL     1       0.095  -0.262   9.621  0.00  0.00    +0.021 A 
ATOM     32  C   UNL     1       0.735  -0.610   8.428  0.00  0.00    +0.073 A 
BRANCH  32  33
ATOM     33  C   UNL     1       1.771  -1.599   8.429  0.00  0.00    +0.101 C 
ATOM     34  N   UNL     1       2.593  -2.383   8.429  0.00  0.00    -0.191 NA
ENDBRANCH  32  33
ENDBRANCH  25  27
ENDBRANCH  22  23
ENDBRANCH  21  22
ENDBRANCH  15  21
TORSDOF 5
