REMARK  Name = ZINC00731842
REMARK  5 active torsions:
REMARK  status: ('A' for Active; 'I' for Inactive)
REMARK    1  A    between atoms: C_6  and  N_7
REMARK    2  A    between atoms: C_16  and  S_17
REMARK    3  A    between atoms: S_17  and  C_18
REMARK    4  A    between atoms: C_18  and  C_19
REMARK    5  A    between atoms: N_21  and  C_22
REMARK                            x       y       z     vdW  Elec       q    Type
REMARK                         _______ _______ _______ _____ _____    ______ ____
ROOT
ATOM      1  N   UNL     1       9.107  -4.343   5.671  0.00  0.00    -0.255 N 
ATOM      2  C   UNL     1      10.437  -4.329   5.879  0.00  0.00    +0.268 A 
ATOM      3  O   UNL     1      11.030  -5.356   6.162  0.00  0.00    -0.267 OA
ATOM      4  C   UNL     1      11.143  -3.091   5.761  0.00  0.00    +0.076 A 
ATOM      5  C   UNL     1      12.584  -2.851   5.945  0.00  0.00    -0.023 A 
ATOM      6  C   UNL     1      13.016  -1.591   5.777  0.00  0.00    -0.004 A 
ATOM      7  S   UNL     1      11.559  -0.655   5.375  0.00  0.00    -0.073 S 
ATOM      8  C   UNL     1      10.370  -1.969   5.431  0.00  0.00    +0.117 A 
ATOM      9  N   UNL     1       9.058  -2.048   5.234  0.00  0.00    -0.215 NA
ATOM     10  C   UNL     1       8.428  -3.200   5.353  0.00  0.00    +0.178 A 
ATOM     11  C   UNL     1      14.502  -1.466   5.984  0.00  0.00    +0.043 C 
ATOM     12  C   UNL     1      15.029  -2.915   5.888  0.00  0.00    +0.010 C 
ATOM     13  C   UNL     1      13.787  -3.728   6.304  0.00  0.00    +0.037 C 
ENDROOT
BRANCH   1  19
ATOM     14  C   UNL     1       7.988  -5.999   7.030  0.00  0.00    +0.028 A 
ATOM     15  C   UNL     1       7.291  -7.187   7.138  0.00  0.00    +0.022 A 
ATOM     16  C   UNL     1       7.019  -7.935   6.006  0.00  0.00    +0.041 A 
ATOM     17  C   UNL     1       7.439  -7.494   4.764  0.00  0.00    +0.022 A 
ATOM     18  C   UNL     1       8.131  -6.303   4.650  0.00  0.00    +0.028 A 
ATOM     19  C   UNL     1       8.405  -5.550   5.784  0.00  0.00    +0.052 A 
ATOM     20 CL   UNL     1       6.149  -9.431   6.146  0.00  0.00    -0.084 Cl
ENDBRANCH   1  19
BRANCH  10  21
ATOM     21  S   UNL     1       6.687  -3.268   5.090  0.00  0.00    -0.078 S 
BRANCH  21  22
ATOM     22  C   UNL     1       6.357  -1.528   4.715  0.00  0.00    +0.173 C 
BRANCH  22  23
ATOM     23  C   UNL     1       4.886  -1.342   4.448  0.00  0.00    +0.227 C 
ATOM     24  O   UNL     1       4.134  -2.292   4.505  0.00  0.00    -0.275 OA
ATOM     25  N   UNL     1       4.406  -0.119   4.146  0.00  0.00    -0.285 N 
ATOM     26  H   UNL     1       5.016   0.625   4.022  0.00  0.00    +0.155 HD
BRANCH  25  27
ATOM     27  C   UNL     1       3.025   0.077   4.010  0.00  0.00    +0.037 A 
ATOM     28  C   UNL     1       2.138  -0.720   4.722  0.00  0.00    +0.027 A 
ATOM     29  C   UNL     1       0.776  -0.527   4.589  0.00  0.00    +0.051 A 
ATOM     30  C   UNL     1       0.292   0.461   3.747  0.00  0.00    +0.166 A 
ATOM     31  C   UNL     1       1.179   1.262   3.032  0.00  0.00    +0.168 A 
ATOM     32  C   UNL     1       2.544   1.068   3.166  0.00  0.00    +0.072 A 
ATOM     33  O   UNL     1       0.461   2.149   2.284  0.00  0.00    -0.453 OA
ATOM     34  C   UNL     1      -0.860   2.155   2.857  0.00  0.00    +0.466 C 
ATOM     35  O   UNL     1      -0.983   0.847   3.445  0.00  0.00    -0.453 OA
ENDBRANCH  25  27
ENDBRANCH  22  23
ENDBRANCH  21  22
ENDBRANCH  10  21
TORSDOF 5
