REMARK  Name = ZINC43746553
REMARK  5 active torsions:
REMARK  status: ('A' for Active; 'I' for Inactive)
REMARK    1  A    between atoms: C_1  and  C_2
REMARK    2  A    between atoms: C_2  and  C_4
REMARK    3  A    between atoms: C_2  and  N_13
REMARK    4  A    between atoms: N_6  and  C_7
REMARK    5  A    between atoms: C_14  and  C_16
REMARK                            x       y       z     vdW  Elec       q    Type
REMARK                         _______ _______ _______ _____ _____    ______ ____
ROOT
ATOM      1  C   UNL     1       0.780  -1.133   3.576  0.00  0.00    +0.167 C 
ATOM      2  C   UNL     1       1.918  -0.166   3.933  0.00  0.00    +0.069 C 
ATOM      3  C   UNL     1       1.375   1.029   4.674  0.00  0.00    -0.015 A 
ATOM      4  C   UNL     1       2.041   2.299   4.903  0.00  0.00    +0.003 A 
ATOM      5  C   UNL     1       3.297   2.786   4.527  0.00  0.00    +0.010 A 
ATOM      6  C   UNL     1       3.610   4.062   4.924  0.00  0.00    +0.001 A 
ATOM      7  C   UNL     1       2.733   4.840   5.662  0.00  0.00    +0.002 A 
ATOM      8  C   UNL     1       1.484   4.382   6.047  0.00  0.00    +0.026 A 
ATOM      9  C   UNL     1       1.138   3.090   5.656  0.00  0.00    +0.047 A 
ATOM     10  N   UNL     1       0.013   2.344   5.855  0.00  0.00    -0.356 N 
ATOM     11  H   UNL     1      -0.771   2.636   6.346  0.00  0.00    +0.166 HD
ATOM     12  C   UNL     1       0.158   1.121   5.257  0.00  0.00    +0.046 A 
ATOM     13  C   UNL     1      -0.864   0.012   5.205  0.00  0.00    +0.155 C 
ATOM     14  N   UNL     1      -0.140  -1.186   4.716  0.00  0.00    -0.273 N 
ATOM     15  C   UNL     1      -0.456  -2.224   5.503  0.00  0.00    +0.248 C 
ATOM     16  O   UNL     1      -0.218  -3.390   5.254  0.00  0.00    -0.270 OA
ATOM     17  C   UNL     1      -1.133  -1.738   6.710  0.00  0.00    +0.042 A 
ATOM     18  C   UNL     1      -1.399  -0.339   6.551  0.00  0.00    -0.009 A 
ATOM     19  C   UNL     1      -2.025   0.411   7.521  0.00  0.00    +0.006 A 
ATOM     20  C   UNL     1      -2.419  -0.253   8.679  0.00  0.00    +0.000 A 
ATOM     21  C   UNL     1      -2.198  -1.604   8.854  0.00  0.00    +0.001 A 
ATOM     22  C   UNL     1      -1.528  -2.410   7.868  0.00  0.00    +0.013 A 
ENDROOT
BRANCH   1  24
ATOM     23  N   UNL     1       0.711  -0.489   1.189  0.00  0.00    -0.303 N 
ATOM     24  C   UNL     1       0.051  -0.633   2.355  0.00  0.00    +0.235 C 
ATOM     25  O   UNL     1      -1.129  -0.361   2.423  0.00  0.00    -0.274 OA
ATOM     26  H   UNL     1       1.654  -0.707   1.135  0.00  0.00    +0.149 HD
BRANCH  23  28
ATOM     27  C   UNL     1      -0.019   1.526   0.010  0.00  0.00    +0.038 C 
ATOM     28  C   UNL     1       0.002  -0.004   0.002  0.00  0.00    +0.156 C 
BRANCH  28  29
ATOM     29  C   UNL     1       0.707  -0.490  -1.238  0.00  0.00    +0.233 C 
ATOM     30  O   UNL     1       1.704  -1.174  -1.140  0.00  0.00    -0.274 OA
ATOM     31  N   UNL     1       0.231  -0.164  -2.456  0.00  0.00    -0.311 N 
ATOM     32  H   UNL     1      -0.566   0.383  -2.534  0.00  0.00    +0.149 HD
BRANCH  31  33
ATOM     33  C   UNL     1       0.917  -0.637  -3.661  0.00  0.00    +0.073 C 
ATOM     34  C   UNL     1       2.054   0.325  -4.011  0.00  0.00    +0.022 C 
ATOM     35  C   UNL     1       2.770  -0.169  -5.269  0.00  0.00    +0.002 C 
ATOM     36  C   UNL     1       1.777  -0.227  -6.431  0.00  0.00    +0.000 C 
ATOM     37  C   UNL     1       0.639  -1.189  -6.082  0.00  0.00    +0.002 C 
ATOM     38  C   UNL     1      -0.077  -0.695  -4.823  0.00  0.00    +0.022 C 
ENDBRANCH  31  33
ENDBRANCH  28  29
ENDBRANCH  23  28
ENDBRANCH   1  24
TORSDOF 4
