REMARK  Name = ZINC08789855
REMARK  4 active torsions:
REMARK  status: ('A' for Active; 'I' for Inactive)
REMARK    1  A    between atoms: C_4  and  C_7
REMARK    2  A    between atoms: C_7  and  C_8
REMARK    3  A    between atoms: N_16  and  C_19
REMARK    4  A    between atoms: C_19  and  C_20
REMARK                            x       y       z     vdW  Elec       q    Type
REMARK                         _______ _______ _______ _____ _____    ______ ____
ROOT
ATOM      1  C   UNL     1      -0.786   9.203   3.873  0.00  0.00    -0.053 C 
ATOM      2  C   UNL     1      -0.398   8.192   2.775  0.00  0.00    +0.073 C 
ATOM      3  C   UNL     1      -0.784   8.886   1.438  0.00  0.00    +0.088 C 
ATOM      4  C   UNL     1      -1.884   8.002   0.893  0.00  0.00    +0.225 C 
ATOM      5  O   UNL     1      -2.470   8.179  -0.153  0.00  0.00    -0.275 OA
ATOM      6  N   UNL     1      -2.109   6.995   1.744  0.00  0.00    -0.237 N 
ATOM      7  C   UNL     1      -1.336   7.008   2.837  0.00  0.00    +0.224 C 
ATOM      8  O   UNL     1      -1.380   6.195   3.735  0.00  0.00    -0.275 OA
ATOM      9  C   UNL     1      -1.373  10.237   1.862  0.00  0.00    +0.050 C 
ATOM     10  C   UNL     1      -0.357  11.339   1.752  0.00  0.00    -0.028 A 
ATOM     11  C   UNL     1       0.876  11.553   2.326  0.00  0.00    +0.004 A 
ATOM     12  C   UNL     1       1.594  12.695   2.020  0.00  0.00    +0.000 A 
ATOM     13  C   UNL     1       1.071  13.620   1.136  0.00  0.00    +0.002 A 
ATOM     14  C   UNL     1      -0.165  13.411   0.559  0.00  0.00    +0.023 A 
ATOM     15  C   UNL     1      -0.895  12.264   0.863  0.00  0.00    +0.036 A 
ATOM     16  N   UNL     1      -2.147  11.835   0.417  0.00  0.00    -0.286 N 
ATOM     17  C   UNL     1      -2.501  10.653   0.959  0.00  0.00    +0.211 C 
ATOM     18  O   UNL     1      -3.529  10.043   0.757  0.00  0.00    -0.277 OA
ATOM     19  H   UNL     1      -2.698  12.330  -0.209  0.00  0.00    +0.155 HD
ATOM     20  N   UNL     1      -1.801  10.046   3.237  0.00  0.00    +0.394 N 
ATOM     21  H   UNL     1      -1.863  10.951   3.718  0.00  0.00    -0.083 HD
ATOM     22  H   UNL     1      -2.716   9.582   3.263  0.00  0.00    -0.083 HD
ENDROOT
BRANCH   1  23
ATOM     23  C   UNL     1      -1.353   8.473   5.093  0.00  0.00    +0.020 C 
BRANCH  23  27
ATOM     24  C   UNL     1      -2.281  11.311   8.148  0.00  0.00    +0.000 A 
ATOM     25  C   UNL     1      -3.237  10.969   7.209  0.00  0.00    +0.000 A 
ATOM     26  C   UNL     1      -2.936  10.050   6.221  0.00  0.00    +0.003 A 
ATOM     27  C   UNL     1      -1.680   9.475   6.170  0.00  0.00    -0.049 A 
ATOM     28  C   UNL     1      -0.727   9.814   7.112  0.00  0.00    +0.003 A 
ATOM     29  C   UNL     1      -1.026  10.736   8.098  0.00  0.00    +0.000 A 
ENDBRANCH  23  27
ENDBRANCH   1  23
BRANCH   6  30
ATOM     30  C   UNL     1      -3.122   5.965   1.503  0.00  0.00    +0.151 C 
BRANCH  30  31
ATOM     31  C   UNL     1      -2.505   4.822   0.740  0.00  0.00    -0.026 A 
ATOM     32  C   UNL     1      -2.517   4.829  -0.643  0.00  0.00    +0.009 A 
ATOM     33  C   UNL     1      -1.951   3.783  -1.347  0.00  0.00    +0.050 A 
ATOM     34  C   UNL     1      -1.373   2.722  -0.668  0.00  0.00    +0.166 A 
ATOM     35  C   UNL     1      -1.361   2.715   0.724  0.00  0.00    +0.167 A 
ATOM     36  C   UNL     1      -1.929   3.768   1.424  0.00  0.00    +0.054 A 
ATOM     37  O   UNL     1      -0.738   1.576   1.151  0.00  0.00    -0.453 OA
ATOM     38  C   UNL     1      -0.013   1.086   0.008  0.00  0.00    +0.466 C 
ATOM     39  O   UNL     1      -0.760   1.588  -1.116  0.00  0.00    -0.453 OA
ENDBRANCH  30  31
ENDBRANCH   6  30
TORSDOF 4
