REMARK  Name = ZINC04501380
REMARK  0 active torsions:
REMARK  status: ('A' for Active; 'I' for Inactive)
REMARK                            x       y       z     vdW  Elec       q    Type
REMARK                         _______ _______ _______ _____ _____    ______ ____
ROOT
ATOM      1  C   UNL     1      -0.700   1.565   1.286  0.00  0.00    +0.019 C 
ATOM      2  C   UNL     1      -0.013   1.086   0.008  0.00  0.00    +0.087 C 
ATOM      3  C   UNL     1      -0.717   1.573  -1.238  0.00  0.00    +0.189 C 
ATOM      4  O   UNL     1      -0.250   1.685  -2.353  0.00  0.00    -0.285 OA
ATOM      5  S   UNL     1      -2.332   1.938  -0.733  0.00  0.00    -0.088 S 
ATOM      6  C   UNL     1      -2.227   1.573   1.059  0.00  0.00    +0.077 C 
ENDROOT
TORSDOF 0
