REMARK  Name = ZINC59248172
REMARK  8 active torsions:
REMARK  status: ('A' for Active; 'I' for Inactive)
REMARK    1  A    between atoms: C_1  and  C_2
REMARK    2  A    between atoms: C_3  and  C_30
REMARK    3  A    between atoms: C_4  and  N_29
REMARK    4  A    between atoms: C_9  and  C_10
REMARK    5  A    between atoms: C_13  and  S_15
REMARK    6  A    between atoms: S_15  and  C_16
REMARK    7  A    between atoms: C_24  and  C_28
REMARK    8  A    between atoms: C_25  and  C_26
REMARK                            x       y       z     vdW  Elec       q    Type
REMARK                         _______ _______ _______ _____ _____    ______ ____
ROOT
ATOM      1  C   UNL     1      -1.414   1.292   0.607  0.00  0.00    +0.046 C 
ATOM      2  C   UNL     1      -0.761  -0.038   0.328  0.00  0.00    -0.020 A 
ATOM      3  C   UNL     1      -0.910  -0.665  -0.913  0.00  0.00    +0.095 A 
ATOM      4  C   UNL     1      -0.283  -1.908  -1.134  0.00  0.00    +0.135 A 
ATOM      5  N   UNL     1       0.438  -2.484  -0.191  0.00  0.00    -0.230 NA
ATOM      6  C   UNL     1       0.605  -1.920   1.005  0.00  0.00    +0.092 A 
ATOM      7  C   UNL     1       0.011  -0.671   1.296  0.00  0.00    +0.013 A 
ATOM      8  C   UNL     1       0.388  -0.323   2.677  0.00  0.00    -0.008 C 
ATOM      9  C   UNL     1       0.007   0.833   3.367  0.00  0.00    +0.055 C 
ATOM     10  C   UNL     1       1.194  -1.354   3.178  0.00  0.00    -0.023 C 
ATOM     11  C   UNL     1       1.340  -2.336   2.207  0.00  0.00    +0.081 C 
ATOM     12  C   UNL     1       1.798  -1.397   4.558  0.00  0.00    +0.046 C 
ENDROOT
BRANCH   9  13
ATOM     13  C   UNL     1       0.261   0.945   4.733  0.00  0.00    +0.131 A 
ATOM     14  C   UNL     1       0.661   2.102   5.399  0.00  0.00    +0.065 A 
ATOM     15  C   UNL     1       0.799   1.765   6.740  0.00  0.00    +0.071 A 
ATOM     16  C   UNL     1       0.482   0.424   6.858  0.00  0.00    +0.181 A 
ATOM     17  O   UNL     1       0.157  -0.050   5.644  0.00  0.00    -0.448 OA
ATOM     18 BR   UNL     1       1.321   2.923   8.141  0.00  0.00    -0.046 Br
BRANCH  16  19
ATOM     19  S   UNL     1       0.497  -0.507   8.354  0.00  0.00    -0.051 S 
BRANCH  19  20
ATOM     20  C   UNL     1      -1.089  -0.206   9.059  0.00  0.00    +0.016 A 
ATOM     21  C   UNL     1      -2.039   0.521   8.352  0.00  0.00    +0.016 A 
ATOM     22  C   UNL     1      -3.281   0.755   8.907  0.00  0.00    +0.021 A 
ATOM     23  C   UNL     1      -3.581   0.266  10.167  0.00  0.00    +0.041 A 
ATOM     24  C   UNL     1      -2.637  -0.459  10.874  0.00  0.00    +0.021 A 
ATOM     25  C   UNL     1      -1.395  -0.702  10.321  0.00  0.00    +0.016 A 
ATOM     26 CL   UNL     1      -5.144   0.563  10.862  0.00  0.00    -0.084 Cl
ENDBRANCH  19  20
ENDBRANCH  16  19
ENDBRANCH   9  13
BRANCH   4  27
ATOM     27  N   UNL     1      -0.427  -2.535  -2.361  0.00  0.00    -0.342 N 
ATOM     28  H   UNL     1      -0.956  -2.119  -3.059  0.00  0.00    +0.144 HD
ATOM     29  H   UNL     1       0.001  -3.391  -2.521  0.00  0.00    +0.144 HD
ENDBRANCH   4  27
BRANCH  11  30
ATOM     30  C   UNL     1       2.096  -3.544   2.348  0.00  0.00    +0.102 C 
ATOM     31  N   UNL     1       2.695  -4.503   2.459  0.00  0.00    -0.191 NA
ENDBRANCH  11  30
BRANCH   3  32
ATOM     32  C   UNL     1      -1.690  -0.052  -1.946  0.00  0.00    +0.103 C 
ATOM     33  N   UNL     1      -2.309   0.434  -2.765  0.00  0.00    -0.191 NA
ENDBRANCH   3  32
TORSDOF 6
