REMARK  Name = ZINC38650838
REMARK  11 active torsions:
REMARK  status: ('A' for Active; 'I' for Inactive)
REMARK    1  A    between atoms: C_1  and  C_2
REMARK    2  A    between atoms: C_2  and  C_3
REMARK    3  A    between atoms: C_3  and  C_4
REMARK    4  A    between atoms: C_4  and  O_5
REMARK    5  A    between atoms: O_5  and  C_6
REMARK    6  A    between atoms: C_9  and  C_12
REMARK    7  A    between atoms: C_17  and  O_26
REMARK    8  A    between atoms: C_21  and  N_25
REMARK    9  A    between atoms: C_22  and  C_23
REMARK   10  A    between atoms: O_26  and  C_27
REMARK   11  A    between atoms: C_27  and  C_29
REMARK                            x       y       z     vdW  Elec       q    Type
REMARK                         _______ _______ _______ _____ _____    ______ ____
ROOT
ATOM      1  C   UNL     1       1.841  -8.078  -3.109  0.00  0.00    +0.098 C 
ATOM      2  C   UNL     1       1.159  -8.475  -4.392  0.00  0.00    +0.008 A 
ATOM      3  C   UNL     1      -0.218  -8.606  -4.418  0.00  0.00    +0.012 A 
ATOM      4  C   UNL     1      -0.861  -8.971  -5.584  0.00  0.00    +0.047 A 
ATOM      5  C   UNL     1      -0.124  -9.206  -6.737  0.00  0.00    +0.135 A 
ATOM      6  C   UNL     1       1.254  -9.075  -6.715  0.00  0.00    +0.093 A 
ATOM      7  C   UNL     1       1.899  -8.709  -5.540  0.00  0.00    +0.138 A 
ATOM      8  O   UNL     1       3.249  -8.585  -5.534  0.00  0.00    -0.441 OA
ATOM      9  C   UNL     1       3.920  -8.618  -4.371  0.00  0.00    +0.199 C 
ATOM     10  C   UNL     1       3.309  -8.386  -3.188  0.00  0.00    +0.098 C 
ENDROOT
BRANCH   1  14
ATOM     11  C   UNL     1       1.306  -3.888  -2.461  0.00  0.00    +0.121 A 
ATOM     12  C   UNL     1       0.826  -4.801  -1.534  0.00  0.00    +0.046 A 
ATOM     13  C   UNL     1       1.000  -6.155  -1.746  0.00  0.00    +0.008 A 
ATOM     14  C   UNL     1       1.652  -6.600  -2.881  0.00  0.00    -0.034 A 
ATOM     15  C   UNL     1       2.132  -5.692  -3.806  0.00  0.00    +0.008 A 
ATOM     16  C   UNL     1       1.956  -4.337  -3.602  0.00  0.00    +0.046 A 
BRANCH  11  17
ATOM     17  O   UNL     1       1.136  -2.555  -2.255  0.00  0.00    -0.492 OA
BRANCH  17  18
ATOM     18  C   UNL     1       0.459  -2.165  -1.059  0.00  0.00    +0.229 C 
BRANCH  18  19
ATOM     19  C   UNL     1       0.363  -0.639  -1.002  0.00  0.00    +0.041 C 
BRANCH  19  21
ATOM     20  C   UNL     1      -0.458   1.305   0.336  0.00  0.00    +0.004 C 
ATOM     21  C   UNL     1      -0.362  -0.221   0.279  0.00  0.00    -0.000 C 
ENDBRANCH  19  21
ENDBRANCH  18  19
ENDBRANCH  17  18
ENDBRANCH  11  17
ENDBRANCH   1  14
BRANCH   9  22
ATOM     22  N   UNL     1       5.264  -8.896  -4.385  0.00  0.00    -0.328 N 
ATOM     23  H   UNL     1       5.716  -9.064  -5.227  0.00  0.00    +0.145 HD
ATOM     24  H   UNL     1       5.763  -8.923  -3.553  0.00  0.00    +0.145 HD
ENDBRANCH   9  22
BRANCH  10  25
ATOM     25  C   UNL     1       4.082  -8.435  -1.984  0.00  0.00    +0.101 C 
ATOM     26  N   UNL     1       4.695  -8.474  -1.028  0.00  0.00    -0.191 NA
ENDBRANCH  10  25
BRANCH   5  27
ATOM     27  O   UNL     1      -0.755  -9.566  -7.886  0.00  0.00    -0.422 OA
BRANCH  27  28
ATOM     28  C   UNL     1      -1.554  -8.657  -8.480  0.00  0.00    +0.345 C 
ATOM     29  O   UNL     1      -1.618  -7.525  -8.042  0.00  0.00    -0.245 OA
BRANCH  28  30
ATOM     30  C   UNL     1      -2.351  -9.036  -9.660  0.00  0.00    +0.067 A 
ATOM     31  C   UNL     1      -2.389 -10.355 -10.096  0.00  0.00    +0.015 A 
ATOM     32  C   UNL     1      -3.140 -10.709 -11.208  0.00  0.00    +0.001 A 
ATOM     33  C   UNL     1      -3.862  -9.792 -11.909  0.00  0.00    +0.008 A 
ATOM     34  C   UNL     1      -3.870  -8.441 -11.524  0.00  0.00    -0.017 A 
ATOM     35  C   UNL     1      -3.122  -8.034 -10.393  0.00  0.00    -0.004 A 
ATOM     36  C   UNL     1      -3.131  -6.689 -10.004  0.00  0.00    +0.009 A 
ATOM     37  C   UNL     1      -3.864  -5.787 -10.716  0.00  0.00    +0.001 A 
ATOM     38  C   UNL     1      -4.606  -6.185 -11.826  0.00  0.00    +0.001 A 
ATOM     39  C   UNL     1      -4.611  -7.482 -12.238  0.00  0.00    +0.008 A 
ENDBRANCH  28  30
ENDBRANCH  27  28
ENDBRANCH   5  27
TORSDOF 10
