REMARK  Name = ZINC15956690
REMARK  6 active torsions:
REMARK  status: ('A' for Active; 'I' for Inactive)
REMARK    1  A    between atoms: C_1  and  C_2
REMARK    2  A    between atoms: C_16  and  C_19
REMARK    3  A    between atoms: C_19  and  C_20
REMARK    4  A    between atoms: N_28  and  C_31
REMARK    5  A    between atoms: C_34  and  C_37
REMARK    6  A    between atoms: C_37  and  C_39
REMARK                            x       y       z     vdW  Elec       q    Type
REMARK                         _______ _______ _______ _____ _____    ______ ____
ROOT
ATOM      1  C   UNL     1       1.088   1.295   0.161  0.00  0.00    +0.047 C 
ATOM      2  C   UNL     1       0.792  -0.182   0.106  0.00  0.00    -0.011 A 
ATOM      3  C   UNL     1       0.628  -0.806  -1.114  0.00  0.00    +0.046 A 
ATOM      4  C   UNL     1       0.356  -2.162  -1.174  0.00  0.00    +0.021 A 
ATOM      5  C   UNL     1       0.248  -2.894  -0.005  0.00  0.00    +0.009 A 
ATOM      6  C   UNL     1       0.410  -2.276   1.214  0.00  0.00    +0.004 A 
ATOM      7  C   UNL     1       0.689  -0.913   1.287  0.00  0.00    +0.043 A 
ATOM      8  N   UNL     1       0.818  -0.517   2.620  0.00  0.00    -0.283 N 
ATOM      9  C   UNL     1       0.644  -1.544   3.474  0.00  0.00    +0.243 C 
ATOM     10  O   UNL     1       0.699  -1.496   4.684  0.00  0.00    -0.273 OA
ATOM     11  C   UNL     1       0.360  -2.760   2.635  0.00  0.00    +0.136 C 
ATOM     12  C   UNL     1      -1.003  -3.378   2.971  0.00  0.00    +0.123 C 
ATOM     13  C   UNL     1      -0.782  -4.910   2.834  0.00  0.00    +0.108 C 
ATOM     14  C   UNL     1       0.689  -5.061   2.393  0.00  0.00    +0.072 C 
ATOM     15  N   UNL     1       1.357  -3.818   2.882  0.00  0.00    -0.295 NA
ATOM     16  C   UNL     1      -0.950  -5.415   4.249  0.00  0.00    +0.232 C 
ATOM     17  O   UNL     1      -0.845  -6.572   4.597  0.00  0.00    -0.274 OA
ATOM     18  N   UNL     1      -1.233  -4.387   5.057  0.00  0.00    -0.210 N 
ATOM     19  C   UNL     1      -1.299  -3.184   4.441  0.00  0.00    +0.233 C 
ATOM     20  O   UNL     1      -1.549  -2.123   4.971  0.00  0.00    -0.274 OA
ATOM     21 CL   UNL     1       0.764   0.113  -2.580  0.00  0.00    -0.083 Cl
ATOM     22  H   UNL     1       1.011   0.392   2.898  0.00  0.00    +0.155 HD
ATOM     23  H   UNL     1       2.206  -3.643   2.367  0.00  0.00    +0.124 HD
ENDROOT
BRANCH  18  24
ATOM     24  C   UNL     1      -1.449  -4.542   6.428  0.00  0.00    +0.044 A 
ATOM     25  C   UNL     1      -2.715  -4.316   6.960  0.00  0.00    +0.024 A 
ATOM     26  C   UNL     1      -2.933  -4.467   8.311  0.00  0.00    +0.013 A 
ATOM     27  C   UNL     1      -1.878  -4.848   9.150  0.00  0.00    +0.017 A 
ATOM     28  C   UNL     1      -0.607  -5.074   8.609  0.00  0.00    +0.013 A 
ATOM     29  C   UNL     1      -0.400  -4.926   7.257  0.00  0.00    +0.024 A 
BRANCH  27  30
ATOM     30  C   UNL     1      -2.106  -5.010  10.592  0.00  0.00    +0.160 C 
ATOM     31  O   UNL     1      -3.208  -4.813  11.058  0.00  0.00    -0.292 OA
ATOM     32  C   UNL     1      -0.969  -5.420  11.492  0.00  0.00    +0.091 C 
ENDBRANCH  27  30
ENDBRANCH  18  24
BRANCH  14  33
ATOM     33  C   UNL     1       1.321  -6.286   3.058  0.00  0.00    +0.054 C 
BRANCH  33  34
ATOM     34  C   UNL     1       2.715  -6.486   2.522  0.00  0.00    -0.046 A 
ATOM     35  C   UNL     1       2.919  -7.270   1.402  0.00  0.00    +0.004 A 
ATOM     36  C   UNL     1       4.197  -7.453   0.910  0.00  0.00    +0.000 A 
ATOM     37  C   UNL     1       5.272  -6.852   1.538  0.00  0.00    +0.000 A 
ATOM     38  C   UNL     1       5.068  -6.067   2.658  0.00  0.00    +0.000 A 
ATOM     39  C   UNL     1       3.789  -5.880   3.147  0.00  0.00    +0.004 A 
ENDBRANCH  33  34
ENDBRANCH  14  33
TORSDOF 4
