REMARK  Name = ZINC63205695
REMARK  7 active torsions:
REMARK  status: ('A' for Active; 'I' for Inactive)
REMARK    1  A    between atoms: C_7  and  C_10
REMARK    2  A    between atoms: C_10  and  C_11
REMARK    3  A    between atoms: N_13  and  N_14
REMARK    4  A    between atoms: C_15  and  C_17
REMARK    5  A    between atoms: C_21  and  N_23
REMARK    6  A    between atoms: N_23  and  S_24
REMARK    7  A    between atoms: S_24  and  C_27
REMARK                            x       y       z     vdW  Elec       q    Type
REMARK                         _______ _______ _______ _____ _____    ______ ____
ROOT
ATOM      1  N   UNL     1      -0.567  -5.122  -3.001  0.00  0.00    -0.230 N 
ATOM      2  C   UNL     1      -1.380  -6.168  -3.245  0.00  0.00    +0.260 C 
ATOM      3  O   UNL     1      -1.927  -6.741  -2.323  0.00  0.00    -0.269 OA
ATOM      4  H   UNL     1      -0.131  -4.665  -3.737  0.00  0.00    +0.173 HD
ENDROOT
BRANCH   2   5
ATOM      5  C   UNL     1      -1.606  -6.621  -4.635  0.00  0.00    +0.040 A 
ATOM      6  C   UNL     1      -0.974  -5.968  -5.695  0.00  0.00    +0.013 A 
ATOM      7  C   UNL     1      -1.187  -6.392  -6.991  0.00  0.00    +0.003 A 
ATOM      8  C   UNL     1      -2.025  -7.462  -7.245  0.00  0.00    +0.027 A 
ATOM      9  C   UNL     1      -2.659  -8.118  -6.196  0.00  0.00    +0.075 A 
ATOM     10  C   UNL     1      -2.447  -7.704  -4.890  0.00  0.00    +0.039 A 
BRANCH   9  11
ATOM     11  N   UNL     1      -3.505  -9.198  -6.458  0.00  0.00    -0.098 NA
BRANCH  11  12
ATOM     12  S   UNL     1      -3.753  -9.697  -8.017  0.00  0.00    +0.092 S 
ATOM     13  O   UNL     1      -4.442  -8.644  -8.677  0.00  0.00    -0.148 OA
ATOM     14  O   UNL     1      -2.510 -10.204  -8.484  0.00  0.00    -0.148 OA
BRANCH  12  15
ATOM     15  C   UNL     1      -4.863 -11.065  -7.957  0.00  0.00    +0.112 A 
ATOM     16  C   UNL     1      -4.369 -12.350  -7.835  0.00  0.00    +0.030 A 
ATOM     17  C   UNL     1      -5.238 -13.424  -7.787  0.00  0.00    +0.023 A 
ATOM     18  C   UNL     1      -6.604 -13.212  -7.862  0.00  0.00    +0.059 A 
ATOM     19  C   UNL     1      -7.098 -11.924  -7.984  0.00  0.00    +0.061 A 
ATOM     20  C   UNL     1      -6.226 -10.851  -8.026  0.00  0.00    +0.050 A 
ATOM     21 CL   UNL     1      -8.810 -11.657  -8.078  0.00  0.00    -0.082 Cl
ATOM     22 CL   UNL     1      -7.696 -14.560  -7.803  0.00  0.00    -0.082 Cl
ENDBRANCH  12  15
ENDBRANCH  11  12
ENDBRANCH   9  11
ENDBRANCH   2   5
BRANCH   1  25
ATOM     23  C   UNL     1       0.460  -3.646  -1.440  0.00  0.00    +0.233 C 
ATOM     24  O   UNL     1       1.006  -3.075  -2.360  0.00  0.00    -0.274 OA
ATOM     25  N   UNL     1      -0.353  -4.693  -1.684  0.00  0.00    -0.234 N 
ATOM     26  H   UNL     1      -0.790  -5.150  -0.948  0.00  0.00    +0.173 HD
BRANCH  23  27
ATOM     27  C   UNL     1       0.691  -3.186  -0.024  0.00  0.00    +0.130 C 
BRANCH  27  34
ATOM     28  C   UNL     1      -0.016   1.348   0.009  0.00  0.00    +0.001 A 
ATOM     29  C   UNL     1       1.166   2.101   0.002  0.00  0.00    +0.002 A 
ATOM     30  C   UNL     1       2.391   1.535  -0.013  0.00  0.00    +0.026 A 
ATOM     31  C   UNL     1       2.529   0.120  -0.022  0.00  0.00    +0.043 A 
ATOM     32  N   UNL     1       3.587  -0.654  -0.037  0.00  0.00    -0.380 N 
ATOM     33  C   UNL     1       3.143  -2.053  -0.041  0.00  0.00    +0.145 C 
ATOM     34  C   UNL     1       1.631  -2.008  -0.025  0.00  0.00    -0.033 C 
ATOM     35  C   UNL     1       1.295  -0.698  -0.014  0.00  0.00    -0.001 A 
ATOM     36  C   UNL     1       0.002  -0.004   0.002  0.00  0.00    +0.010 A 
ATOM     37  H   UNL     1       4.509  -0.353  -0.045  0.00  0.00    +0.160 HD
ENDBRANCH  27  34
ENDBRANCH  23  27
ENDBRANCH   1  25
TORSDOF 7
