REMARK  Name = ZINC08430612
REMARK  10 active torsions:
REMARK  status: ('A' for Active; 'I' for Inactive)
REMARK    1  A    between atoms: C_1  and  C_2
REMARK    2  A    between atoms: C_2  and  O_3
REMARK    3  A    between atoms: O_3  and  C_4
REMARK    4  A    between atoms: C_7  and  C_12
REMARK    5  A    between atoms: C_9  and  O_10
REMARK    6  A    between atoms: O_10  and  C_11
REMARK    7  A    between atoms: C_17  and  C_27
REMARK    8  A    between atoms: C_30  and  C_33
REMARK    9  A    between atoms: C_33  and  C_34
REMARK   10  A    between atoms: C_33  and  C_35
REMARK                            x       y       z     vdW  Elec       q    Type
REMARK                         _______ _______ _______ _____ _____    ______ ____
ROOT
ATOM      1  C   UNL     1      -0.477   6.986  -5.325  0.00  0.00    +0.032 C 
ATOM      2  C   UNL     1      -0.817   6.216  -6.601  0.00  0.00    +0.059 C 
ATOM      3  C   UNL     1      -1.420   4.867  -6.249  0.00  0.00    +0.017 C 
ATOM      4  C   UNL     1      -2.155   4.717  -5.133  0.00  0.00    +0.036 C 
ATOM      5  C   UNL     1      -2.814   3.440  -4.671  0.00  0.00    +0.136 C 
ATOM      6  N   UNL     1      -2.833   2.381  -5.658  0.00  0.00    -0.331 N 
ATOM      7  C   UNL     1      -1.648   1.801  -6.111  0.00  0.00    +0.049 A 
ATOM      8  C   UNL     1      -1.326   0.487  -5.813  0.00  0.00    +0.025 A 
ATOM      9  C   UNL     1      -0.090  -0.012  -6.186  0.00  0.00    +0.002 A 
ATOM     10  C   UNL     1       0.817   0.792  -6.852  0.00  0.00    +0.002 A 
ATOM     11  C   UNL     1       0.489   2.099  -7.171  0.00  0.00    +0.025 A 
ATOM     12  C   UNL     1      -0.753   2.594  -6.814  0.00  0.00    +0.052 A 
ATOM     13  N   UNL     1      -1.165   3.879  -7.144  0.00  0.00    -0.316 N 
ATOM     14  C   UNL     1      -2.366   5.816  -4.267  0.00  0.00    +0.163 C 
ATOM     15  O   UNL     1      -3.051   5.658  -3.275  0.00  0.00    -0.292 OA
ATOM     16  C   UNL     1      -1.776   7.169  -4.530  0.00  0.00    +0.088 C 
ATOM     17  H   UNL     1      -3.682   2.071  -6.010  0.00  0.00    +0.147 HD
ATOM     18  H   UNL     1      -1.279   4.086  -8.085  0.00  0.00    +0.152 HD
ENDROOT
BRANCH   1  22
ATOM     19  C   UNL     1       1.153  10.809  -6.333  0.00  0.00    +0.162 A 
ATOM     20  C   UNL     1      -0.112  10.453  -6.775  0.00  0.00    +0.050 A 
ATOM     21  C   UNL     1      -0.636   9.217  -6.447  0.00  0.00    +0.008 A 
ATOM     22  C   UNL     1       0.099   8.332  -5.680  0.00  0.00    -0.040 A 
ATOM     23  C   UNL     1       1.359   8.683  -5.231  0.00  0.00    +0.053 A 
ATOM     24  C   UNL     1       1.892   9.919  -5.560  0.00  0.00    +0.162 A 
BRANCH  24  25
ATOM     25  O   UNL     1       3.133  10.264  -5.124  0.00  0.00    -0.491 OA
ATOM     26  C   UNL     1       3.834   9.300  -4.335  0.00  0.00    +0.277 C 
ENDBRANCH  24  25
BRANCH  19  27
ATOM     27  O   UNL     1       1.670  12.025  -6.654  0.00  0.00    -0.489 OA
BRANCH  27  29
ATOM     28  C   UNL     1       1.598  14.199  -7.707  0.00  0.00    +0.048 C 
ATOM     29  C   UNL     1       0.854  12.887  -7.450  0.00  0.00    +0.226 C 
ENDBRANCH  27  29
ENDBRANCH  19  27
ENDBRANCH   1  22
BRANCH   5  30
ATOM     30  C   UNL     1      -2.084   2.941  -3.450  0.00  0.00    -0.023 A 
ATOM     31  C   UNL     1      -2.743   2.858  -2.238  0.00  0.00    +0.006 A 
ATOM     32  C   UNL     1      -2.074   2.400  -1.118  0.00  0.00    +0.004 A 
ATOM     33  C   UNL     1      -0.747   2.025  -1.211  0.00  0.00    -0.045 A 
ATOM     34  C   UNL     1      -0.087   2.113  -2.422  0.00  0.00    +0.004 A 
ATOM     35  C   UNL     1      -0.757   2.567  -3.543  0.00  0.00    +0.006 A 
BRANCH  33  36
ATOM     36  C   UNL     1      -0.018   1.526   0.010  0.00  0.00    +0.013 C 
ATOM     37  C   UNL     1       0.477   0.100  -0.239  0.00  0.00    +0.012 C 
ATOM     38  C   UNL     1       1.176   2.437   0.299  0.00  0.00    +0.012 C 
ENDBRANCH  33  36
ENDBRANCH   5  30
TORSDOF 6
