REMARK  Name = ZINC67638559
REMARK  10 active torsions:
REMARK  status: ('A' for Active; 'I' for Inactive)
REMARK    1  A    between atoms: C_1  and  C_2
REMARK    2  A    between atoms: C_4  and  C_14
REMARK    3  A    between atoms: C_8  and  C_13
REMARK    4  A    between atoms: C_9  and  C_12
REMARK    5  A    between atoms: C_14  and  N_15
REMARK    6  A    between atoms: N_18  and  C_19
REMARK    7  A    between atoms: N_18  and  C_20
REMARK    8  A    between atoms: C_20  and  C_22
REMARK    9  A    between atoms: C_20  and  C_23
REMARK   10  A    between atoms: C_27  and  O_29
REMARK                            x       y       z     vdW  Elec       q    Type
REMARK                         _______ _______ _______ _____ _____    ______ ____
ROOT
ATOM      1  N   UNL     1      -1.335  -3.242  -2.869  0.00  0.00    -0.295 N 
ATOM      2  C   UNL     1      -1.578  -3.919  -4.009  0.00  0.00    +0.303 C 
ATOM      3  O   UNL     1      -0.675  -4.128  -4.796  0.00  0.00    -0.253 OA
ATOM      4  N   UNL     1      -2.821  -4.365  -4.276  0.00  0.00    -0.282 N 
ATOM      5  C   UNL     1      -3.909  -4.113  -3.328  0.00  0.00    +0.134 C 
ATOM      6  H   UNL     1      -2.055  -3.075  -2.241  0.00  0.00    +0.151 HD
ENDROOT
BRANCH   4   7
ATOM      7  C   UNL     1      -3.085  -5.102  -5.515  0.00  0.00    +0.104 C 
ATOM      8  C   UNL     1      -3.750  -6.438  -5.181  0.00  0.00    +0.033 C 
BRANCH   7   9
ATOM      9  C   UNL     1      -4.000  -4.291  -6.396  0.00  0.00    -0.024 A 
ATOM     10  C   UNL     1      -3.629  -4.002  -7.696  0.00  0.00    +0.006 A 
ATOM     11  C   UNL     1      -4.467  -3.259  -8.507  0.00  0.00    +0.004 A 
ATOM     12  C   UNL     1      -5.676  -2.802  -8.020  0.00  0.00    +0.045 A 
ATOM     13  C   UNL     1      -6.051  -3.091  -6.716  0.00  0.00    +0.117 A 
ATOM     14  C   UNL     1      -5.211  -3.842  -5.906  0.00  0.00    +0.050 A 
BRANCH  13  15
ATOM     15  O   UNL     1      -7.240  -2.643  -6.234  0.00  0.00    -0.507 OA
ATOM     16  H   UNL     1      -7.975  -3.256  -6.371  0.00  0.00    +0.292 HD
ENDBRANCH  13  15
ENDBRANCH   7   9
ENDBRANCH   4   7
BRANCH   1  17
ATOM     17  C   UNL     1       0.017  -2.757  -2.579  0.00  0.00    +0.143 C 
BRANCH  17  21
ATOM     18  C   UNL     1      -0.067   1.520   0.015  0.00  0.00    +0.044 C 
ATOM     19  C   UNL     1      -0.022   0.014  -0.003  0.00  0.00    -0.049 A 
ATOM     20  C   UNL     1      -0.022  -0.661  -1.216  0.00  0.00    +0.010 A 
ATOM     21  C   UNL     1       0.019  -2.037  -1.255  0.00  0.00    -0.006 A 
ATOM     22  C   UNL     1       0.061  -2.761  -0.068  0.00  0.00    +0.052 A 
ATOM     23  C   UNL     1       0.062  -2.072   1.159  0.00  0.00    +0.003 A 
ATOM     24  C   UNL     1       0.025  -0.677   1.175  0.00  0.00    +0.013 A 
ATOM     25  C   UNL     1       0.111  -3.101   2.201  0.00  0.00    -0.022 A 
ATOM     26  C   UNL     1       0.136  -4.290   1.577  0.00  0.00    +0.017 A 
ATOM     27  N   UNL     1       0.107  -4.106   0.222  0.00  0.00    -0.358 N 
ATOM     28  H   UNL     1       0.117  -4.818  -0.438  0.00  0.00    +0.166 HD
ATOM     29  C   UNL     1       0.188  -5.628   2.268  0.00  0.00    +0.063 C 
ATOM     30  C   UNL     1       0.131  -2.870   3.690  0.00  0.00    +0.046 C 
ENDBRANCH  17  21
ENDBRANCH   1  17
TORSDOF 5
