REMARK  Name = ZINC30829013
REMARK  9 active torsions:
REMARK  status: ('A' for Active; 'I' for Inactive)
REMARK    1  A    between atoms: C_1  and  C_2
REMARK    2  A    between atoms: C_4  and  N_35
REMARK    3  A    between atoms: C_7  and  C_8
REMARK    4  A    between atoms: C_11  and  C_13
REMARK    5  A    between atoms: C_14  and  C_15
REMARK    6  A    between atoms: N_17  and  C_18
REMARK    7  A    between atoms: C_20  and  C_34
REMARK    8  A    between atoms: C_21  and  O_33
REMARK    9  A    between atoms: C_22  and  C_24
REMARK                            x       y       z     vdW  Elec       q    Type
REMARK                         _______ _______ _______ _____ _____    ______ ____
ROOT
ATOM      1  C   UNL     1      -1.223  -0.738  -0.159  0.00  0.00    +0.241 C 
ATOM      2  O   UNL     1      -2.288  -0.164  -0.303  0.00  0.00    -0.270 OA
ATOM      3  N   UNL     1      -1.195  -2.075   0.002  0.00  0.00    -0.282 N 
ATOM      4  H   UNL     1      -0.231  -2.604   0.045  0.00  0.00    +0.155 HD
ENDROOT
BRANCH   3   5
ATOM      5  C   UNL     1      -2.392  -2.792   0.116  0.00  0.00    +0.035 A 
ATOM      6  C   UNL     1      -3.491  -2.214   0.742  0.00  0.00    +0.030 A 
ATOM      7  C   UNL     1      -4.677  -2.912   0.853  0.00  0.00    -0.007 A 
ATOM      8  C   UNL     1      -4.777  -4.200   0.350  0.00  0.00    +0.132 A 
ATOM      9  C   UNL     1      -3.673  -4.791  -0.277  0.00  0.00    +0.080 A 
ATOM     10  C   UNL     1      -2.478  -4.078  -0.391  0.00  0.00    +0.040 A 
ATOM     11  C   UNL     1      -5.864  -2.274   1.527  0.00  0.00    +0.047 C 
BRANCH   9  12
ATOM     12  C   UNL     1      -3.772  -6.163  -0.814  0.00  0.00    +0.233 A 
ATOM     13  N   UNL     1      -4.843  -6.915  -0.759  0.00  0.00    -0.189 NA
ATOM     14  C   UNL     1      -4.573  -8.107  -1.349  0.00  0.00    +0.199 A 
ATOM     15  C   UNL     1      -3.237  -8.044  -1.782  0.00  0.00    +0.174 A 
ATOM     16  O   UNL     1      -2.777  -6.822  -1.437  0.00  0.00    -0.434 OA
ATOM     17  C   UNL     1      -2.680  -9.136  -2.430  0.00  0.00    +0.051 A 
ATOM     18  C   UNL     1      -3.472 -10.257  -2.625  0.00  0.00    +0.023 A 
ATOM     19  C   UNL     1      -4.781 -10.254  -2.173  0.00  0.00    +0.113 A 
ATOM     20  N   UNL     1      -5.291  -9.206  -1.561  0.00  0.00    -0.233 NA
ENDBRANCH   9  12
BRANCH   8  21
ATOM     21  O   UNL     1      -5.943  -4.887   0.465  0.00  0.00    -0.506 OA
ATOM     22  H   UNL     1      -6.021  -5.909   0.066  0.00  0.00    +0.292 HD
ENDBRANCH   8  21
ENDBRANCH   3   5
BRANCH   1  24
ATOM     23  C   UNL     1      -0.045   1.348  -0.324  0.00  0.00    +0.051 C 
ATOM     24  C   UNL     1      -0.016   0.000  -0.162  0.00  0.00    +0.071 C 
BRANCH  23  28
ATOM     25  C   UNL     1       3.303   2.574  -0.232  0.00  0.00    +0.136 A 
ATOM     26  C   UNL     1       2.640   3.753  -0.420  0.00  0.00    +0.050 A 
ATOM     27  C   UNL     1       1.276   3.454  -0.482  0.00  0.00    +0.050 A 
ATOM     28  C   UNL     1       1.161   2.085  -0.327  0.00  0.00    +0.129 A 
ATOM     29  O   UNL     1       2.402   1.577  -0.172  0.00  0.00    -0.455 OA
BRANCH  25  36
ATOM     30  C   UNL     1       4.399   1.054   1.973  0.00  0.00    +0.044 C 
ATOM     31  C   UNL     1       5.307   1.688   0.951  0.00  0.00    -0.038 A 
ATOM     32  C   UNL     1       6.675   1.548   1.060  0.00  0.00    +0.036 A 
ATOM     33  C   UNL     1       7.510   2.129   0.123  0.00  0.00    +0.126 A 
ATOM     34  C   UNL     1       6.980   2.855  -0.930  0.00  0.00    +0.033 A 
ATOM     35  C   UNL     1       5.615   2.999  -1.054  0.00  0.00    +0.014 A 
ATOM     36  C   UNL     1       4.765   2.419  -0.109  0.00  0.00    +0.020 A 
BRANCH  33  37
ATOM     37  N   UNL     1       8.977   1.974   0.246  0.00  0.00    +0.056 N 
ATOM     38  O   UNL     1       9.446   1.336   1.172  0.00  0.00    -0.126 OA
ATOM     39  O   UNL     1       9.715   2.485  -0.577  0.00  0.00    -0.126 OA
ENDBRANCH  33  37
ENDBRANCH  25  36
ENDBRANCH  23  28
ENDBRANCH   1  24
TORSDOF 7
