REMARK  Name = ZINC07685562
REMARK  5 active torsions:
REMARK  status: ('A' for Active; 'I' for Inactive)
REMARK    1  A    between atoms: C_1  and  C_2
REMARK    2  A    between atoms: C_2  and  C_4
REMARK    3  A    between atoms: C_2  and  N_12
REMARK    4  A    between atoms: N_12  and  S_13
REMARK    5  A    between atoms: S_13  and  C_16
REMARK                            x       y       z     vdW  Elec       q    Type
REMARK                         _______ _______ _______ _____ _____    ______ ____
ROOT
ATOM      1  S   UNL     1      -2.017  -1.044  -1.466  0.00  0.00    +0.059 S 
ATOM      2  O   UNL     1      -3.325  -1.516  -1.171  0.00  0.00    -0.153 OA
ATOM      3  O   UNL     1      -1.775  -0.015  -2.415  0.00  0.00    -0.153 OA
ENDROOT
BRANCH   1   4
ATOM      4  C   UNL     1      -1.084  -2.443  -1.991  0.00  0.00    +0.106 A 
ATOM      5  C   UNL     1       0.031  -2.268  -2.791  0.00  0.00    +0.030 A 
ATOM      6  C   UNL     1       0.765  -3.362  -3.205  0.00  0.00    +0.025 A 
ATOM      7  C   UNL     1       0.383  -4.640  -2.816  0.00  0.00    +0.037 A 
ATOM      8  C   UNL     1      -0.736  -4.812  -2.013  0.00  0.00    -0.024 A 
ATOM      9  C   UNL     1      -1.464  -3.714  -1.598  0.00  0.00    +0.034 A 
ATOM     10  C   UNL     1      -1.150  -6.198  -1.591  0.00  0.00    +0.046 C 
ATOM     11  C   UNL     1      -0.829  -7.190  -2.709  0.00  0.00    +0.101 C 
ATOM     12  C   UNL     1       0.583  -6.984  -3.187  0.00  0.00    +0.218 C 
ATOM     13  O   UNL     1       1.243  -7.939  -3.537  0.00  0.00    -0.275 OA
ATOM     14  N   UNL     1       1.122  -5.752  -3.231  0.00  0.00    -0.285 N 
ATOM     15  H   UNL     1       2.029  -5.634  -3.553  0.00  0.00    +0.155 HD
ENDBRANCH   1   4
BRANCH   1  16
ATOM     16  N   UNL     1      -1.365  -0.530  -0.033  0.00  0.00    -0.183 NA
ATOM     17  H   UNL     1      -1.887  -0.578   0.782  0.00  0.00    +0.149 HD
BRANCH  16  19
ATOM     18  C   UNL     1      -0.038   1.524  -0.065  0.00  0.00    +0.031 C 
ATOM     19  C   UNL     1       0.002  -0.004   0.002  0.00  0.00    +0.105 C 
BRANCH  19  20
ATOM     20  C   UNL     1       0.673  -0.434   1.281  0.00  0.00    -0.011 A 
ATOM     21  C   UNL     1      -0.087  -0.699   2.405  0.00  0.00    +0.008 A 
ATOM     22  C   UNL     1       0.527  -1.093   3.579  0.00  0.00    +0.020 A 
ATOM     23  C   UNL     1       1.904  -1.222   3.629  0.00  0.00    +0.042 A 
ATOM     24  C   UNL     1       2.665  -0.958   2.505  0.00  0.00    +0.040 A 
ATOM     25  C   UNL     1       2.049  -0.568   1.329  0.00  0.00    +0.047 A 
ATOM     26 CL   UNL     1       3.003  -0.241  -0.084  0.00  0.00    -0.083 Cl
ATOM     27 CL   UNL     1       2.676  -1.717   5.104  0.00  0.00    -0.083 Cl
ENDBRANCH  19  20
ENDBRANCH  16  19
ENDBRANCH   1  16
TORSDOF 4
