REMARK  Name = ZINC59042157
REMARK  9 active torsions:
REMARK  status: ('A' for Active; 'I' for Inactive)
REMARK    1  A    between atoms: C_4  and  C_7
REMARK    2  A    between atoms: C_10  and  S_13
REMARK    3  A    between atoms: N_11  and  N_12
REMARK    4  A    between atoms: S_13  and  C_14
REMARK    5  A    between atoms: C_14  and  C_15
REMARK    6  A    between atoms: N_17  and  C_18
REMARK    7  A    between atoms: C_23  and  S_24
REMARK    8  A    between atoms: S_24  and  C_25
REMARK    9  A    between atoms: C_25  and  C_26
REMARK                            x       y       z     vdW  Elec       q    Type
REMARK                         _______ _______ _______ _____ _____    ______ ____
ROOT
ATOM      1  C   UNL     1       8.665  -4.586   0.147  0.00  0.00    +0.228 C 
ATOM      2  O   UNL     1       8.149  -5.638   0.457  0.00  0.00    -0.275 OA
ATOM      3  N   UNL     1       9.998  -4.519  -0.044  0.00  0.00    -0.284 N 
ATOM      4  H   UNL     1      10.402  -3.694  -0.356  0.00  0.00    +0.155 HD
ENDROOT
BRANCH   3   5
ATOM      5  C   UNL     1      10.799  -5.641   0.206  0.00  0.00    +0.047 A 
ATOM      6  C   UNL     1      10.313  -6.914  -0.052  0.00  0.00    +0.024 A 
ATOM      7  C   UNL     1      11.104  -8.020   0.196  0.00  0.00    +0.002 A 
ATOM      8  C   UNL     1      12.382  -7.862   0.702  0.00  0.00    +0.001 A 
ATOM      9  C   UNL     1      12.875  -6.597   0.963  0.00  0.00    +0.016 A 
ATOM     10  C   UNL     1      12.089  -5.481   0.711  0.00  0.00    +0.029 A 
BRANCH  10  11
ATOM     11  S   UNL     1      12.717  -3.867   1.036  0.00  0.00    -0.119 S 
BRANCH  11  12
ATOM     12  C   UNL     1      14.392  -4.166   1.665  0.00  0.00    +0.109 C 
BRANCH  12  13
ATOM     13  C   UNL     1      15.051  -2.849   1.986  0.00  0.00    -0.037 A 
ATOM     14  C   UNL     1      15.777  -2.185   1.016  0.00  0.00    +0.006 A 
ATOM     15  C   UNL     1      16.382  -0.978   1.310  0.00  0.00    +0.020 A 
ATOM     16  C   UNL     1      16.259  -0.433   2.576  0.00  0.00    +0.041 A 
ATOM     17  C   UNL     1      15.532  -1.098   3.547  0.00  0.00    +0.020 A 
ATOM     18  C   UNL     1      14.923  -2.303   3.250  0.00  0.00    +0.006 A 
ATOM     19 CL   UNL     1      17.018   1.083   2.946  0.00  0.00    -0.084 Cl
ENDBRANCH  12  13
ENDBRANCH  11  12
ENDBRANCH  10  11
ENDBRANCH   3   5
BRANCH   1  20
ATOM     20  C   UNL     1       7.817  -3.352  -0.025  0.00  0.00    +0.173 C 
BRANCH  20  21
ATOM     21  S   UNL     1       6.080  -3.763   0.298  0.00  0.00    -0.075 S 
BRANCH  21  25
ATOM     22  C   UNL     1       3.687  -0.700  -0.092  0.00  0.00    +0.182 A 
ATOM     23  N   UNL     1       4.862  -0.183  -0.366  0.00  0.00    -0.127 NA
ATOM     24  N   UNL     1       5.770  -1.089  -0.277  0.00  0.00    -0.121 NA
ATOM     25  C   UNL     1       5.229  -2.239   0.059  0.00  0.00    +0.209 A 
ATOM     26  N   UNL     1       3.886  -2.030   0.194  0.00  0.00    -0.224 N 
BRANCH  22  30
ATOM     27  C   UNL     1      -0.030   1.356  -0.075  0.00  0.00    +0.000 A 
ATOM     28  C   UNL     1       1.153   2.073  -0.080  0.00  0.00    +0.001 A 
ATOM     29  C   UNL     1       2.364   1.411  -0.086  0.00  0.00    +0.011 A 
ATOM     30  C   UNL     1       2.393   0.016  -0.085  0.00  0.00    +0.021 A 
ATOM     31  C   UNL     1       1.195  -0.701  -0.079  0.00  0.00    +0.011 A 
ATOM     32  C   UNL     1      -0.009  -0.027  -0.074  0.00  0.00    +0.001 A 
ENDBRANCH  22  30
BRANCH  26  33
ATOM     33  N   UNL     1       2.939  -2.952   0.538  0.00  0.00    -0.295 N 
ATOM     34  H   UNL     1       2.565  -3.410  -0.280  0.00  0.00    +0.163 HD
ATOM     35  H   UNL     1       3.310  -3.625   1.192  0.00  0.00    +0.163 HD
ENDBRANCH  26  33
ENDBRANCH  21  25
ENDBRANCH  20  21
ENDBRANCH   1  20
TORSDOF 9
