REMARK  Name = ZINC09152946
REMARK  7 active torsions:
REMARK  status: ('A' for Active; 'I' for Inactive)
REMARK    1  A    between atoms: C_3  and  S_29
REMARK    2  A    between atoms: C_6  and  C_7
REMARK    3  A    between atoms: C_7  and  C_8
REMARK    4  A    between atoms: C_8  and  N_9
REMARK    5  A    between atoms: C_10  and  C_12
REMARK    6  A    between atoms: C_15  and  C_17
REMARK    7  A    between atoms: S_29  and  N_32
REMARK                            x       y       z     vdW  Elec       q    Type
REMARK                         _______ _______ _______ _____ _____    ______ ____
ROOT
ATOM      1  N   UNL     1      -0.381   2.041  -1.233  0.00  0.00    -0.310 N 
ATOM      2  C   UNL     1      -0.084   1.513  -2.437  0.00  0.00    +0.264 C 
ATOM      3  O   UNL     1       0.858   0.752  -2.552  0.00  0.00    -0.268 OA
ATOM      4  H   UNL     1      -1.132   2.648  -1.142  0.00  0.00    +0.149 HD
ENDROOT
BRANCH   2   5
ATOM      5  C   UNL     1      -0.902   1.857  -3.614  0.00  0.00    +0.147 A 
ATOM      6  C   UNL     1      -0.712   1.402  -4.884  0.00  0.00    +0.051 A 
ATOM      7  N   UNL     1      -1.673   1.967  -5.660  0.00  0.00    -0.327 N 
ATOM      8  C   UNL     1      -2.441   2.754  -4.850  0.00  0.00    +0.142 A 
ATOM      9  N   UNL     1      -1.969   2.684  -3.628  0.00  0.00    -0.223 NA
ATOM     10  C   UNL     1      -1.835   1.774  -7.103  0.00  0.00    +0.123 C 
ATOM     11  C   UNL     1      -1.769   0.279  -7.428  0.00  0.00    +0.022 C 
ATOM     12  C   UNL     1      -0.321  -0.127  -7.697  0.00  0.00    +0.002 C 
ATOM     13  C   UNL     1       0.634   0.691  -6.833  0.00  0.00    +0.006 C 
ATOM     14  C   UNL     1       0.338   0.430  -5.353  0.00  0.00    +0.056 C 
BRANCH   8  15
ATOM     15  C   UNL     1      -3.611   3.551  -5.279  0.00  0.00    +0.018 A 
ATOM     16  C   UNL     1      -3.656   4.093  -6.564  0.00  0.00    +0.013 A 
ATOM     17  C   UNL     1      -4.751   4.832  -6.960  0.00  0.00    +0.021 A 
ATOM     18  C   UNL     1      -5.800   5.045  -6.082  0.00  0.00    +0.041 A 
ATOM     19  C   UNL     1      -5.759   4.514  -4.804  0.00  0.00    +0.021 A 
ATOM     20  C   UNL     1      -4.671   3.769  -4.399  0.00  0.00    +0.013 A 
ATOM     21 CL   UNL     1      -7.172   5.982  -6.585  0.00  0.00    -0.084 Cl
ENDBRANCH   8  15
ENDBRANCH   2   5
BRANCH   1  22
ATOM     22  C   UNL     1       0.432   1.699  -0.063  0.00  0.00    +0.109 C 
BRANCH  22  23
ATOM     23  C   UNL     1      -0.114   2.428   1.167  0.00  0.00    +0.054 C 
BRANCH  23  29
ATOM     24  C   UNL     1       0.381   0.990   3.155  0.00  0.00    +0.005 A 
ATOM     25  C   UNL     1       1.150   0.665   4.257  0.00  0.00    +0.029 A 
ATOM     26  C   UNL     1       2.255   1.431   4.579  0.00  0.00    +0.105 A 
ATOM     27  C   UNL     1       2.593   2.519   3.797  0.00  0.00    +0.029 A 
ATOM     28  C   UNL     1       1.827   2.842   2.693  0.00  0.00    +0.005 A 
ATOM     29  C   UNL     1       0.722   2.076   2.371  0.00  0.00    -0.046 A 
BRANCH  26  30
ATOM     30  S   UNL     1       3.233   1.018   5.986  0.00  0.00    +0.056 S 
ATOM     31  O   UNL     1       3.023  -0.365   6.235  0.00  0.00    -0.153 OA
ATOM     32  O   UNL     1       4.525   1.564   5.756  0.00  0.00    -0.153 OA
BRANCH  30  33
ATOM     33  N   UNL     1       2.598   1.834   7.279  0.00  0.00    -0.204 NA
ATOM     34  H   UNL     1       1.824   2.407   7.159  0.00  0.00    +0.144 HD
ATOM     35  H   UNL     1       2.999   1.739   8.157  0.00  0.00    +0.144 HD
ENDBRANCH  30  33
ENDBRANCH  26  30
ENDBRANCH  23  29
ENDBRANCH  22  23
ENDBRANCH   1  22
TORSDOF 7
