REMARK  Name = ZINC14245524
REMARK  3 active torsions:
REMARK  status: ('A' for Active; 'I' for Inactive)
REMARK    1  A    between atoms: C_1  and  N_2
REMARK    2  A    between atoms: C_3  and  C_5
REMARK    3  A    between atoms: C_16  and  C_18
REMARK                            x       y       z     vdW  Elec       q    Type
REMARK                         _______ _______ _______ _____ _____    ______ ____
ROOT
ATOM      1  C   UNL     1       3.360   1.760  -1.103  0.00  0.00    +0.276 C 
ATOM      2  C   UNL     1       2.441   1.124  -0.045  0.00  0.00    +0.168 C 
ATOM      3  N   UNL     1       1.165   1.859  -0.070  0.00  0.00    -0.260 N 
ATOM      4  C   UNL     1       1.221   3.259  -0.172  0.00  0.00    +0.079 A 
ATOM      5  C   UNL     1       0.092   4.020   0.087  0.00  0.00    +0.027 A 
ATOM      6  C   UNL     1       0.151   5.398  -0.018  0.00  0.00    +0.002 A 
ATOM      7  C   UNL     1       1.334   6.015  -0.380  0.00  0.00    +0.004 A 
ATOM      8  C   UNL     1       2.463   5.261  -0.640  0.00  0.00    +0.047 A 
ATOM      9  C   UNL     1       2.414   3.878  -0.536  0.00  0.00    +0.143 A 
ATOM     10  O   UNL     1       3.530   3.145  -0.789  0.00  0.00    -0.476 OA
ATOM     11  C   UNL     1      -0.014   1.212   0.009  0.00  0.00    +0.258 C 
ATOM     12  O   UNL     1      -1.056   1.840  -0.033  0.00  0.00    -0.269 OA
ENDROOT
BRANCH  11  13
ATOM     13  C   UNL     1      -0.042  -0.250   0.151  0.00  0.00    +0.076 A 
ATOM     14  C   UNL     1      -1.112  -1.087   0.090  0.00  0.00    +0.029 A 
ATOM     15  C   UNL     1      -0.929  -2.473   0.249  0.00  0.00    -0.010 A 
ATOM     16  C   UNL     1      -1.909  -3.498   0.212  0.00  0.00    +0.009 A 
ATOM     17  C   UNL     1      -1.561  -4.798   0.392  0.00  0.00    +0.001 A 
ATOM     18  C   UNL     1      -0.243  -5.175   0.617  0.00  0.00    +0.001 A 
ATOM     19  C   UNL     1       0.743  -4.210   0.660  0.00  0.00    +0.015 A 
ATOM     20  C   UNL     1       0.405  -2.885   0.479  0.00  0.00    +0.020 A 
ATOM     21  S   UNL     1       1.318  -1.364   0.456  0.00  0.00    -0.084 S 
ENDBRANCH  11  13
BRANCH   1  24
ATOM     22  C   UNL     1       6.099  -0.893  -1.440  0.00  0.00    +0.128 C 
ATOM     23  N   UNL     1       4.796  -0.222  -1.455  0.00  0.00    -0.315 N 
ATOM     24  C   UNL     1       4.700   1.071  -1.088  0.00  0.00    +0.255 C 
ATOM     25  O   UNL     1       5.691   1.679  -0.745  0.00  0.00    -0.272 OA
ATOM     26  H   UNL     1       4.003  -0.709  -1.730  0.00  0.00    +0.148 HD
ENDBRANCH   1  24
TORSDOF 2
