REMARK  Name = ZINC48622760
REMARK  1 active torsions:
REMARK  status: ('A' for Active; 'I' for Inactive)
REMARK    1  A    between atoms: C_4  and  C_7
REMARK                            x       y       z     vdW  Elec       q    Type
REMARK                         _______ _______ _______ _____ _____    ______ ____
ROOT
ATOM      1  C   UNL     1       3.585  -0.691  -0.036  0.00  0.00    +0.180 A 
ATOM      2  N   UNL     1       3.568  -2.059  -0.049  0.00  0.00    -0.304 N 
ATOM      3  H   UNL     1       2.717  -2.525  -0.048  0.00  0.00    +0.170 HD
ATOM      4  C   UNL     1       4.713  -2.769  -0.063  0.00  0.00    +0.260 A 
ATOM      5  O   UNL     1       4.691  -3.988  -0.075  0.00  0.00    -0.267 OA
ATOM      6  C   UNL     1       5.996  -2.034  -0.065  0.00  0.00    +0.076 A 
ATOM      7  C   UNL     1       7.310  -2.578  -0.074  0.00  0.00    -0.012 A 
ATOM      8  C   UNL     1       8.340  -1.687  -0.082  0.00  0.00    +0.051 A 
ATOM      9  S   UNL     1       7.577  -0.090  -0.059  0.00  0.00    -0.062 S 
ATOM     10  C   UNL     1       5.885  -0.631  -0.051  0.00  0.00    +0.117 A 
ATOM     11  N   UNL     1       4.713  -0.017  -0.043  0.00  0.00    -0.219 NA
ATOM     12  S   UNL     1      10.055  -2.066  -0.116  0.00  0.00    -0.118 S 
ATOM     13  C   UNL     1      10.036  -3.864   0.195  0.00  0.00    +0.075 C 
ATOM     14  C   UNL     1       8.895  -4.453  -0.648  0.00  0.00    +0.016 C 
ATOM     15  C   UNL     1       7.542  -4.082  -0.065  0.00  0.00    +0.038 C 
ENDROOT
BRANCH   1  19
ATOM     16  C   UNL     1      -0.017   1.383   0.010  0.00  0.00    +0.039 A 
ATOM     17  C   UNL     1       1.193   2.064   0.002  0.00  0.00    +0.115 A 
ATOM     18  N   UNL     1       2.320   1.375  -0.013  0.00  0.00    -0.233 NA
ATOM     19  C   UNL     1       2.303   0.048  -0.020  0.00  0.00    +0.196 A 
ATOM     20  N   UNL     1       1.164  -0.633  -0.013  0.00  0.00    -0.233 NA
ATOM     21  C   UNL     1       0.002  -0.004   0.002  0.00  0.00    +0.115 A 
ENDBRANCH   1  19
TORSDOF 1
