REMARK  Name = ZINC63362172
REMARK  6 active torsions:
REMARK  status: ('A' for Active; 'I' for Inactive)
REMARK    1  A    between atoms: C_1  and  C_2
REMARK    2  A    between atoms: C_2  and  C_4
REMARK    3  A    between atoms: C_2  and  N_16
REMARK    4  A    between atoms: N_6  and  C_7
REMARK    5  A    between atoms: C_7  and  C_8
REMARK    6  A    between atoms: C_19  and  C_35
REMARK                            x       y       z     vdW  Elec       q    Type
REMARK                         _______ _______ _______ _____ _____    ______ ____
ROOT
ATOM      1  N   UNL     1       0.711  -0.489   1.189  0.00  0.00    -0.212 N 
ATOM      2  C   UNL     1       0.159  -1.285   2.128  0.00  0.00    +0.249 C 
ATOM      3  O   UNL     1      -0.982  -1.694   2.162  0.00  0.00    -0.273 OA
ATOM      4  C   UNL     1       1.259  -1.562   3.130  0.00  0.00    +0.136 C 
ATOM      5  C   UNL     1       0.866  -1.016   4.507  0.00  0.00    +0.139 C 
ATOM      6  C   UNL     1       2.165  -0.829   5.283  0.00  0.00    -0.034 C 
ATOM      7  C   UNL     1       2.046  -1.554   6.391  0.00  0.00    -0.001 A 
ATOM      8  C   UNL     1       2.940  -1.724   7.548  0.00  0.00    +0.010 A 
ATOM      9  C   UNL     1       2.505  -2.566   8.522  0.00  0.00    +0.001 A 
ATOM     10  C   UNL     1       1.284  -3.247   8.462  0.00  0.00    +0.002 A 
ATOM     11  C   UNL     1       0.399  -3.145   7.439  0.00  0.00    +0.026 A 
ATOM     12  C   UNL     1       0.744  -2.286   6.355  0.00  0.00    +0.043 A 
ATOM     13  N   UNL     1       0.077  -1.991   5.264  0.00  0.00    -0.375 N 
ATOM     14  C   UNL     1       3.326  -0.013   4.769  0.00  0.00    +0.052 C 
ATOM     15  C   UNL     1       3.646  -0.520   3.349  0.00  0.00    +0.115 C 
ATOM     16  N   UNL     1       2.379  -0.728   2.640  0.00  0.00    -0.269 N 
ATOM     17  C   UNL     1       1.988  -0.202   1.472  0.00  0.00    +0.313 C 
ATOM     18  O   UNL     1       2.708   0.462   0.753  0.00  0.00    -0.252 OA
ATOM     19  C   UNL     1       1.627  -3.046   3.178  0.00  0.00    +0.044 C 
ATOM     20  H   UNL     1      -0.782  -2.353   4.998  0.00  0.00    +0.160 HD
ENDROOT
BRANCH   1  22
ATOM     21  C   UNL     1      -0.019   1.526   0.010  0.00  0.00    +0.038 C 
ATOM     22  C   UNL     1       0.002  -0.004   0.002  0.00  0.00    +0.168 C 
BRANCH  22  23
ATOM     23  C   UNL     1       0.707  -0.490  -1.238  0.00  0.00    +0.234 C 
ATOM     24  O   UNL     1       1.704  -1.174  -1.140  0.00  0.00    -0.274 OA
ATOM     25  N   UNL     1       0.231  -0.164  -2.456  0.00  0.00    -0.310 N 
ATOM     26  H   UNL     1      -0.566   0.383  -2.534  0.00  0.00    +0.149 HD
BRANCH  25  27
ATOM     27  C   UNL     1       0.917  -0.637  -3.661  0.00  0.00    +0.144 C 
BRANCH  27  28
ATOM     28  C   UNL     1       0.188  -0.137  -4.882  0.00  0.00    +0.023 A 
ATOM     29  C   UNL     1      -0.830  -0.893  -5.439  0.00  0.00    +0.129 A 
ATOM     30  C   UNL     1      -1.499  -0.434  -6.560  0.00  0.00    +0.039 A 
ATOM     31  C   UNL     1      -1.150   0.779  -7.124  0.00  0.00    +0.004 A 
ATOM     32  C   UNL     1      -0.135   1.534  -6.568  0.00  0.00    +0.020 A 
ATOM     33  C   UNL     1       0.531   1.079  -5.444  0.00  0.00    +0.048 A 
ATOM     34 CL   UNL     1       1.802   2.031  -4.742  0.00  0.00    -0.083 Cl
ATOM     35  F   UNL     1      -1.170  -2.079  -4.888  0.00  0.00    -0.205 F 
ENDBRANCH  27  28
ENDBRANCH  25  27
ENDBRANCH  22  23
ENDBRANCH   1  22
TORSDOF 4
