REMARK  Name = ZINC36674268
REMARK  9 active torsions:
REMARK  status: ('A' for Active; 'I' for Inactive)
REMARK    1  A    between atoms: C_1  and  C_2
REMARK    2  A    between atoms: N_10  and  C_14
REMARK    3  A    between atoms: C_14  and  C_15
REMARK    4  A    between atoms: N_17  and  C_18
REMARK    5  A    between atoms: C_18  and  C_19
REMARK    6  A    between atoms: C_19  and  C_21
REMARK    7  A    between atoms: C_19  and  N_28
REMARK    8  A    between atoms: N_28  and  C_29
REMARK    9  A    between atoms: N_28  and  C_30
REMARK                            x       y       z     vdW  Elec       q    Type
REMARK                         _______ _______ _______ _____ _____    ______ ____
ROOT
ATOM      1  C   UNL     1       2.936  -6.253  -2.029  0.00  0.00    +0.231 C 
ATOM      2  O   UNL     1       2.769  -5.606  -3.041  0.00  0.00    -0.274 OA
ATOM      3  N   UNL     1       3.549  -7.452  -2.089  0.00  0.00    -0.315 N 
ATOM      4  H   UNL     1       3.683  -7.969  -1.279  0.00  0.00    +0.149 HD
ENDROOT
BRANCH   1   5
ATOM      5  C   UNL     1       2.459  -5.716  -0.704  0.00  0.00    +0.213 C 
BRANCH   5  15
ATOM      6  C   UNL     1      -1.451   1.161  -1.872  0.00  0.00    +0.007 C 
ATOM      7  C   UNL     1      -1.297  -0.356  -1.748  0.00  0.00    -0.014 C 
ATOM      8  C   UNL     1      -0.310  -0.856  -2.806  0.00  0.00    +0.006 C 
ATOM      9  C   UNL     1      -0.164  -2.376  -2.688  0.00  0.00    +0.035 C 
ATOM     10  C   UNL     1       0.335  -2.733  -1.292  0.00  0.00    +0.113 C 
ATOM     11  C   UNL     1      -0.628  -2.222  -0.227  0.00  0.00    +0.035 C 
ATOM     12  C   UNL     1      -0.772  -0.703  -0.353  0.00  0.00    +0.006 C 
ATOM     13  C   UNL     1       0.520  -4.227  -1.164  0.00  0.00    +0.247 C 
ATOM     14  O   UNL     1      -0.332  -5.084  -1.271  0.00  0.00    -0.273 OA
ATOM     15  N   UNL     1       1.831  -4.408  -0.905  0.00  0.00    -0.215 N 
ATOM     16  C   UNL     1       2.489  -3.243  -0.854  0.00  0.00    +0.310 C 
ATOM     17  O   UNL     1       3.680  -3.148  -0.635  0.00  0.00    -0.252 OA
ATOM     18  N   UNL     1       1.681  -2.187  -1.073  0.00  0.00    -0.285 N 
ATOM     19  H   UNL     1       1.937  -1.252  -1.083  0.00  0.00    +0.151 HD
ENDBRANCH   5  15
ENDBRANCH   1   5
BRANCH   3  20
ATOM     20  C   UNL     1       4.014  -7.974  -3.377  0.00  0.00    +0.093 C 
BRANCH  20  21
ATOM     21  C   UNL     1       4.775  -9.282  -3.152  0.00  0.00    -0.020 C 
BRANCH  21  22
ATOM     22  C   UNL     1       6.025  -9.005  -2.357  0.00  0.00    -0.041 A 
ATOM     23  C   UNL     1       6.051  -9.262  -0.999  0.00  0.00    +0.003 A 
ATOM     24  C   UNL     1       7.198  -9.008  -0.269  0.00  0.00    +0.000 A 
ATOM     25  C   UNL     1       8.319  -8.498  -0.897  0.00  0.00    +0.001 A 
ATOM     26  C   UNL     1       8.294  -8.241  -2.255  0.00  0.00    +0.020 A 
ATOM     27  C   UNL     1       7.148  -8.500  -2.987  0.00  0.00    +0.043 A 
ATOM     28 CL   UNL     1       7.118  -8.183  -4.694  0.00  0.00    -0.083 Cl
ENDBRANCH  21  22
BRANCH  21  29
ATOM     29  N   UNL     1       3.923 -10.223  -2.414  0.00  0.00    +0.382 N 
ATOM     30  C   UNL     1       2.649 -10.392  -3.124  0.00  0.00    -0.096 C 
ATOM     31  C   UNL     1       4.603 -11.522  -2.313  0.00  0.00    -0.096 C 
ATOM     32  H   UNL     1       3.747  -9.863  -1.488  0.00  0.00    -0.082 HD
ENDBRANCH  21  29
ENDBRANCH  20  21
ENDBRANCH   3  20
TORSDOF 6
