REMARK  Name = ZINC06116489
REMARK  5 active torsions:
REMARK  status: ('A' for Active; 'I' for Inactive)
REMARK    1  A    between atoms: C_1  and  S_2
REMARK    2  A    between atoms: S_2  and  N_5
REMARK    3  A    between atoms: N_5  and  C_6
REMARK    4  A    between atoms: C_11  and  C_24
REMARK    5  A    between atoms: C_14  and  C_17
REMARK                            x       y       z     vdW  Elec       q    Type
REMARK                         _______ _______ _______ _____ _____    ______ ____
ROOT
ATOM      1  C   UNL     1       0.992  -1.754  -1.718  0.00  0.00    +0.255 A 
ATOM      2  N   UNL     1       1.621  -2.207  -2.812  0.00  0.00    -0.297 N 
ATOM      3  C   UNL     1       1.627  -3.513  -2.802  0.00  0.00    +0.193 A 
ATOM      4  N   UNL     1       0.990  -3.930  -1.682  0.00  0.00    -0.225 N 
ATOM      5  N   UNL     1       0.596  -2.780  -0.997  0.00  0.00    -0.130 NA
ATOM      6  C   UNL     1       0.791  -5.333  -1.320  0.00  0.00    +0.143 C 
ATOM      7  C   UNL     1       0.971  -6.197  -2.574  0.00  0.00    +0.058 C 
ATOM      8  C   UNL     1       2.270  -5.809  -3.289  0.00  0.00    +0.106 C 
ATOM      9  N   UNL     1       2.165  -4.402  -3.724  0.00  0.00    -0.308 N 
ATOM     10  H   UNL     1       2.455  -4.115  -4.603  0.00  0.00    +0.149 HD
ATOM     11  H   UNL     1       2.010  -1.650  -3.505  0.00  0.00    +0.171 HD
ENDROOT
BRANCH   8  12
ATOM     12  C   UNL     1       3.433  -5.965  -2.344  0.00  0.00    -0.027 A 
ATOM     13  C   UNL     1       3.695  -4.987  -1.403  0.00  0.00    +0.007 A 
ATOM     14  C   UNL     1       4.762  -5.130  -0.536  0.00  0.00    +0.020 A 
ATOM     15  C   UNL     1       5.569  -6.251  -0.611  0.00  0.00    +0.041 A 
ATOM     16  C   UNL     1       5.306  -7.230  -1.554  0.00  0.00    +0.020 A 
ATOM     17  C   UNL     1       4.235  -7.088  -2.416  0.00  0.00    +0.007 A 
ATOM     18 CL   UNL     1       6.910  -6.431   0.477  0.00  0.00    -0.084 Cl
ENDBRANCH   8  12
BRANCH   6  19
ATOM     19  C   UNL     1      -0.599  -5.520  -0.769  0.00  0.00    -0.023 A 
ATOM     20  C   UNL     1      -1.698  -5.225  -1.553  0.00  0.00    +0.008 A 
ATOM     21  C   UNL     1      -2.974  -5.397  -1.049  0.00  0.00    +0.038 A 
ATOM     22  C   UNL     1      -3.150  -5.865   0.242  0.00  0.00    +0.123 A 
ATOM     23  C   UNL     1      -2.048  -6.161   1.026  0.00  0.00    +0.038 A 
ATOM     24  C   UNL     1      -0.773  -5.993   0.518  0.00  0.00    +0.008 A 
ATOM     25  F   UNL     1      -4.396  -6.034   0.736  0.00  0.00    -0.205 F 
ENDBRANCH   6  19
BRANCH   1  26
ATOM     26  N   UNL     1       0.795  -0.411  -1.394  0.00  0.00    -0.063 NA
BRANCH  26  28
ATOM     27  C   UNL     1      -0.022   1.810   0.012  0.00  0.00    +0.220 C 
ATOM     28  S   UNL     1       0.002  -0.004   0.002  0.00  0.00    +0.062 S 
ATOM     29  O   UNL     1       0.835  -0.488   1.046  0.00  0.00    -0.154 OA
ATOM     30  O   UNL     1      -1.315  -0.510  -0.168  0.00  0.00    -0.154 OA
ENDBRANCH  26  28
ENDBRANCH   1  26
TORSDOF 4
