REMARK  Name = ZINC39556145
REMARK  5 active torsions:
REMARK  status: ('A' for Active; 'I' for Inactive)
REMARK    1  A    between atoms: C_1  and  C_2
REMARK    2  A    between atoms: C_4  and  N_8
REMARK    3  A    between atoms: C_9  and  C_11
REMARK    4  A    between atoms: C_11  and  S_12
REMARK    5  A    between atoms: S_12  and  C_13
REMARK                            x       y       z     vdW  Elec       q    Type
REMARK                         _______ _______ _______ _____ _____    ______ ____
ROOT
ATOM      1  C   UNL     1      -2.860  -7.353   3.444  0.00  0.00    +0.235 C 
ATOM      2  N   UNL     1      -1.644  -7.474   4.255  0.00  0.00    -0.357 N 
ATOM      3  C   UNL     1      -1.597  -6.901   5.451  0.00  0.00    +0.048 A 
ATOM      4  C   UNL     1      -0.441  -7.001   6.253  0.00  0.00    +0.026 A 
ATOM      5  C   UNL     1      -0.418  -6.404   7.476  0.00  0.00    +0.002 A 
ATOM      6  C   UNL     1      -1.512  -5.694   7.960  0.00  0.00    +0.001 A 
ATOM      7  C   UNL     1      -2.657  -5.561   7.234  0.00  0.00    +0.013 A 
ATOM      8  C   UNL     1      -2.748  -6.152   5.963  0.00  0.00    +0.034 A 
ATOM      9  C   UNL     1      -3.926  -6.024   5.197  0.00  0.00    +0.106 C 
ATOM     10  N   UNL     1      -4.003  -6.600   3.971  0.00  0.00    -0.256 N 
ATOM     11  C   UNL     1      -5.255  -6.326   3.436  0.00  0.00    +0.059 A 
ATOM     12  C   UNL     1      -5.867  -6.660   2.235  0.00  0.00    +0.025 A 
ATOM     13  C   UNL     1      -7.154  -6.234   1.978  0.00  0.00    +0.002 A 
ATOM     14  C   UNL     1      -7.839  -5.475   2.912  0.00  0.00    +0.002 A 
ATOM     15  C   UNL     1      -7.241  -5.138   4.109  0.00  0.00    +0.025 A 
ATOM     16  C   UNL     1      -5.946  -5.561   4.379  0.00  0.00    +0.054 A 
ATOM     17  N   UNL     1      -5.098  -5.388   5.462  0.00  0.00    -0.301 N 
ATOM     18  H   UNL     1      -5.306  -4.896   6.272  0.00  0.00    +0.153 HD
ATOM     19  H   UNL     1      -0.880  -7.970   3.920  0.00  0.00    +0.162 HD
ENDROOT
BRANCH   1  20
ATOM     20  S   UNL     1      -2.389  -6.593   1.865  0.00  0.00    -0.107 S 
BRANCH  20  21
ATOM     21  C   UNL     1      -1.828  -4.931   2.329  0.00  0.00    +0.168 C 
BRANCH  21  23
ATOM     22  N   UNL     1      -0.946  -2.918   1.194  0.00  0.00    -0.288 N 
ATOM     23  C   UNL     1      -1.402  -4.182   1.093  0.00  0.00    +0.225 C 
ATOM     24  O   UNL     1      -1.470  -4.717   0.006  0.00  0.00    -0.275 OA
ATOM     25  H   UNL     1      -0.891  -2.491   2.063  0.00  0.00    +0.151 HD
BRANCH  22  29
ATOM     26  C   UNL     1      -0.018   1.503   0.010  0.00  0.00    +0.067 C 
ATOM     27  C   UNL     1       0.002  -0.004   0.002  0.00  0.00    +0.060 C 
ATOM     28  C   UNL     1      -1.086  -0.777   0.003  0.00  0.00    +0.045 C 
ATOM     29  C   UNL     1      -0.531  -2.190  -0.007  0.00  0.00    +0.239 C 
ATOM     30  N   UNL     1       0.926  -1.973  -0.013  0.00  0.00    -0.160 NA
ATOM     31  N   UNL     1       1.125  -0.756  -0.013  0.00  0.00    -0.157 NA
ENDBRANCH  22  29
ENDBRANCH  21  23
ENDBRANCH  20  21
ENDBRANCH   1  20
TORSDOF 4
