REMARK  Name = ZINC15962380
REMARK  16 active torsions:
REMARK  status: ('A' for Active; 'I' for Inactive)
REMARK    1  A    between atoms: C_1  and  C_2
REMARK    2  A    between atoms: C_2  and  O_3
REMARK    3  A    between atoms: O_3  and  C_4
REMARK    4  A    between atoms: C_4  and  C_6
REMARK    5  A    between atoms: C_10  and  N_11
REMARK    6  A    between atoms: C_12  and  C_14
REMARK    7  A    between atoms: C_16  and  O_24
REMARK    8  A    between atoms: C_17  and  O_22
REMARK    9  A    between atoms: C_18  and  O_20
REMARK   10  A    between atoms: O_20  and  C_21
REMARK   11  A    between atoms: O_22  and  C_23
REMARK   12  A    between atoms: O_24  and  C_25
REMARK   13  A    between atoms: C_26  and  C_31
REMARK   14  A    between atoms: C_26  and  C_32
REMARK   15  A    between atoms: C_27  and  C_29
REMARK   16  A    between atoms: C_27  and  C_30
REMARK                            x       y       z     vdW  Elec       q    Type
REMARK                         _______ _______ _______ _____ _____    ______ ____
ROOT
ATOM      1  C   UNL     1       3.393   6.514   0.004  0.00  0.00    +0.091 A 
ATOM      2  C   UNL     1       3.099   7.932   0.008  0.00  0.00    -0.024 A 
ATOM      3  C   UNL     1       1.786   8.256   0.027  0.00  0.00    -0.016 A 
ATOM      4  S   UNL     1       0.942   6.701   0.030  0.00  0.00    -0.079 S 
ATOM      5  C   UNL     1       2.311   5.639   0.009  0.00  0.00    +0.086 A 
ATOM      6  C   UNL     1       1.210   9.634   0.050  0.00  0.00    -0.041 C 
ATOM      7  C   UNL     1       3.494  10.242  -0.754  0.00  0.00    -0.069 C 
ATOM      8  C   UNL     1       4.125   9.057  -0.014  0.00  0.00    +0.024 C 
ATOM      9  C   UNL     1       3.306   9.874  -2.229  0.00  0.00    -0.010 C 
ATOM     10  C   UNL     1       4.481  11.422  -0.684  0.00  0.00    -0.010 C 
ATOM     11  C   UNL     1       0.122   9.750  -1.027  0.00  0.00    -0.005 C 
ATOM     12  C   UNL     1       0.545   9.860   1.422  0.00  0.00    -0.005 C 
ATOM     13  N   UNL     1       2.226  10.710  -0.137  0.00  0.00    +0.389 N 
ATOM     14  H   UNL     1       2.444  11.111   0.782  0.00  0.00    -0.084 HD
ATOM     15  H   UNL     1       1.821  11.435  -0.740  0.00  0.00    -0.084 HD
ENDROOT
BRANCH   5  16
ATOM     16  N   UNL     1       2.327   4.255   0.002  0.00  0.00    -0.275 N 
ATOM     17  C   UNL     1       1.167   3.567   0.010  0.00  0.00    +0.249 C 
ATOM     18  O   UNL     1       0.108   4.163   0.022  0.00  0.00    -0.270 OA
ATOM     19  H   UNL     1       3.172   3.779  -0.008  0.00  0.00    +0.156 HD
BRANCH  17  20
ATOM     20  C   UNL     1       1.185   2.092   0.002  0.00  0.00    +0.044 A 
ATOM     21  C   UNL     1      -0.017   1.378   0.010  0.00  0.00    +0.062 A 
ATOM     22  C   UNL     1       0.002  -0.004   0.002  0.00  0.00    +0.166 A 
ATOM     23  C   UNL     1       1.216  -0.685  -0.014  0.00  0.00    +0.204 A 
ATOM     24  C   UNL     1       2.415   0.024  -0.021  0.00  0.00    +0.166 A 
ATOM     25  C   UNL     1       2.402   1.406  -0.013  0.00  0.00    +0.062 A 
BRANCH  24  26
ATOM     26  O   UNL     1       3.599  -0.644  -0.037  0.00  0.00    -0.491 OA
ATOM     27  C   UNL     1       4.790   0.146  -0.044  0.00  0.00    +0.277 C 
ENDBRANCH  24  26
BRANCH  23  28
ATOM     28  O   UNL     1       1.232  -2.044  -0.021  0.00  0.00    -0.488 OA
ATOM     29  C   UNL     1       1.227  -2.686  -1.298  0.00  0.00    +0.277 C 
ENDBRANCH  23  28
BRANCH  22  30
ATOM     30  O   UNL     1      -1.167  -0.699   0.009  0.00  0.00    -0.491 OA
ATOM     31  C   UNL     1      -2.375   0.063   0.025  0.00  0.00    +0.277 C 
ENDBRANCH  22  30
ENDBRANCH  17  20
ENDBRANCH   5  16
BRANCH   1  32
ATOM     32  C   UNL     1       4.767   6.010  -0.003  0.00  0.00    +0.342 C 
ATOM     33  O   UNL     1       5.333   5.800  -1.059  0.00  0.00    -0.245 OA
BRANCH  32  34
ATOM     34  O   UNL     1       5.406   5.777   1.162  0.00  0.00    -0.461 OA
BRANCH  34  36
ATOM     35  C   UNL     1       7.322   5.075   2.490  0.00  0.00    +0.048 C 
ATOM     36  C   UNL     1       6.767   5.277   1.079  0.00  0.00    +0.229 C 
ENDBRANCH  34  36
ENDBRANCH  32  34
ENDBRANCH   1  32
TORSDOF 8
