REMARK  Name = ZINC44321542
REMARK  13 active torsions:
REMARK  status: ('A' for Active; 'I' for Inactive)
REMARK    1  A    between atoms: C_1  and  C_2
REMARK    2  A    between atoms: C_2  and  O_3
REMARK    3  A    between atoms: O_3  and  C_4
REMARK    4  A    between atoms: C_8  and  C_13
REMARK    5  A    between atoms: C_9  and  O_10
REMARK    6  A    between atoms: O_10  and  C_11
REMARK    7  A    between atoms: C_11  and  C_12
REMARK    8  A    between atoms: C_13  and  CA_14
REMARK    9  A    between atoms: CA_14  and  C_16
REMARK   10  A    between atoms: CA_14  and  N_19
REMARK   11  A    between atoms: C_20  and  O_22
REMARK   12  A    between atoms: O_22  and  C_23
REMARK   13  A    between atoms: C_23  and  C_24
REMARK                            x       y       z     vdW  Elec       q    Type
REMARK                         _______ _______ _______ _____ _____    ______ ____
ROOT
ATOM      1  N   UNL     1      -4.700  -2.779  -2.257  0.00  0.00    -0.267 N 
ATOM      2  C   UNL     1      -4.569  -2.433  -3.553  0.00  0.00    +0.401 C 
ATOM      3  O   UNL     1      -4.346  -3.286  -4.390  0.00  0.00    -0.226 OA
ATOM      4  H   UNL     1      -4.878  -2.098  -1.589  0.00  0.00    +0.153 HD
ENDROOT
BRANCH   1   5
ATOM      5  CA  UNL     1      -4.573  -4.182  -1.856  0.00  0.00    +0.193 C 
BRANCH   5   6
ATOM      6  C   UNL     1      -5.908  -4.867  -1.995  0.00  0.00    +0.376 C 
ATOM      7  O   UNL     1      -6.911  -4.209  -2.214  0.00  0.00    -0.244 OA
ATOM      8  OXT UNL     1      -5.985  -6.079  -1.888  0.00  0.00    -0.244 OA
ENDBRANCH   5   6
BRANCH   5   9
ATOM      9  C   UNL     1      -4.110  -4.257  -0.400  0.00  0.00    +0.073 C 
BRANCH   9  14
ATOM     10  C   UNL     1      -0.336  -3.962  -0.457  0.00  0.00    +0.162 A 
ATOM     11  C   UNL     1      -0.161  -2.643  -0.072  0.00  0.00    +0.049 A 
ATOM     12  C   UNL     1      -1.261  -1.852   0.203  0.00  0.00    +0.004 A 
ATOM     13  C   UNL     1      -2.537  -2.374   0.097  0.00  0.00    +0.007 A 
ATOM     14  C   UNL     1      -2.718  -3.690  -0.286  0.00  0.00    +0.000 A 
ATOM     15  C   UNL     1      -1.620  -4.487  -0.570  0.00  0.00    +0.165 A 
BRANCH  10  16
ATOM     16  O   UNL     1       0.745  -4.742  -0.729  0.00  0.00    -0.489 OA
BRANCH  16  18
ATOM     17  C   UNL     1       3.116  -5.160  -0.938  0.00  0.00    +0.048 C 
ATOM     18  C   UNL     1       2.032  -4.136  -0.592  0.00  0.00    +0.226 C 
ENDBRANCH  16  18
ENDBRANCH  10  16
BRANCH  15  19
ATOM     19  O   UNL     1      -1.797  -5.780  -0.952  0.00  0.00    -0.488 OA
BRANCH  19  20
ATOM     20  C   UNL     1      -1.728  -6.774   0.072  0.00  0.00    +0.226 C 
ATOM     21  C   UNL     1      -1.843  -8.164  -0.559  0.00  0.00    +0.048 C 
ENDBRANCH  19  20
ENDBRANCH  15  19
ENDBRANCH   9  14
ENDBRANCH   5   9
ENDBRANCH   1   5
BRANCH   2  22
ATOM     22  O   UNL     1      -4.686  -1.144  -3.921  0.00  0.00    -0.449 OA
BRANCH  22  23
ATOM     23  C   UNL     1      -4.536  -0.850  -5.312  0.00  0.00    +0.246 C 
BRANCH  23  24
ATOM     24  C   UNL     1      -4.701   0.655  -5.536  0.00  0.00    +0.088 C 
ATOM     25  C   UNL     1      -3.540   1.401  -4.925  0.00  0.00    -0.029 A 
ATOM     26  C   UNL     1      -3.077   1.493  -3.629  0.00  0.00    +0.005 A 
ATOM     27  C   UNL     1      -1.965   2.266  -3.344  0.00  0.00    +0.000 A 
ATOM     28  C   UNL     1      -1.316   2.947  -4.357  0.00  0.00    +0.001 A 
ATOM     29  C   UNL     1      -1.772   2.860  -5.657  0.00  0.00    +0.009 A 
ATOM     30  C   UNL     1      -2.893   2.083  -5.952  0.00  0.00    -0.014 A 
ATOM     31  C   UNL     1      -3.586   1.816  -7.236  0.00  0.00    -0.014 A 
ATOM     32  C   UNL     1      -4.667   0.967  -7.012  0.00  0.00    -0.029 A 
ATOM     33  C   UNL     1      -5.471   0.573  -8.060  0.00  0.00    +0.005 A 
ATOM     34  C   UNL     1      -5.206   1.020  -9.342  0.00  0.00    +0.000 A 
ATOM     35  C   UNL     1      -4.135   1.863  -9.575  0.00  0.00    +0.001 A 
ATOM     36  C   UNL     1      -3.325   2.263  -8.533  0.00  0.00    +0.009 A 
ENDBRANCH  23  24
ENDBRANCH  22  23
ENDBRANCH   2  22
TORSDOF 11
