REMARK  Name = ZINC65198125
REMARK  8 active torsions:
REMARK  status: ('A' for Active; 'I' for Inactive)
REMARK    1  A    between atoms: C_1  and  O_2
REMARK    2  A    between atoms: O_2  and  C_3
REMARK    3  A    between atoms: C_6  and  N_9
REMARK    4  A    between atoms: C_12  and  C_14
REMARK    5  A    between atoms: N_16  and  N_17
REMARK    6  A    between atoms: N_20  and  C_21
REMARK    7  A    between atoms: C_21  and  C_22
REMARK    8  A    between atoms: C_22  and  C_23
REMARK                            x       y       z     vdW  Elec       q    Type
REMARK                         _______ _______ _______ _____ _____    ______ ____
ROOT
ATOM      1  C   UNL     1       4.340  -2.472   7.305  0.00  0.00    +0.280 C 
ATOM      2  O   UNL     1       4.768  -3.378   7.995  0.00  0.00    -0.267 OA
ATOM      3  N   UNL     1       4.527  -1.192   7.683  0.00  0.00    -0.228 N 
ATOM      4  H   UNL     1       4.186  -0.469   7.133  0.00  0.00    +0.173 HD
ENDROOT
BRANCH   3   5
ATOM      5  N   UNL     1       5.215  -0.905   8.869  0.00  0.00    -0.218 N 
ATOM      6  C   UNL     1       5.402   0.376   9.246  0.00  0.00    +0.316 C 
ATOM      7  O   UNL     1       5.999   0.625  10.276  0.00  0.00    -0.251 OA
ATOM      8  N   UNL     1       4.928   1.380   8.482  0.00  0.00    -0.298 N 
ATOM      9  H   UNL     1       5.556  -1.627   9.419  0.00  0.00    +0.174 HD
ATOM     10  H   UNL     1       4.452   1.181   7.661  0.00  0.00    +0.150 HD
BRANCH   8  11
ATOM     11  C   UNL     1       5.132   2.771   8.892  0.00  0.00    +0.111 C 
BRANCH  11  12
ATOM     12  C   UNL     1       4.501   3.705   7.858  0.00  0.00    +0.061 C 
BRANCH  12  13
ATOM     13  C   UNL     1       4.710   5.137   8.279  0.00  0.00    -0.009 A 
ATOM     14  C   UNL     1       5.735   5.973   7.982  0.00  0.00    +0.011 A 
ATOM     15  C   UNL     1       5.717   7.261   8.485  0.00  0.00    +0.008 A 
ATOM     16  C   UNL     1       4.675   7.649   9.261  0.00  0.00    +0.045 A 
ATOM     17  S   UNL     1       3.670   6.173   9.294  0.00  0.00    -0.102 S 
ENDBRANCH  12  13
ENDBRANCH  11  12
ENDBRANCH   8  11
ENDBRANCH   3   5
BRANCH   1  21
ATOM     18  N   UNL     1       2.540  -2.504   4.231  0.00  0.00    -0.239 N 
ATOM     19  C   UNL     1       2.663  -3.848   4.381  0.00  0.00    +0.115 A 
ATOM     20  C   UNL     1       3.343  -4.061   5.532  0.00  0.00    +0.054 A 
ATOM     21  C   UNL     1       3.615  -2.775   6.055  0.00  0.00    +0.149 A 
ATOM     22  N   UNL     1       3.105  -1.897   5.213  0.00  0.00    -0.162 NA
BRANCH  18  26
ATOM     23  C   UNL     1       0.626  -0.619   1.042  0.00  0.00    +0.120 A 
ATOM     24  C   UNL     1       1.202   0.140   2.051  0.00  0.00    +0.048 A 
ATOM     25  C   UNL     1       1.836  -0.484   3.107  0.00  0.00    +0.031 A 
ATOM     26  C   UNL     1       1.896  -1.870   3.159  0.00  0.00    +0.066 A 
ATOM     27  C   UNL     1       1.319  -2.628   2.150  0.00  0.00    +0.031 A 
ATOM     28  C   UNL     1       0.681  -2.004   1.096  0.00  0.00    +0.048 A 
BRANCH  23  30
ATOM     29  C   UNL     1      -0.017   1.425   0.010  0.00  0.00    +0.277 C 
ATOM     30  O   UNL     1       0.002  -0.004   0.002  0.00  0.00    -0.495 OA
ENDBRANCH  23  30
ENDBRANCH  18  26
ENDBRANCH   1  21
TORSDOF 7
