REMARK  Name = ZINC39710995
REMARK  10 active torsions:
REMARK  status: ('A' for Active; 'I' for Inactive)
REMARK    1  A    between atoms: C_1  and  C_2
REMARK    2  A    between atoms: C_4  and  C_37
REMARK    3  A    between atoms: C_9  and  C_14
REMARK    4  A    between atoms: C_14  and  C_16
REMARK    5  A    between atoms: C_14  and  N_25
REMARK    6  A    between atoms: N_20  and  C_21
REMARK    7  A    between atoms: C_21  and  C_22
REMARK    8  A    between atoms: C_22  and  O_23
REMARK    9  A    between atoms: O_23  and  C_24
REMARK   10  A    between atoms: N_28  and  C_31
REMARK                            x       y       z     vdW  Elec       q    Type
REMARK                         _______ _______ _______ _____ _____    ______ ____
ROOT
ATOM      1  C   UNL     1      -1.152  -4.909   2.945  0.00  0.00    +0.142 C 
ENDROOT
BRANCH   1  10
ATOM      2  C   UNL     1       5.005  -4.122   6.479  0.00  0.00    +0.044 C 
ATOM      3  C   UNL     1       3.906  -3.642   5.566  0.00  0.00    -0.050 A 
ATOM      4  C   UNL     1       3.700  -2.272   5.406  0.00  0.00    +0.008 A 
ATOM      5  C   UNL     1       2.731  -1.765   4.601  0.00  0.00    -0.028 A 
ATOM      6  C   UNL     1       1.878  -2.623   3.882  0.00  0.00    +0.043 A 
ATOM      7  N   UNL     1       0.931  -2.115   3.095  0.00  0.00    -0.284 N 
ATOM      8  C   UNL     1       0.096  -2.863   2.393  0.00  0.00    +0.226 C 
ATOM      9  O   UNL     1      -0.749  -2.342   1.691  0.00  0.00    -0.275 OA
ATOM     10  C   UNL     1       0.198  -4.370   2.466  0.00  0.00    +0.123 C 
ATOM     11  C   UNL     1       1.275  -4.954   3.360  0.00  0.00    -0.003 C 
ATOM     12  C   UNL     1       2.072  -4.076   4.032  0.00  0.00    -0.006 A 
ATOM     13  C   UNL     1       3.139  -4.553   4.912  0.00  0.00    +0.012 A 
ATOM     14  C   UNL     1       2.567  -0.272   4.476  0.00  0.00    +0.046 C 
ATOM     15  H   UNL     1       0.849  -1.150   3.034  0.00  0.00    +0.155 HD
ENDBRANCH   1  10
BRANCH   1  16
ATOM     16  N   UNL     1      -1.133  -6.377   2.910  0.00  0.00    -0.295 NA
ATOM     17  C   UNL     1      -0.952  -6.869   1.537  0.00  0.00    +0.066 C 
ATOM     18  C   UNL     1      -0.879  -8.397   1.551  0.00  0.00    -0.063 C 
ATOM     19  N   UNL     1      -2.116  -8.942   2.125  0.00  0.00    +0.383 N 
ATOM     20  C   UNL     1      -2.271  -8.462   3.505  0.00  0.00    -0.063 C 
ATOM     21  C   UNL     1      -2.356  -6.934   3.507  0.00  0.00    +0.066 C 
ATOM     22  H   UNL     1      -2.905  -8.639   1.573  0.00  0.00    -0.081 HD
BRANCH  19  23
ATOM     23  C   UNL     1      -2.053 -10.409   2.122  0.00  0.00    -0.068 C 
ATOM     24  C   UNL     1      -1.894 -10.910   0.685  0.00  0.00    -0.015 C 
ATOM     25  C   UNL     1      -1.828 -12.439   0.682  0.00  0.00    -0.002 C 
ATOM     26  C   UNL     1      -3.117 -13.006   1.280  0.00  0.00    -0.000 C 
ATOM     27  C   UNL     1      -3.276 -12.505   2.717  0.00  0.00    -0.002 C 
ATOM     28  C   UNL     1      -3.342 -10.977   2.720  0.00  0.00    -0.015 C 
ENDBRANCH  19  23
ENDBRANCH   1  16
BRANCH   1  29
ATOM     29  C   UNL     1      -1.406  -4.443   4.356  0.00  0.00    +0.170 A 
ATOM     30  N   UNL     1      -0.837  -4.899   5.445  0.00  0.00    -0.112 NA
ATOM     31  N   UNL     1      -1.318  -4.248   6.447  0.00  0.00    -0.023 NA
ATOM     32  N   UNL     1      -2.179  -3.389   6.026  0.00  0.00    -0.044 NA
ATOM     33  N   UNL     1      -2.258  -3.475   4.741  0.00  0.00    -0.225 N 
BRANCH  33  34
ATOM     34  C   UNL     1      -3.116  -2.672   3.866  0.00  0.00    +0.175 C 
BRANCH  34  35
ATOM     35  C   UNL     1      -4.467  -3.372   3.695  0.00  0.00    +0.183 C 
BRANCH  35  36
ATOM     36  O   UNL     1      -5.304  -2.589   2.842  0.00  0.00    -0.381 OA
ATOM     37  C   UNL     1      -6.596  -3.156   2.616  0.00  0.00    +0.194 C 
ENDBRANCH  35  36
ENDBRANCH  34  35
ENDBRANCH  33  34
ENDBRANCH   1  29
TORSDOF 7
