REMARK  Name = ZINC03336965
REMARK  10 active torsions:
REMARK  status: ('A' for Active; 'I' for Inactive)
REMARK    1  A    between atoms: C_1  and  C_2
REMARK    2  A    between atoms: C_5  and  C_8
REMARK    3  A    between atoms: C_9  and  C_29
REMARK    4  A    between atoms: C_12  and  S_14
REMARK    5  A    between atoms: S_14  and  C_15
REMARK    6  A    between atoms: C_15  and  C_16
REMARK    7  A    between atoms: N_18  and  C_19
REMARK    8  A    between atoms: C_22  and  S_25
REMARK    9  A    between atoms: S_25  and  N_28
REMARK   10  A    between atoms: C_32  and  C_35
REMARK                            x       y       z     vdW  Elec       q    Type
REMARK                         _______ _______ _______ _____ _____    ______ ____
ROOT
ATOM      1  C   UNL     1       1.171  -0.642   0.009  0.00  0.00    +0.102 A 
ATOM      2  C   UNL     1       2.355   0.122   0.011  0.00  0.00    +0.119 A 
ATOM      3  N   UNL     1       2.264   1.448   0.019  0.00  0.00    -0.145 NA
ATOM      4  N   UNL     1       1.113   2.023   0.024  0.00  0.00    -0.122 NA
ATOM      5  C   UNL     1      -0.015   1.323   0.023  0.00  0.00    +0.210 A 
ATOM      6  N   UNL     1       0.003  -0.004   0.015  0.00  0.00    -0.218 NA
ENDROOT
BRANCH   1  11
ATOM      7  C   UNL     1       1.381  -6.395  -0.027  0.00  0.00    +0.044 C 
ATOM      8  C   UNL     1       1.326  -4.889  -0.017  0.00  0.00    -0.050 A 
ATOM      9  C   UNL     1       0.320  -4.241   0.677  0.00  0.00    +0.004 A 
ATOM     10  C   UNL     1       0.265  -2.862   0.690  0.00  0.00    +0.010 A 
ATOM     11  C   UNL     1       1.225  -2.123   0.000  0.00  0.00    +0.003 A 
ATOM     12  C   UNL     1       2.233  -2.782  -0.702  0.00  0.00    +0.010 A 
ATOM     13  C   UNL     1       2.281  -4.161  -0.703  0.00  0.00    +0.004 A 
ENDBRANCH   1  11
BRANCH   2  14
ATOM     14  C   UNL     1       3.679  -0.541   0.005  0.00  0.00    +0.004 A 
ATOM     15  C   UNL     1       3.865  -1.739   0.695  0.00  0.00    +0.010 A 
ATOM     16  C   UNL     1       5.100  -2.355   0.681  0.00  0.00    +0.004 A 
ATOM     17  C   UNL     1       6.155  -1.782  -0.005  0.00  0.00    -0.050 A 
ATOM     18  C   UNL     1       5.978  -0.591  -0.687  0.00  0.00    +0.004 A 
ATOM     19  C   UNL     1       4.747   0.032  -0.686  0.00  0.00    +0.010 A 
ATOM     20  C   UNL     1       7.502  -2.457  -0.011  0.00  0.00    +0.044 C 
ENDBRANCH   2  14
BRANCH   5  21
ATOM     21  S   UNL     1      -1.561   2.169   0.023  0.00  0.00    -0.075 S 
BRANCH  21  22
ATOM     22  C   UNL     1      -0.981   3.884   0.035  0.00  0.00    +0.173 C 
BRANCH  22  23
ATOM     23  C   UNL     1      -2.166   4.815   0.037  0.00  0.00    +0.227 C 
ATOM     24  O   UNL     1      -3.292   4.364   0.031  0.00  0.00    -0.275 OA
ATOM     25  N   UNL     1      -1.974   6.149   0.045  0.00  0.00    -0.285 N 
ATOM     26  H   UNL     1      -1.077   6.510   0.117  0.00  0.00    +0.155 HD
BRANCH  25  27
ATOM     27  C   UNL     1      -3.070   7.013  -0.051  0.00  0.00    +0.034 A 
ATOM     28  C   UNL     1      -2.950   8.215  -0.737  0.00  0.00    +0.025 A 
ATOM     29  C   UNL     1      -4.036   9.063  -0.835  0.00  0.00    +0.030 A 
ATOM     30  C   UNL     1      -5.237   8.723  -0.241  0.00  0.00    +0.105 A 
ATOM     31  C   UNL     1      -5.358   7.530   0.448  0.00  0.00    +0.030 A 
ATOM     32  C   UNL     1      -4.278   6.674   0.544  0.00  0.00    +0.025 A 
BRANCH  30  33
ATOM     33  S   UNL     1      -6.618   9.812  -0.362  0.00  0.00    +0.056 S 
ATOM     34  O   UNL     1      -6.407  10.608  -1.520  0.00  0.00    -0.153 OA
ATOM     35  O   UNL     1      -7.780   9.014  -0.188  0.00  0.00    -0.153 OA
BRANCH  33  36
ATOM     36  N   UNL     1      -6.548  10.837   0.936  0.00  0.00    -0.204 NA
ATOM     37  H   UNL     1      -6.902  11.737   0.863  0.00  0.00    +0.144 HD
ATOM     38  H   UNL     1      -6.153  10.537   1.770  0.00  0.00    +0.144 HD
ENDBRANCH  33  36
ENDBRANCH  30  33
ENDBRANCH  25  27
ENDBRANCH  22  23
ENDBRANCH  21  22
ENDBRANCH   5  21
TORSDOF 8
