REMARK  Name = ZINC02328132
REMARK  6 active torsions:
REMARK  status: ('A' for Active; 'I' for Inactive)
REMARK    1  A    between atoms: C_4  and  C_7
REMARK    2  A    between atoms: C_12  and  C_13
REMARK    3  A    between atoms: C_16  and  O_20
REMARK    4  A    between atoms: C_18  and  O_19
REMARK    5  A    between atoms: O_20  and  C_21
REMARK    6  A    between atoms: C_21  and  C_22
REMARK                            x       y       z     vdW  Elec       q    Type
REMARK                         _______ _______ _______ _____ _____    ______ ____
ROOT
ATOM      1  C   UNL     1      -1.081   3.517  -0.267  0.00  0.00    +0.043 A 
ATOM      2  C   UNL     1       0.020   4.374  -0.228  0.00  0.00    +0.017 A 
ATOM      3  C   UNL     1       1.291   3.869  -0.386  0.00  0.00    +0.046 A 
ATOM      4  C   UNL     1       1.482   2.506  -0.585  0.00  0.00    +0.124 A 
ATOM      5  C   UNL     1       0.394   1.647  -0.626  0.00  0.00    +0.091 A 
ATOM      6  C   UNL     1      -0.888   2.146  -0.473  0.00  0.00    +0.129 A 
ENDROOT
BRANCH   1  12
ATOM      7  C   UNL     1      -2.755   4.904   0.987  0.00  0.00    +0.026 A 
ATOM      8  C   UNL     1      -4.059   5.388   1.097  0.00  0.00    +0.125 A 
ATOM      9  N   UNL     1      -4.956   5.030   0.194  0.00  0.00    -0.222 NA
ATOM     10  C   UNL     1      -4.635   4.228  -0.811  0.00  0.00    +0.213 A 
ATOM     11  N   UNL     1      -3.411   3.747  -0.961  0.00  0.00    -0.214 NA
ATOM     12  C   UNL     1      -2.448   4.057  -0.097  0.00  0.00    +0.087 A 
ATOM     13  N   UNL     1      -5.609   3.882  -1.731  0.00  0.00    -0.327 N 
ATOM     14  H   UNL     1      -5.390   3.296  -2.472  0.00  0.00    +0.145 HD
ATOM     15  H   UNL     1      -6.511   4.226  -1.635  0.00  0.00    +0.145 HD
BRANCH   7  19
ATOM     16  C   UNL     1       0.215   5.968   3.837  0.00  0.00    +0.000 A 
ATOM     17  C   UNL     1      -0.468   6.957   3.152  0.00  0.00    +0.001 A 
ATOM     18  C   UNL     1      -1.433   6.617   2.225  0.00  0.00    +0.008 A 
ATOM     19  C   UNL     1      -1.719   5.275   1.980  0.00  0.00    -0.014 A 
ATOM     20  C   UNL     1      -1.031   4.283   2.678  0.00  0.00    +0.008 A 
ATOM     21  C   UNL     1      -0.064   4.634   3.598  0.00  0.00    +0.001 A 
ENDBRANCH   7  19
ENDBRANCH   1  12
BRANCH   6  22
ATOM     22  O   UNL     1      -1.955   1.307  -0.518  0.00  0.00    -0.506 OA
ATOM     23  H   UNL     1      -2.206   0.944   0.343  0.00  0.00    +0.292 HD
ENDBRANCH   6  22
BRANCH   4  24
ATOM     24  O   UNL     1       2.739   2.015  -0.740  0.00  0.00    -0.487 OA
BRANCH  24  25
ATOM     25  C   UNL     1       3.814   2.954  -0.688  0.00  0.00    +0.268 C 
BRANCH  25  26
ATOM     26  C   UNL     1       5.123   2.232  -0.878  0.00  0.00    +0.043 A 
ATOM     27  C   UNL     1       5.810   1.743   0.220  0.00  0.00    +0.131 A 
ATOM     28  C   UNL     1       7.009   1.073   0.043  0.00  0.00    +0.039 A 
ATOM     29  C   UNL     1       7.525   0.904  -1.228  0.00  0.00    +0.004 A 
ATOM     30  C   UNL     1       6.842   1.397  -2.324  0.00  0.00    +0.020 A 
ATOM     31  C   UNL     1       5.640   2.061  -2.149  0.00  0.00    +0.050 A 
ATOM     32 CL   UNL     1       4.782   2.679  -3.526  0.00  0.00    -0.083 Cl
ATOM     33  F   UNL     1       5.309   1.914   1.462  0.00  0.00    -0.205 F 
ENDBRANCH  25  26
ENDBRANCH  24  25
ENDBRANCH   4  24
TORSDOF 6
