REMARK  Name = ZINC09089655
REMARK  4 active torsions:
REMARK  status: ('A' for Active; 'I' for Inactive)
REMARK    1  A    between atoms: C_4  and  C_7
REMARK    2  A    between atoms: C_7  and  C_8
REMARK    3  A    between atoms: C_8  and  N_9
REMARK    4  A    between atoms: N_24  and  C_27
REMARK                            x       y       z     vdW  Elec       q    Type
REMARK                         _______ _______ _______ _____ _____    ______ ____
ROOT
ATOM      1  N   UNL     1       2.726   6.185  -2.666  0.00  0.00    -0.224 N 
ATOM      2  C   UNL     1       1.963   5.471  -1.825  0.00  0.00    +0.240 C 
ATOM      3  O   UNL     1       0.986   4.900  -2.258  0.00  0.00    -0.274 OA
ATOM      4  C   UNL     1       2.286   5.359  -0.362  0.00  0.00    +0.147 C 
ATOM      5  C   UNL     1       2.491   3.888   0.007  0.00  0.00    +0.064 C 
ATOM      6  C   UNL     1       1.165   3.169   0.006  0.00  0.00    -0.025 A 
ATOM      7  C   UNL     1       1.173   1.783   0.000  0.00  0.00    +0.005 A 
ATOM      8  C   UNL     1      -0.013   1.076   0.008  0.00  0.00    +0.000 A 
ATOM      9  C   UNL     1      -1.219   1.752   0.017  0.00  0.00    +0.002 A 
ATOM     10  C   UNL     1      -1.235   3.130   0.028  0.00  0.00    +0.023 A 
ATOM     11  C   UNL     1      -0.040   3.851   0.017  0.00  0.00    +0.033 A 
ATOM     12  N   UNL     1      -0.119   5.240   0.011  0.00  0.00    -0.322 N 
ATOM     13  C   UNL     1       1.111   5.893   0.464  0.00  0.00    +0.115 C 
ATOM     14  C   UNL     1       0.992   7.407   0.273  0.00  0.00    +0.129 C 
ATOM     15  N   UNL     1      -0.171   7.898   1.027  0.00  0.00    -0.327 N 
ATOM     16  C   UNL     1      -1.407   7.245   0.575  0.00  0.00    +0.124 C 
ATOM     17  C   UNL     1      -1.283   5.730   0.761  0.00  0.00    +0.124 C 
ATOM     18  C   UNL     1       3.527   6.138  -0.031  0.00  0.00    +0.238 C 
ATOM     19  O   UNL     1       3.924   6.153   1.115  0.00  0.00    -0.274 OA
ATOM     20  N   UNL     1       4.209   6.815  -0.965  0.00  0.00    -0.239 N 
ATOM     21  C   UNL     1       3.820   6.839  -2.249  0.00  0.00    +0.315 C 
ATOM     22  O   UNL     1       4.476   7.469  -3.054  0.00  0.00    -0.252 OA
ATOM     23  H   UNL     1       5.115   7.373  -0.688  0.00  0.00    +0.159 HD
ENDROOT
BRANCH  15  24
ATOM     24  C   UNL     1      -0.277   9.287   0.935  0.00  0.00    +0.030 A 
ATOM     25  C   UNL     1       0.658  10.010   0.204  0.00  0.00    +0.023 A 
ATOM     26  C   UNL     1       0.548  11.383   0.111  0.00  0.00    +0.002 A 
ATOM     27  C   UNL     1      -0.485  12.041   0.754  0.00  0.00    +0.000 A 
ATOM     28  C   UNL     1      -1.414  11.325   1.488  0.00  0.00    +0.002 A 
ATOM     29  C   UNL     1      -1.313   9.951   1.580  0.00  0.00    +0.023 A 
ENDBRANCH  15  24
BRANCH   1  30
ATOM     30  C   UNL     1       2.353   6.252  -4.081  0.00  0.00    +0.122 C 
BRANCH  30  31
ATOM     31  C   UNL     1       1.422   7.445  -4.307  0.00  0.00    +0.054 C 
BRANCH  31  35
ATOM     32  C   UNL     1       0.334   7.642  -8.433  0.00  0.00    +0.000 A 
ATOM     33  C   UNL     1      -0.438   6.911  -7.549  0.00  0.00    +0.000 A 
ATOM     34  C   UNL     1      -0.086   6.848  -6.214  0.00  0.00    +0.004 A 
ATOM     35  C   UNL     1       1.038   7.514  -5.763  0.00  0.00    -0.046 A 
ATOM     36  C   UNL     1       1.807   8.249  -6.646  0.00  0.00    +0.004 A 
ATOM     37  C   UNL     1       1.458   8.308  -7.982  0.00  0.00    +0.000 A 
ENDBRANCH  31  35
ENDBRANCH  30  31
ENDBRANCH   1  30
TORSDOF 4
