REMARK  Name = ZINC02957014
REMARK  15 active torsions:
REMARK  status: ('A' for Active; 'I' for Inactive)
REMARK    1  A    between atoms: C_1  and  C_2
REMARK    2  A    between atoms: C_2  and  C_3
REMARK    3  A    between atoms: C_3  and  C_5
REMARK    4  A    between atoms: C_3  and  N_6
REMARK    5  A    between atoms: C_7  and  C_9
REMARK    6  A    between atoms: C_9  and  N_10
REMARK    7  A    between atoms: C_13  and  C_23
REMARK    8  A    between atoms: C_14  and  C_16
REMARK    9  A    between atoms: N_18  and  C_19
REMARK   10  A    between atoms: N_18  and  C_21
REMARK   11  A    between atoms: C_19  and  C_20
REMARK   12  A    between atoms: C_21  and  C_22
REMARK   13  A    between atoms: N_26  and  C_29
REMARK   14  A    between atoms: C_32  and  C_36
REMARK   15  A    between atoms: C_33  and  C_35
REMARK                            x       y       z     vdW  Elec       q    Type
REMARK                         _______ _______ _______ _____ _____    ______ ____
ROOT
ATOM      1  N   UNL     1       4.453   0.494  -3.792  0.00  0.00    -0.278 N 
ATOM      2  C   UNL     1       5.101  -0.609  -4.274  0.00  0.00    +0.098 A 
ATOM      3  C   UNL     1       5.713  -0.595  -5.535  0.00  0.00    +0.075 A 
ATOM      4  C   UNL     1       6.345  -1.785  -5.917  0.00  0.00    -0.017 A 
ATOM      5  C   UNL     1       6.302  -2.824  -5.033  0.00  0.00    +0.080 A 
ATOM      6  S   UNL     1       5.380  -2.142  -3.671  0.00  0.00    -0.065 S 
ATOM      7  C   UNL     1       7.043  -1.913  -7.247  0.00  0.00    +0.046 C 
ATOM      8  C   UNL     1       5.604   0.678  -6.288  0.00  0.00    +0.270 A 
ATOM      9  O   UNL     1       6.104   0.785  -7.393  0.00  0.00    -0.266 OA
ATOM     10  N   UNL     1       4.947   1.712  -5.735  0.00  0.00    -0.228 N 
ATOM     11  C   UNL     1       4.381   1.624  -4.520  0.00  0.00    +0.338 A 
ATOM     12  O   UNL     1       3.794   2.587  -4.067  0.00  0.00    -0.246 OA
ENDROOT
BRANCH  10  13
ATOM     13  C   UNL     1       4.846   2.915  -6.447  0.00  0.00    +0.055 A 
ATOM     14  C   UNL     1       5.474   4.059  -5.974  0.00  0.00    +0.027 A 
ATOM     15  C   UNL     1       5.373   5.242  -6.679  0.00  0.00    +0.005 A 
ATOM     16  C   UNL     1       4.646   5.289  -7.854  0.00  0.00    -0.047 A 
ATOM     17  C   UNL     1       4.019   4.152  -8.328  0.00  0.00    -0.046 A 
ATOM     18  C   UNL     1       4.122   2.963  -7.631  0.00  0.00    +0.030 A 
ATOM     19  C   UNL     1       3.227   4.207  -9.609  0.00  0.00    +0.044 C 
ATOM     20  C   UNL     1       4.538   6.582  -8.620  0.00  0.00    +0.044 C 
ENDBRANCH  10  13
BRANCH   5  21
ATOM     21  C   UNL     1       6.872  -4.167  -5.171  0.00  0.00    +0.254 C 
ATOM     22  O   UNL     1       7.364  -4.514  -6.229  0.00  0.00    -0.269 OA
ATOM     23  N   UNL     1       6.852  -5.018  -4.126  0.00  0.00    -0.298 N 
BRANCH  23  24
ATOM     24  C   UNL     1       7.489  -6.332  -4.239  0.00  0.00    +0.105 C 
ATOM     25  C   UNL     1       8.913  -6.259  -3.685  0.00  0.00    +0.024 C 
ENDBRANCH  23  24
BRANCH  23  26
ATOM     26  C   UNL     1       6.194  -4.628  -2.876  0.00  0.00    +0.105 C 
ATOM     27  C   UNL     1       4.691  -4.892  -2.987  0.00  0.00    +0.024 C 
ENDBRANCH  23  26
ENDBRANCH   5  21
BRANCH   1  28
ATOM     28  C   UNL     1       3.825   0.444  -2.470  0.00  0.00    +0.223 C 
BRANCH  28  30
ATOM     29  N   UNL     1       1.623  -0.156  -1.514  0.00  0.00    -0.311 N 
ATOM     30  C   UNL     1       2.401  -0.031  -2.608  0.00  0.00    +0.233 C 
ATOM     31  O   UNL     1       1.956  -0.302  -3.703  0.00  0.00    -0.274 OA
ATOM     32  H   UNL     1       1.980   0.060  -0.638  0.00  0.00    +0.149 HD
BRANCH  29  33
ATOM     33  C   UNL     1       0.240  -0.618  -1.648  0.00  0.00    +0.070 C 
ATOM     34  C   UNL     1       0.212  -2.148  -1.662  0.00  0.00    +0.028 C 
BRANCH  33  36
ATOM     35  C   UNL     1      -0.662   1.423  -0.525  0.00  0.00    +0.005 C 
ATOM     36  C   UNL     1      -0.586  -0.104  -0.468  0.00  0.00    +0.018 C 
ENDBRANCH  33  36
ENDBRANCH  29  33
ENDBRANCH  28  30
ENDBRANCH   1  28
TORSDOF 8
