REMARK  Name = ZINC20761314
REMARK  5 active torsions:
REMARK  status: ('A' for Active; 'I' for Inactive)
REMARK    1  A    between atoms: C_3  and  C_6
REMARK    2  A    between atoms: C_14  and  C_17
REMARK    3  A    between atoms: C_17  and  N_18
REMARK    4  A    between atoms: N_18  and  C_19
REMARK    5  A    between atoms: C_19  and  C_20
REMARK                            x       y       z     vdW  Elec       q    Type
REMARK                         _______ _______ _______ _____ _____    ______ ____
ROOT
ATOM      1  C   UNL     1      -0.256   5.980  -8.056  0.00  0.00    +0.065 C 
ATOM      2  C   UNL     1      -1.508   6.074  -7.523  0.00  0.00    +0.177 C 
ATOM      3  C   UNL     1      -2.711   6.256  -8.257  0.00  0.00    +0.231 C 
ATOM      4  O   UNL     1      -2.832   6.368  -9.466  0.00  0.00    -0.283 OA
ATOM      5  C   UNL     1      -3.779   6.296  -7.243  0.00  0.00    +0.068 A 
ATOM      6  C   UNL     1      -5.162   6.461  -7.311  0.00  0.00    +0.019 A 
ATOM      7  C   UNL     1      -5.905   6.453  -6.164  0.00  0.00    +0.052 A 
ATOM      8  C   UNL     1      -5.286   6.280  -4.929  0.00  0.00    +0.184 A 
ATOM      9  C   UNL     1      -3.913   6.116  -4.846  0.00  0.00    +0.025 A 
ATOM     10  C   UNL     1      -3.143   6.128  -6.002  0.00  0.00    +0.144 A 
ATOM     11  O   UNL     1      -1.815   5.998  -6.207  0.00  0.00    -0.451 OA
ATOM     12  O   UNL     1      -6.034   6.273  -3.796  0.00  0.00    -0.288 OA
ENDROOT
BRANCH   1  15
ATOM     13  C   UNL     1       0.838   6.126 -11.606  0.00  0.00    +0.008 A 
ATOM     14  C   UNL     1       0.849   5.667 -10.313  0.00  0.00    +0.015 A 
ATOM     15  C   UNL     1      -0.049   6.254  -9.427  0.00  0.00    +0.016 A 
ATOM     16  S   UNL     1      -0.865   7.448 -10.471  0.00  0.00    -0.097 S 
ATOM     17  C   UNL     1      -0.024   7.120 -11.950  0.00  0.00    +0.046 A 
ENDBRANCH   1  15
BRANCH   9  18
ATOM     18  C   UNL     1      -3.255   5.931  -3.503  0.00  0.00    -0.039 C 
BRANCH  18  19
ATOM     19  N   UNL     1      -3.198   4.500  -3.178  0.00  0.00    +0.382 N 
ATOM     20  H   UNL     1      -4.218   4.091  -3.146  0.00  0.00    -0.085 HD
ATOM     21  H   UNL     1      -2.615   3.972  -3.948  0.00  0.00    -0.085 HD
BRANCH  19  22
ATOM     22  C   UNL     1      -2.561   4.281  -1.873  0.00  0.00    -0.080 C 
BRANCH  22  23
ATOM     23  C   UNL     1      -2.520   2.782  -1.570  0.00  0.00    -0.042 C 
ATOM     24  C   UNL     1      -3.948   2.254  -1.427  0.00  0.00    -0.002 C 
ATOM     25  C   UNL     1      -4.618   2.963  -0.246  0.00  0.00    -0.018 C 
ATOM     26  C   UNL     1      -3.801   2.696   1.018  0.00  0.00    -0.078 C 
ATOM     27  N   UNL     1      -2.430   3.204   0.850  0.00  0.00    +0.382 N 
ATOM     28  C   UNL     1      -1.746   2.546  -0.269  0.00  0.00    -0.067 C 
ATOM     29  C   UNL     1      -0.339   3.130  -0.441  0.00  0.00    -0.015 C 
ATOM     30  C   UNL     1       0.457   2.956   0.854  0.00  0.00    -0.003 C 
ATOM     31  C   UNL     1      -0.294   3.651   1.994  0.00  0.00    -0.019 C 
ATOM     32  C   UNL     1      -1.690   3.032   2.111  0.00  0.00    -0.078 C 
ATOM     33  H   UNL     1      -2.472   4.274   0.602  0.00  0.00    -0.081 HD
ENDBRANCH  22  23
ENDBRANCH  19  22
ENDBRANCH  18  19
ENDBRANCH   9  18
TORSDOF 5
