REMARK  Name = ZINC33024424
REMARK  11 active torsions:
REMARK  status: ('A' for Active; 'I' for Inactive)
REMARK    1  A    between atoms: C_1  and  C_2
REMARK    2  A    between atoms: C_3  and  C_32
REMARK    3  A    between atoms: C_4  and  C_9
REMARK    4  A    between atoms: C_7  and  C_8
REMARK    5  A    between atoms: C_14  and  C_17
REMARK    6  A    between atoms: C_17  and  C_18
REMARK    7  A    between atoms: N_20  and  C_21
REMARK    8  A    between atoms: C_21  and  C_22
REMARK    9  A    between atoms: C_22  and  C_23
REMARK   10  A    between atoms: C_23  and  N_24
REMARK   11  A    between atoms: C_28  and  C_31
REMARK                            x       y       z     vdW  Elec       q    Type
REMARK                         _______ _______ _______ _____ _____    ______ ____
ROOT
ATOM      1  C   UNL     1      -3.755   4.311   2.814  0.00  0.00    +0.263 C 
ATOM      2  O   UNL     1      -3.570   5.504   2.968  0.00  0.00    -0.268 OA
ATOM      3  N   UNL     1      -2.705   3.473   2.718  0.00  0.00    -0.296 N 
ATOM      4  C   UNL     1      -1.331   3.993   2.690  0.00  0.00    +0.108 C 
ATOM      5  C   UNL     1      -0.618   3.435   1.455  0.00  0.00    +0.023 C 
ATOM      6  C   UNL     1      -0.711   1.907   1.463  0.00  0.00    +0.001 C 
ATOM      7  C   UNL     1      -2.180   1.484   1.405  0.00  0.00    +0.023 C 
ATOM      8  C   UNL     1      -2.912   2.020   2.639  0.00  0.00    +0.108 C 
ENDROOT
BRANCH   1  12
ATOM      9  C   UNL     1      -8.157   2.070   3.964  0.00  0.00    +0.046 C 
ATOM     10  C   UNL     1      -7.066   2.803   3.226  0.00  0.00    -0.027 A 
ATOM     11  C   UNL     1      -5.799   3.115   3.728  0.00  0.00    -0.018 A 
ATOM     12  C   UNL     1      -5.123   3.787   2.732  0.00  0.00    +0.105 A 
ATOM     13  N   UNL     1      -5.963   3.870   1.644  0.00  0.00    -0.354 N 
ATOM     14  H   UNL     1      -5.623   4.369   0.724  0.00  0.00    +0.166 HD
ATOM     15  C   UNL     1      -7.137   3.270   1.957  0.00  0.00    +0.017 A 
ATOM     16  C   UNL     1      -8.327   3.143   1.041  0.00  0.00    +0.063 C 
ATOM     17  C   UNL     1      -5.273   2.784   5.101  0.00  0.00    +0.046 C 
ENDBRANCH   1  12
BRANCH   6  18
ATOM     18  C   UNL     1       0.031   1.345   0.249  0.00  0.00    +0.099 C 
BRANCH  18  19
ATOM     19  C   UNL     1       0.045  -0.161   0.323  0.00  0.00    +0.213 C 
ATOM     20  O   UNL     1      -0.485  -0.727   1.255  0.00  0.00    -0.276 OA
ATOM     21  N   UNL     1       0.648  -0.877  -0.647  0.00  0.00    -0.315 N 
ATOM     22  H   UNL     1       1.129  -0.363  -1.492  0.00  0.00    +0.149 HD
BRANCH  21  23
ATOM     23  C   UNL     1       0.662  -2.340  -0.576  0.00  0.00    +0.102 C 
BRANCH  23  24
ATOM     24  C   UNL     1       1.403  -2.903  -1.790  0.00  0.00    +0.000 C 
BRANCH  24  25
ATOM     25  C   UNL     1       1.418  -4.431  -1.715  0.00  0.00    -0.077 C 
BRANCH  25  26
ATOM     26  N   UNL     1       2.130  -4.971  -2.881  0.00  0.00    +0.380 N 
ATOM     27  C   UNL     1       1.401  -4.684  -4.122  0.00  0.00    -0.079 C 
ATOM     28  C   UNL     1       2.238  -5.131  -5.323  0.00  0.00    -0.018 C 
ATOM     29  C   UNL     1       2.522  -6.631  -5.211  0.00  0.00    -0.001 C 
ATOM     30  C   UNL     1       3.239  -6.910  -3.887  0.00  0.00    -0.031 C 
ATOM     31  C   UNL     1       2.372  -6.412  -2.728  0.00  0.00    -0.076 C 
ATOM     32  C   UNL     1       3.474  -8.415  -3.739  0.00  0.00    +0.005 C 
ATOM     33  H   UNL     1       3.108  -4.472  -2.943  0.00  0.00    -0.082 HD
ENDBRANCH  25  26
ENDBRANCH  24  25
ENDBRANCH  23  24
ENDBRANCH  21  23
ENDBRANCH  18  19
ENDBRANCH   6  18
TORSDOF 7
