REMARK  Name = ZINC12497536
REMARK  6 active torsions:
REMARK  status: ('A' for Active; 'I' for Inactive)
REMARK    1  A    between atoms: C_1  and  O_2
REMARK    2  A    between atoms: O_2  and  C_3
REMARK    3  A    between atoms: C_3  and  C_5
REMARK    4  A    between atoms: C_5  and  C_29
REMARK    5  A    between atoms: C_10  and  C_12
REMARK    6  A    between atoms: N_19  and  C_22
REMARK                            x       y       z     vdW  Elec       q    Type
REMARK                         _______ _______ _______ _____ _____    ______ ____
ROOT
ATOM      1  C   UNL     1      -3.559  -0.865   0.266  0.00  0.00    +0.070 C 
ATOM      2  C   UNL     1      -2.978  -1.547  -0.898  0.00  0.00    +0.090 C 
ATOM      3  C   UNL     1      -1.606  -0.803  -1.112  0.00  0.00    +0.078 C 
ATOM      4  C   UNL     1      -1.141  -0.841   0.340  0.00  0.00    -0.019 C 
ATOM      5  C   UNL     1      -1.049  -1.750  -2.127  0.00  0.00    +0.229 C 
ATOM      6  O   UNL     1       0.115  -2.058  -2.276  0.00  0.00    -0.275 OA
ATOM      7  N   UNL     1      -2.116  -2.198  -2.853  0.00  0.00    -0.207 N 
ATOM      8  C   UNL     1      -3.319  -1.939  -2.244  0.00  0.00    +0.230 C 
ATOM      9  O   UNL     1      -4.426  -2.023  -2.731  0.00  0.00    -0.275 OA
ATOM     10  N   UNL     1      -2.378  -0.478   1.090  0.00  0.00    +0.398 N 
ATOM     11  H   UNL     1      -2.401  -0.980   1.986  0.00  0.00    -0.083 HD
ATOM     12  H   UNL     1      -2.393   0.534   1.265  0.00  0.00    -0.083 HD
ENDROOT
BRANCH   7  13
ATOM     13  C   UNL     1      -1.996  -2.854  -4.088  0.00  0.00    +0.079 A 
ATOM     14  C   UNL     1      -1.871  -4.235  -4.133  0.00  0.00    +0.027 A 
ATOM     15  C   UNL     1      -1.757  -4.878  -5.350  0.00  0.00    +0.002 A 
ATOM     16  C   UNL     1      -1.757  -4.147  -6.523  0.00  0.00    +0.003 A 
ATOM     17  C   UNL     1      -1.875  -2.770  -6.484  0.00  0.00    +0.040 A 
ATOM     18  C   UNL     1      -1.995  -2.120  -5.268  0.00  0.00    +0.145 A 
ATOM     19  F   UNL     1      -2.110  -0.775  -5.229  0.00  0.00    -0.204 F 
ENDBRANCH   7  13
BRANCH   1  20
ATOM     20  C   UNL     1      -4.324   0.358  -0.171  0.00  0.00    -0.047 A 
ATOM     21  C   UNL     1      -3.844   1.619   0.134  0.00  0.00    +0.003 A 
ATOM     22  C   UNL     1      -4.543   2.741  -0.271  0.00  0.00    +0.000 A 
ATOM     23  C   UNL     1      -5.727   2.602  -0.970  0.00  0.00    +0.000 A 
ATOM     24  C   UNL     1      -6.210   1.342  -1.270  0.00  0.00    +0.000 A 
ATOM     25  C   UNL     1      -5.508   0.220  -0.870  0.00  0.00    +0.003 A 
ENDBRANCH   1  20
BRANCH   4  26
ATOM     26  C   UNL     1      -0.048   0.169   0.577  0.00  0.00    -0.023 A 
ATOM     27  C   UNL     1       1.284  -0.033   0.728  0.00  0.00    +0.009 A 
ATOM     28  C   UNL     1       2.107   1.057   0.938  0.00  0.00    +0.008 A 
ATOM     29  C   UNL     1       1.559   2.296   0.986  0.00  0.00    +0.045 A 
ATOM     30  S   UNL     1      -0.172   1.944   0.731  0.00  0.00    -0.103 S 
ENDBRANCH   4  26
BRANCH   1  31
ATOM     31  C   UNL     1      -4.459  -1.800   1.032  0.00  0.00    +0.301 C 
ATOM     32  O   UNL     1      -5.021  -2.702   0.458  0.00  0.00    -0.252 OA
BRANCH  31  34
ATOM     33  C   UNL     1      -5.515  -2.570   3.025  0.00  0.00    +0.280 C 
ATOM     34  O   UNL     1      -4.635  -1.631   2.351  0.00  0.00    -0.469 OA
ENDBRANCH  31  34
ENDBRANCH   1  31
TORSDOF 5
