REMARK  Name = ZINC40143532
REMARK  7 active torsions:
REMARK  status: ('A' for Active; 'I' for Inactive)
REMARK    1  A    between atoms: C_1  and  C_2
REMARK    2  A    between atoms: C_3  and  C_15
REMARK    3  A    between atoms: C_4  and  C_14
REMARK    4  A    between atoms: N_5  and  C_7
REMARK    5  A    between atoms: C_15  and  C_16
REMARK    6  A    between atoms: N_18  and  N_19
REMARK    7  A    between atoms: C_25  and  C_28
REMARK                            x       y       z     vdW  Elec       q    Type
REMARK                         _______ _______ _______ _____ _____    ______ ____
ROOT
ATOM      1  C   UNL     1       1.021  -0.016  -3.150  0.00  0.00    +0.234 C 
ATOM      2  O   UNL     1       2.030  -0.134  -2.488  0.00  0.00    -0.274 OA
ATOM      3  N   UNL     1       1.096   0.425  -4.421  0.00  0.00    -0.223 N 
ATOM      4  H   UNL     1       0.288   0.520  -4.950  0.00  0.00    +0.174 HD
ENDROOT
BRANCH   3   5
ATOM      5  N   UNL     1       2.340   0.748  -4.978  0.00  0.00    -0.137 N 
ATOM      6  C   UNL     1       2.778   2.008  -5.177  0.00  0.00    +0.263 C 
ATOM      7  O   UNL     1       2.193   3.038  -4.918  0.00  0.00    -0.271 OA
ATOM      8  C   UNL     1       4.152   1.866  -5.791  0.00  0.00    +0.114 C 
ATOM      9  C   UNL     1       5.205   2.500  -4.889  0.00  0.00    +0.035 C 
ATOM     10  C   UNL     1       6.591   2.319  -5.513  0.00  0.00    +0.006 C 
ATOM     11  C   UNL     1       6.617   2.975  -6.895  0.00  0.00    -0.014 C 
ATOM     12  C   UNL     1       5.572   2.312  -7.795  0.00  0.00    +0.006 C 
ATOM     13  C   UNL     1       4.182   2.494  -7.180  0.00  0.00    +0.035 C 
ATOM     14  C   UNL     1       8.005   2.804  -7.515  0.00  0.00    +0.007 C 
ATOM     15  N   UNL     1       4.355   0.414  -5.878  0.00  0.00    -0.284 N 
ATOM     16  C   UNL     1       3.244  -0.156  -5.374  0.00  0.00    +0.326 C 
ATOM     17  O   UNL     1       3.080  -1.358  -5.291  0.00  0.00    -0.251 OA
ATOM     18  H   UNL     1       5.137  -0.043  -6.225  0.00  0.00    +0.151 HD
ENDBRANCH   3   5
BRANCH   1  19
ATOM     19  C   UNL     1      -0.318  -0.363  -2.550  0.00  0.00    +0.136 C 
BRANCH  19  22
ATOM     20  C   UNL     1      -0.339   1.479   0.029  0.00  0.00    +0.068 C 
ATOM     21  C   UNL     1      -0.137  -0.015   0.010  0.00  0.00    +0.064 A 
ATOM     22  C   UNL     1      -0.127  -0.827  -1.129  0.00  0.00    +0.005 A 
ATOM     23  C   UNL     1       0.084  -2.102  -0.730  0.00  0.00    +0.046 A 
ATOM     24  N   UNL     1       0.203  -2.097   0.617  0.00  0.00    -0.236 N 
ATOM     25  N   UNL     1       0.066  -0.774   1.056  0.00  0.00    -0.171 NA
ATOM     26  C   UNL     1       0.169  -3.312  -1.625  0.00  0.00    +0.066 C 
BRANCH  24  27
ATOM     27  C   UNL     1       0.430  -3.218   1.430  0.00  0.00    +0.066 A 
ATOM     28  C   UNL     1       1.348  -4.184   1.042  0.00  0.00    +0.030 A 
ATOM     29  C   UNL     1       1.569  -5.287   1.843  0.00  0.00    +0.040 A 
ATOM     30  C   UNL     1       0.876  -5.429   3.033  0.00  0.00    +0.124 A 
ATOM     31  C   UNL     1      -0.041  -4.466   3.422  0.00  0.00    +0.040 A 
ATOM     32  C   UNL     1      -0.260  -3.359   2.626  0.00  0.00    +0.030 A 
ATOM     33  F   UNL     1       1.094  -6.508   3.816  0.00  0.00    -0.205 F 
ENDBRANCH  24  27
ENDBRANCH  19  22
ENDBRANCH   1  19
TORSDOF 4
