REMARK  Name = ZINC14660438
REMARK  15 active torsions:
REMARK  status: ('A' for Active; 'I' for Inactive)
REMARK    1  A    between atoms: C_1  and  C_2
REMARK    2  A    between atoms: C_5  and  C_30
REMARK    3  A    between atoms: C_6  and  O_8
REMARK    4  A    between atoms: O_8  and  C_9
REMARK    5  A    between atoms: C_9  and  C_10
REMARK    6  A    between atoms: N_12  and  N_13
REMARK    7  A    between atoms: N_13  and  C_14
REMARK    8  A    between atoms: C_14  and  N_16
REMARK    9  A    between atoms: C_17  and  C_19
REMARK   10  A    between atoms: C_22  and  O_26
REMARK   11  A    between atoms: O_26  and  C_27
REMARK   12  A    between atoms: C_27  and  C_28
REMARK   13  A    between atoms: C_27  and  C_29
REMARK   14  A    between atoms: C_30  and  C_31
REMARK   15  A    between atoms: C_30  and  C_32
REMARK                            x       y       z     vdW  Elec       q    Type
REMARK                         _______ _______ _______ _____ _____    ______ ____
ROOT
ATOM      1  N   UNL     1      -1.039  -7.147  -1.009  0.00  0.00    -0.245 N 
ATOM      2  H   UNL     1      -0.894  -8.091  -1.177  0.00  0.00    +0.172 HD
ENDROOT
BRANCH   1   5
ATOM      3  C   UNL     1      -3.345  -7.550  -0.576  0.00  0.00    +0.267 C 
ATOM      4  O   UNL     1      -3.164  -8.731  -0.786  0.00  0.00    -0.271 OA
ATOM      5  N   UNL     1      -2.317  -6.684  -0.669  0.00  0.00    -0.232 N 
ATOM      6  H   UNL     1      -2.461  -5.739  -0.501  0.00  0.00    +0.173 HD
BRANCH   3   7
ATOM      7  C   UNL     1      -4.719  -7.051  -0.210  0.00  0.00    +0.326 C 
BRANCH   7   8
ATOM      8  O   UNL     1      -5.631  -8.151  -0.176  0.00  0.00    -0.482 OA
BRANCH   8  14
ATOM      9  C   UNL     1      -9.034  -4.866   1.029  0.00  0.00    +0.044 C 
ATOM     10  C   UNL     1      -8.618  -6.284   0.733  0.00  0.00    -0.047 A 
ATOM     11  C   UNL     1      -9.553  -7.302   0.784  0.00  0.00    +0.004 A 
ATOM     12  C   UNL     1      -9.175  -8.604   0.514  0.00  0.00    +0.008 A 
ATOM     13  C   UNL     1      -7.862  -8.891   0.192  0.00  0.00    -0.003 A 
ATOM     14  C   UNL     1      -6.923  -7.872   0.141  0.00  0.00    +0.125 A 
ATOM     15  C   UNL     1      -7.304  -6.566   0.417  0.00  0.00    +0.049 A 
BRANCH  13  16
ATOM     16  C   UNL     1      -7.450 -10.311  -0.102  0.00  0.00    +0.016 C 
ATOM     17  C   UNL     1      -7.731 -11.187   1.120  0.00  0.00    +0.012 C 
ATOM     18  C   UNL     1      -8.247 -10.835  -1.299  0.00  0.00    +0.012 C 
ENDBRANCH  13  16
ENDBRANCH   8  14
ENDBRANCH   7   8
ENDBRANCH   3   7
ENDBRANCH   1   5
BRANCH   1  19
ATOM     19  C   UNL     1      -0.010  -6.281  -1.102  0.00  0.00    +0.153 C 
ATOM     20  S   UNL     1       1.551  -6.847  -1.517  0.00  0.00    -0.017 S 
BRANCH  19  21
ATOM     21  N   UNL     1      -0.211  -4.969  -0.868  0.00  0.00    -0.263 N 
ATOM     22  C   UNL     1       0.817  -4.103  -0.962  0.00  0.00    +0.250 C 
ATOM     23  O   UNL     1       1.926  -4.505  -1.256  0.00  0.00    -0.270 OA
ATOM     24  H   UNL     1      -1.096  -4.648  -0.633  0.00  0.00    +0.157 HD
BRANCH  22  25
ATOM     25  C   UNL     1       0.597  -2.667  -0.706  0.00  0.00    +0.038 A 
ATOM     26  C   UNL     1       1.662  -1.766  -0.802  0.00  0.00    +0.017 A 
ATOM     27  C   UNL     1       1.453  -0.427  -0.563  0.00  0.00    +0.047 A 
ATOM     28  C   UNL     1       0.185   0.032  -0.226  0.00  0.00    +0.135 A 
ATOM     29  C   UNL     1      -0.876  -0.861  -0.124  0.00  0.00    +0.060 A 
ATOM     30  C   UNL     1      -0.677  -2.202  -0.367  0.00  0.00    +0.032 A 
ATOM     31 BR   UNL     1      -2.598  -0.231   0.342  0.00  0.00    -0.046 Br
BRANCH  28  32
ATOM     32  O   UNL     1      -0.016   1.353   0.009  0.00  0.00    -0.488 OA
BRANCH  32  33
ATOM     33  C   UNL     1       1.138   2.195   0.011  0.00  0.00    +0.167 C 
ATOM     34  C   UNL     1       1.462   2.618  -1.424  0.00  0.00    +0.051 C 
ATOM     35  C   UNL     1       0.862   3.438   0.859  0.00  0.00    +0.051 C 
ENDBRANCH  32  33
ENDBRANCH  28  32
ENDBRANCH  22  25
ENDBRANCH  19  21
ENDBRANCH   1  19
TORSDOF 10
