REMARK  Name = ZINC13121900
REMARK  3 active torsions:
REMARK  status: ('A' for Active; 'I' for Inactive)
REMARK    1  A    between atoms: C_4  and  C_7
REMARK    2  A    between atoms: C_10  and  C_26
REMARK    3  A    between atoms: C_18  and  C_20
REMARK                            x       y       z     vdW  Elec       q    Type
REMARK                         _______ _______ _______ _____ _____    ______ ____
ROOT
ATOM      1  C   UNL     1       3.711  -0.707  -0.038  0.00  0.00    +0.106 C 
ATOM      2  C   UNL     1       4.019  -1.178  -1.464  0.00  0.00    +0.058 C 
ATOM      3  C   UNL     1       2.874  -2.061  -1.976  0.00  0.00    +0.143 C 
ATOM      4  N   UNL     1       2.569  -3.072  -0.963  0.00  0.00    -0.224 N 
ATOM      5  C   UNL     1       2.928  -2.979   0.340  0.00  0.00    +0.216 A 
ATOM      6  N   UNL     1       2.501  -4.048   0.957  0.00  0.00    -0.180 NA
ATOM      7  C   UNL     1       1.865  -4.844   0.084  0.00  0.00    +0.243 A 
ATOM      8  N   UNL     1       1.885  -4.280  -1.103  0.00  0.00    -0.131 NA
ATOM      9  N   UNL     1       1.277  -6.074   0.388  0.00  0.00    -0.247 N 
ATOM     10  C   UNL     1       1.322  -6.550   1.648  0.00  0.00    +0.286 C 
ATOM     11  O   UNL     1       1.875  -5.908   2.522  0.00  0.00    -0.266 OA
ATOM     12  N   UNL     1       3.630  -1.887   0.844  0.00  0.00    -0.307 N 
ATOM     13  H   UNL     1       0.836  -6.586  -0.308  0.00  0.00    +0.158 HD
ATOM     14  H   UNL     1       4.044  -1.901   1.722  0.00  0.00    +0.149 HD
ENDROOT
BRANCH   3  15
ATOM     15  C   UNL     1       3.292  -2.736  -3.257  0.00  0.00    -0.023 A 
ATOM     16  C   UNL     1       4.387  -3.579  -3.268  0.00  0.00    +0.008 A 
ATOM     17  C   UNL     1       4.770  -4.199  -4.442  0.00  0.00    +0.038 A 
ATOM     18  C   UNL     1       4.057  -3.975  -5.608  0.00  0.00    +0.123 A 
ATOM     19  C   UNL     1       2.959  -3.131  -5.595  0.00  0.00    +0.038 A 
ATOM     20  C   UNL     1       2.575  -2.516  -4.418  0.00  0.00    +0.008 A 
ATOM     21  F   UNL     1       4.431  -4.580  -6.756  0.00  0.00    -0.205 F 
ENDBRANCH   3  15
BRANCH   1  25
ATOM     22  C   UNL     1      -0.017   1.378   0.010  0.00  0.00    +0.000 A 
ATOM     23  C   UNL     1       1.171   2.086   0.002  0.00  0.00    +0.000 A 
ATOM     24  C   UNL     1       2.377   1.411  -0.013  0.00  0.00    +0.005 A 
ATOM     25  C   UNL     1       2.396   0.029  -0.020  0.00  0.00    -0.027 A 
ATOM     26  C   UNL     1       1.208  -0.679  -0.012  0.00  0.00    +0.005 A 
ATOM     27  C   UNL     1       0.002  -0.004   0.002  0.00  0.00    +0.000 A 
ENDBRANCH   1  25
BRANCH  10  28
ATOM     28  C   UNL     1       0.704  -7.841   1.967  0.00  0.00    +0.189 A 
ATOM     29  C   UNL     1       0.673  -8.434   3.197  0.00  0.00    +0.054 A 
ATOM     30  C   UNL     1      -0.014  -9.648   3.042  0.00  0.00    +0.042 A 
ATOM     31  C   UNL     1      -0.367  -9.742   1.741  0.00  0.00    +0.196 A 
ATOM     32  O   UNL     1       0.063  -8.649   1.098  0.00  0.00    -0.458 OA
ENDBRANCH  10  28
TORSDOF 3
