REMARK  Name = ZINC15680375
REMARK  12 active torsions:
REMARK  status: ('A' for Active; 'I' for Inactive)
REMARK    1  A    between atoms: C_1  and  C_2
REMARK    2  A    between atoms: C_2  and  O_3
REMARK    3  A    between atoms: O_3  and  C_4
REMARK    4  A    between atoms: C_4  and  C_6
REMARK    5  A    between atoms: C_7  and  N_31
REMARK    6  A    between atoms: N_13  and  C_14
REMARK    7  A    between atoms: C_14  and  C_15
REMARK    8  A    between atoms: N_17  and  C_18
REMARK    9  A    between atoms: C_21  and  C_24
REMARK   10  A    between atoms: C_24  and  C_25
REMARK   11  A    between atoms: C_24  and  C_26
REMARK   12  A    between atoms: C_32  and  C_34
REMARK                            x       y       z     vdW  Elec       q    Type
REMARK                         _______ _______ _______ _____ _____    ______ ____
ROOT
ATOM      1  C   UNL     1      -0.933   2.270   0.591  0.00  0.00    +0.150 A 
ATOM      2  C   UNL     1       0.030   1.503  -0.035  0.00  0.00    +0.074 A 
ATOM      3  C   UNL     1       0.981   2.392  -0.629  0.00  0.00    +0.033 A 
ATOM      4  C   UNL     1       2.214   2.308  -1.422  0.00  0.00    -0.026 A 
ATOM      5  C   UNL     1       2.792   3.473  -1.774  0.00  0.00    -0.004 A 
ATOM      6  S   UNL     1       1.749   4.727  -1.082  0.00  0.00    -0.075 S 
ATOM      7  C   UNL     1       0.536   3.677  -0.321  0.00  0.00    +0.091 A 
ATOM      8  N   UNL     1      -0.604   3.610   0.410  0.00  0.00    -0.319 N 
ATOM      9  C   UNL     1       4.044   3.660  -2.575  0.00  0.00    +0.043 C 
ATOM     10  C   UNL     1       4.788   2.318  -2.629  0.00  0.00    +0.005 C 
ATOM     11  C   UNL     1       3.791   1.217  -3.001  0.00  0.00    +0.005 C 
ATOM     12  C   UNL     1       2.826   0.975  -1.839  0.00  0.00    +0.036 C 
ENDROOT
BRANCH   2  13
ATOM     13  N   UNL     1       0.066   0.112  -0.083  0.00  0.00    -0.283 N 
ATOM     14  C   UNL     1       1.234  -0.539   0.093  0.00  0.00    +0.214 C 
ATOM     15  O   UNL     1       2.239   0.083   0.363  0.00  0.00    -0.276 OA
ATOM     16  C   UNL     1       1.289  -2.038  -0.048  0.00  0.00    +0.109 C 
ATOM     17  H   UNL     1      -0.749  -0.389  -0.243  0.00  0.00    +0.155 HD
ENDBRANCH   2  13
BRANCH   1  18
ATOM     18  C   UNL     1      -2.055   1.780   1.295  0.00  0.00    +0.358 C 
ATOM     19  O   UNL     1      -2.188   0.583   1.472  0.00  0.00    -0.243 OA
BRANCH  18  20
ATOM     20  O   UNL     1      -2.981   2.640   1.772  0.00  0.00    -0.460 OA
BRANCH  20  22
ATOM     21  C   UNL     1      -5.026   3.194   2.935  0.00  0.00    +0.048 C 
ATOM     22  C   UNL     1      -4.090   2.075   2.474  0.00  0.00    +0.229 C 
ENDBRANCH  20  22
ENDBRANCH  18  20
ENDBRANCH   1  18
BRANCH   8  23
ATOM     23  C   UNL     1      -1.364   4.754   0.918  0.00  0.00    +0.219 C 
BRANCH  23  24
ATOM     24  C   UNL     1      -2.392   5.168  -0.103  0.00  0.00    +0.237 C 
ATOM     25  O   UNL     1      -2.482   4.565  -1.152  0.00  0.00    -0.274 OA
ATOM     26  N   UNL     1      -3.213   6.207   0.149  0.00  0.00    -0.284 N 
ATOM     27  H   UNL     1      -3.095   6.733   0.956  0.00  0.00    +0.155 HD
BRANCH  26  28
ATOM     28  C   UNL     1      -4.235   6.526  -0.751  0.00  0.00    +0.033 A 
ATOM     29  C   UNL     1      -4.712   7.827  -0.829  0.00  0.00    +0.023 A 
ATOM     30  C   UNL     1      -5.718   8.140  -1.723  0.00  0.00    +0.006 A 
ATOM     31  C   UNL     1      -6.256   7.156  -2.532  0.00  0.00    -0.045 A 
ATOM     32  C   UNL     1      -5.787   5.858  -2.453  0.00  0.00    +0.006 A 
ATOM     33  C   UNL     1      -4.778   5.540  -1.565  0.00  0.00    +0.023 A 
BRANCH  31  34
ATOM     34  C   UNL     1      -7.357   7.500  -3.503  0.00  0.00    +0.013 C 
ATOM     35  C   UNL     1      -8.561   8.048  -2.735  0.00  0.00    +0.012 C 
ATOM     36  C   UNL     1      -6.856   8.558  -4.488  0.00  0.00    +0.012 C 
ENDBRANCH  31  34
ENDBRANCH  26  28
ENDBRANCH  23  24
ENDBRANCH   8  23
TORSDOF 8
