REMARK  Name = ZINC39919083
REMARK  5 active torsions:
REMARK  status: ('A' for Active; 'I' for Inactive)
REMARK    1  A    between atoms: C_1  and  C_2
REMARK    2  A    between atoms: N_8  and  C_9
REMARK    3  A    between atoms: C_9  and  C_10
REMARK    4  A    between atoms: C_22  and  C_26
REMARK    5  A    between atoms: C_23  and  N_25
REMARK                            x       y       z     vdW  Elec       q    Type
REMARK                         _______ _______ _______ _____ _____    ______ ____
ROOT
ATOM      1  C   UNL     1      -0.018   1.503   0.010  0.00  0.00    +0.064 C 
ATOM      2  C   UNL     1       0.002  -0.004   0.002  0.00  0.00    +0.023 A 
ATOM      3  C   UNL     1       0.005  -0.663  -1.176  0.00  0.00    +0.068 A 
ATOM      4  C   UNL     1       0.024  -2.074  -1.190  0.00  0.00    +0.142 A 
ATOM      5  C   UNL     1       0.036  -2.753   0.011  0.00  0.00    +0.084 A 
ATOM      6  C   UNL     1       0.033  -2.026   1.208  0.00  0.00    +0.260 A 
ATOM      7  O   UNL     1       0.044  -2.614   2.278  0.00  0.00    -0.267 OA
ATOM      8  N   UNL     1       0.022  -0.680   1.180  0.00  0.00    -0.308 N 
ATOM      9  C   UNL     1       0.053  -4.255   0.038  0.00  0.00    +0.146 C 
ATOM     10  C   UNL     1       1.388  -4.767   0.481  0.00  0.00    -0.001 A 
ATOM     11  C   UNL     1       2.645  -4.632  -0.067  0.00  0.00    +0.007 A 
ATOM     12  C   UNL     1       3.697  -5.242   0.608  0.00  0.00    +0.000 A 
ATOM     13  C   UNL     1       3.488  -5.951   1.773  0.00  0.00    +0.002 A 
ATOM     14  C   UNL     1       2.227  -6.091   2.331  0.00  0.00    +0.023 A 
ATOM     15  C   UNL     1       1.162  -5.482   1.663  0.00  0.00    +0.038 A 
ATOM     16  N   UNL     1      -0.182  -5.460   1.990  0.00  0.00    -0.284 N 
ATOM     17  C   UNL     1      -0.909  -4.761   1.094  0.00  0.00    +0.238 C 
ATOM     18  O   UNL     1      -2.107  -4.574   1.126  0.00  0.00    -0.274 OA
ATOM     19  C   UNL     1      -0.320  -4.814  -1.304  0.00  0.00    +0.110 C 
ATOM     20  C   UNL     1      -0.311  -4.035  -2.413  0.00  0.00    +0.199 C 
ATOM     21  O   UNL     1       0.031  -2.736  -2.366  0.00  0.00    -0.441 OA
ATOM     22  H   UNL     1      -0.557  -5.894   2.772  0.00  0.00    +0.155 HD
ENDROOT
BRANCH  20  23
ATOM     23  N   UNL     1      -0.661  -4.588  -3.619  0.00  0.00    -0.328 N 
ATOM     24  H   UNL     1      -0.910  -5.525  -3.669  0.00  0.00    +0.145 HD
ATOM     25  H   UNL     1      -0.660  -4.044  -4.421  0.00  0.00    +0.145 HD
ENDBRANCH  20  23
BRANCH  19  26
ATOM     26  C   UNL     1      -0.691  -6.192  -1.415  0.00  0.00    +0.102 C 
ATOM     27  N   UNL     1      -0.985  -7.286  -1.502  0.00  0.00    -0.191 NA
ENDBRANCH  19  26
BRANCH   8  28
ATOM     28  C   UNL     1       0.028   0.067   2.441  0.00  0.00    +0.152 C 
BRANCH  28  29
ATOM     29  C   UNL     1      -1.391   0.306   2.888  0.00  0.00    -0.013 C 
ATOM     30  C   UNL     1      -1.775  -0.073   4.082  0.00  0.00    +0.005 C 
ENDBRANCH  28  29
ENDBRANCH   8  28
TORSDOF 4
