REMARK  Name = ZINC08715507
REMARK  4 active torsions:
REMARK  status: ('A' for Active; 'I' for Inactive)
REMARK    1  A    between atoms: C_1  and  C_2
REMARK    2  A    between atoms: C_5  and  N_8
REMARK    3  A    between atoms: N_8  and  C_9
REMARK    4  A    between atoms: C_9  and  C_10
REMARK                            x       y       z     vdW  Elec       q    Type
REMARK                         _______ _______ _______ _____ _____    ______ ____
ROOT
ATOM      1  C   UNL     1       0.092  -6.387   0.960  0.00  0.00    +0.128 A 
ATOM      2  N   UNL     1       0.103  -7.264   1.996  0.00  0.00    -0.309 N 
ATOM      3  H   UNL     1       0.099  -6.926   2.905  0.00  0.00    +0.170 HD
ATOM      4  C   UNL     1       0.119  -8.594   1.788  0.00  0.00    +0.260 A 
ATOM      5  O   UNL     1       0.128  -9.368   2.729  0.00  0.00    -0.267 OA
ATOM      6  C   UNL     1       0.125  -9.084   0.441  0.00  0.00    +0.075 A 
ATOM      7  C   UNL     1       0.143 -10.471  -0.021  0.00  0.00    -0.023 A 
ATOM      8  C   UNL     1       0.145 -10.672  -1.356  0.00  0.00    -0.004 A 
ATOM      9  S   UNL     1       0.123  -9.047  -2.065  0.00  0.00    -0.073 S 
ATOM     10  C   UNL     1       0.113  -8.102  -0.562  0.00  0.00    +0.116 A 
ATOM     11  N   UNL     1       0.092  -6.803  -0.278  0.00  0.00    -0.225 NA
ATOM     12  C   UNL     1       0.163 -11.985  -2.076  0.00  0.00    +0.043 C 
ATOM     13  C   UNL     1       0.555 -13.081  -1.075  0.00  0.00    +0.005 C 
ATOM     14  C   UNL     1      -0.284 -12.909   0.194  0.00  0.00    +0.005 C 
ATOM     15  C   UNL     1       0.160 -11.653   0.945  0.00  0.00    +0.037 C 
ENDROOT
BRANCH   1  16
ATOM     16  C   UNL     1       0.074  -4.907   1.244  0.00  0.00    +0.176 C 
BRANCH  16  17
ATOM     17  N   UNL     1       0.058  -4.167  -0.021  0.00  0.00    -0.337 N 
ATOM     18  H   UNL     1       0.060  -4.648  -0.864  0.00  0.00    +0.147 HD
BRANCH  17  23
ATOM     19  C   UNL     1      -0.018   1.503   0.010  0.00  0.00    +0.044 C 
ATOM     20  C   UNL     1       0.002  -0.004   0.002  0.00  0.00    -0.050 A 
ATOM     21  C   UNL     1       0.006  -0.687  -1.200  0.00  0.00    +0.005 A 
ATOM     22  C   UNL     1       0.024  -2.068  -1.212  0.00  0.00    +0.023 A 
ATOM     23  C   UNL     1       0.040  -2.771  -0.013  0.00  0.00    +0.027 A 
ATOM     24  C   UNL     1       0.036  -2.081   1.193  0.00  0.00    +0.023 A 
ATOM     25  C   UNL     1       0.023  -0.700   1.197  0.00  0.00    +0.005 A 
ENDBRANCH  17  23
ENDBRANCH  16  17
ENDBRANCH   1  16
TORSDOF 3
