REMARK  Name = ZINC22748442
REMARK  7 active torsions:
REMARK  status: ('A' for Active; 'I' for Inactive)
REMARK    1  A    between atoms: C_1  and  C_2
REMARK    2  A    between atoms: C_9  and  N_13
REMARK    3  A    between atoms: C_10  and  C_11
REMARK    4  A    between atoms: N_13  and  C_14
REMARK    5  A    between atoms: C_14  and  N_16
REMARK    6  A    between atoms: C_17  and  C_19
REMARK    7  A    between atoms: C_22  and  C_24
REMARK                            x       y       z     vdW  Elec       q    Type
REMARK                         _______ _______ _______ _____ _____    ______ ____
ROOT
ATOM      1  N   UNL     1      -2.345   0.934   0.018  0.00  0.00    -0.261 N 
ATOM      2  C   UNL     1      -3.522   1.592   0.027  0.00  0.00    +0.285 C 
ATOM      3  O   UNL     1      -3.538   2.809   0.034  0.00  0.00    -0.266 OA
ATOM      4  H   UNL     1      -2.330  -0.166   0.012  0.00  0.00    +0.157 HD
ENDROOT
BRANCH   2   5
ATOM      5  C   UNL     1      -4.779   0.843   0.029  0.00  0.00    +0.190 A 
ATOM      6  C   UNL     1      -6.046   1.387   0.038  0.00  0.00    +0.055 A 
ATOM      7  C   UNL     1      -6.945   0.317   0.037  0.00  0.00    +0.051 A 
ATOM      8  C   UNL     1      -6.204  -0.830   0.027  0.00  0.00    +0.137 A 
ATOM      9  O   UNL     1      -4.901  -0.501   0.017  0.00  0.00    -0.450 OA
BRANCH   8  10
ATOM     10  C   UNL     1      -6.744  -2.204   0.021  0.00  0.00    +0.037 A 
ATOM     11  C   UNL     1      -6.283  -3.136  -0.911  0.00  0.00    +0.033 A 
ATOM     12  C   UNL     1      -6.793  -4.419  -0.911  0.00  0.00    +0.042 A 
ATOM     13  C   UNL     1      -7.760  -4.782   0.011  0.00  0.00    +0.021 A 
ATOM     14  C   UNL     1      -8.222  -3.865   0.938  0.00  0.00    +0.022 A 
ATOM     15  C   UNL     1      -7.716  -2.580   0.953  0.00  0.00    +0.052 A 
ATOM     16 CL   UNL     1      -8.291  -1.432   2.121  0.00  0.00    -0.083 Cl
ATOM     17 CL   UNL     1      -6.221  -5.578  -2.069  0.00  0.00    -0.084 Cl
ENDBRANCH   8  10
ENDBRANCH   2   5
BRANCH   1  18
ATOM     18  C   UNL     1      -1.187   1.624   0.017  0.00  0.00    +0.142 C 
ATOM     19  S   UNL     1      -1.210   3.336   0.026  0.00  0.00    -0.018 S 
BRANCH  18  20
ATOM     20  N   UNL     1      -0.011   0.966   0.007  0.00  0.00    -0.290 N 
ATOM     21  H   UNL     1       0.004  -0.134   0.006  0.00  0.00    +0.154 HD
BRANCH  20  29
ATOM     22  C   UNL     1       6.477   5.335  -0.124  0.00  0.00    +0.008 C 
ATOM     23  C   UNL     1       5.486   4.203  -0.405  0.00  0.00    -0.009 C 
ATOM     24  C   UNL     1       5.863   2.970   0.422  0.00  0.00    +0.008 C 
ATOM     25  C   UNL     1       5.038   1.766  -0.034  0.00  0.00    +0.037 C 
ATOM     26  C   UNL     1       3.563   2.148  -0.019  0.00  0.00    -0.018 A 
ATOM     27  C   UNL     1       3.180   3.444  -0.009  0.00  0.00    -0.004 A 
ATOM     28  S   UNL     1       1.411   3.393   0.007  0.00  0.00    -0.077 S 
ATOM     29  C   UNL     1       1.181   1.676  -0.000  0.00  0.00    +0.089 A 
ATOM     30  C   UNL     1       2.477   1.183  -0.010  0.00  0.00    +0.084 A 
ATOM     31  C   UNL     1       4.070   4.648  -0.011  0.00  0.00    +0.046 C 
BRANCH  30  32
ATOM     32  C   UNL     1       2.736  -0.226  -0.013  0.00  0.00    +0.102 C 
ATOM     33  N   UNL     1       2.942  -1.343  -0.017  0.00  0.00    -0.191 NA
ENDBRANCH  30  32
ENDBRANCH  20  29
ENDBRANCH  18  20
ENDBRANCH   1  18
TORSDOF 6
