REMARK  Name = ZINC04729869
REMARK  10 active torsions:
REMARK  status: ('A' for Active; 'I' for Inactive)
REMARK    1  A    between atoms: C_1  and  C_2
REMARK    2  A    between atoms: C_2  and  C_3
REMARK    3  A    between atoms: C_3  and  C_4
REMARK    4  A    between atoms: C_4  and  C_5
REMARK    5  A    between atoms: C_5  and  C_6
REMARK    6  A    between atoms: C_6  and  C_7
REMARK    7  A    between atoms: C_7  and  C_30
REMARK    8  A    between atoms: C_9  and  C_23
REMARK    9  A    between atoms: C_12  and  C_14
REMARK   10  A    between atoms: C_28  and  O_29
REMARK                            x       y       z     vdW  Elec       q    Type
REMARK                         _______ _______ _______ _____ _____    ______ ____
ROOT
ATOM      1  C   UNL     1       2.264  -4.584   3.704  0.00  0.00    +0.026 C 
ATOM      2  N   UNL     1       2.413  -6.041   3.614  0.00  0.00    +0.400 N 
ATOM      3  C   UNL     1       1.085  -6.665   3.728  0.00  0.00    -0.028 C 
ATOM      4  C   UNL     1       0.579  -6.459   5.159  0.00  0.00    +0.044 C 
ATOM      5  C   UNL     1       0.762  -5.019   5.551  0.00  0.00    +0.040 C 
ATOM      6  N   UNL     1       1.512  -4.212   4.896  0.00  0.00    -0.300 NA
ATOM      7  C   UNL     1       3.650  -3.939   3.761  0.00  0.00    +0.014 C 
ATOM      8  H   UNL     1       2.826  -6.284   2.726  0.00  0.00    -0.081 HD
ATOM      9  H   UNL     1       3.005  -6.366   4.364  0.00  0.00    -0.081 HD
ENDROOT
BRANCH   5  10
ATOM     10  C   UNL     1       0.048  -4.513   6.737  0.00  0.00    -0.001 A 
ATOM     11  C   UNL     1      -0.775  -5.367   7.477  0.00  0.00    +0.013 A 
ATOM     12  C   UNL     1      -1.441  -4.892   8.586  0.00  0.00    +0.050 A 
ATOM     13  C   UNL     1      -1.299  -3.566   8.972  0.00  0.00    +0.166 A 
ATOM     14  C   UNL     1      -0.480  -2.708   8.238  0.00  0.00    +0.167 A 
ATOM     15  C   UNL     1       0.195  -3.179   7.128  0.00  0.00    +0.059 A 
ATOM     16  O   UNL     1      -0.511  -1.473   8.819  0.00  0.00    -0.453 OA
ATOM     17  C   UNL     1      -1.672  -1.478   9.670  0.00  0.00    +0.466 C 
ATOM     18  O   UNL     1      -1.841  -2.867  10.011  0.00  0.00    -0.453 OA
ENDBRANCH   5  10
BRANCH   3  19
ATOM     19  C   UNL     1       1.189  -8.139   3.433  0.00  0.00    -0.019 A 
ATOM     20  C   UNL     1       2.387  -8.800   3.627  0.00  0.00    +0.005 A 
ATOM     21  C   UNL     1       2.484 -10.152   3.355  0.00  0.00    +0.000 A 
ATOM     22  C   UNL     1       1.382 -10.847   2.890  0.00  0.00    +0.004 A 
ATOM     23  C   UNL     1       0.183 -10.191   2.694  0.00  0.00    +0.045 A 
ATOM     24  C   UNL     1       0.082  -8.835   2.971  0.00  0.00    +0.118 A 
BRANCH  24  25
ATOM     25  O   UNL     1      -1.099  -8.188   2.785  0.00  0.00    -0.507 OA
ATOM     26  H   UNL     1      -1.209  -7.818   1.899  0.00  0.00    +0.292 HD
ENDBRANCH  24  25
ENDBRANCH   3  19
BRANCH   1  27
ATOM     27  C   UNL     1       1.524  -4.077   2.464  0.00  0.00    +0.010 C 
BRANCH  27  28
ATOM     28  C   UNL     1       1.503  -2.548   2.473  0.00  0.00    +0.000 C 
BRANCH  28  29
ATOM     29  C   UNL     1       0.763  -2.041   1.233  0.00  0.00    -0.000 C 
BRANCH  29  30
ATOM     30  C   UNL     1       0.742  -0.511   1.242  0.00  0.00    -0.000 C 
BRANCH  30  32
ATOM     31  C   UNL     1      -0.019   1.526   0.010  0.00  0.00    +0.004 C 
ATOM     32  C   UNL     1       0.002  -0.004   0.002  0.00  0.00    -0.003 C 
ENDBRANCH  30  32
ENDBRANCH  29  30
ENDBRANCH  28  29
ENDBRANCH  27  28
ENDBRANCH   1  27
TORSDOF 8
