REMARK  Name = ZINC59018479
REMARK  7 active torsions:
REMARK  status: ('A' for Active; 'I' for Inactive)
REMARK    1  A    between atoms: C_1  and  C_2
REMARK    2  A    between atoms: C_2  and  C_3
REMARK    3  A    between atoms: C_3  and  S_4
REMARK    4  A    between atoms: S_4  and  C_5
REMARK    5  A    between atoms: N_11  and  N_12
REMARK    6  A    between atoms: C_13  and  C_14
REMARK    7  A    between atoms: C_19  and  O_20
REMARK                            x       y       z     vdW  Elec       q    Type
REMARK                         _______ _______ _______ _____ _____    ______ ____
ROOT
ATOM      1  C   UNL     1       1.589  -2.718  -2.758  0.00  0.00    +0.190 A 
ATOM      2  N   UNL     1       1.853  -3.978  -3.213  0.00  0.00    -0.303 N 
ATOM      3  H   UNL     1       1.608  -4.807  -2.772  0.00  0.00    +0.171 HD
ATOM      4  C   UNL     1       2.524  -3.868  -4.399  0.00  0.00    +0.235 A 
ATOM      5  N   UNL     1       2.669  -2.592  -4.665  0.00  0.00    -0.111 NA
ATOM      6  N   UNL     1       2.071  -1.863  -3.628  0.00  0.00    -0.121 NA
ATOM      7  N   UNL     1       2.974  -4.920  -5.183  0.00  0.00    -0.205 N 
ATOM      8  H   UNL     1       2.819  -5.835  -4.901  0.00  0.00    +0.177 HD
ENDROOT
BRANCH   7   9
ATOM      9  N   UNL     1       3.651  -4.661  -6.382  0.00  0.00    -0.187 NA
ATOM     10  C   UNL     1       4.072  -5.647  -7.115  0.00  0.00    +0.142 C 
BRANCH  10  11
ATOM     11  C   UNL     1       4.785  -5.374  -8.376  0.00  0.00    +0.038 A 
ATOM     12  C   UNL     1       5.234  -6.431  -9.171  0.00  0.00    +0.028 A 
ATOM     13  C   UNL     1       5.901  -6.170 -10.351  0.00  0.00    +0.020 A 
ATOM     14  C   UNL     1       6.127  -4.863 -10.750  0.00  0.00    +0.034 A 
ATOM     15  C   UNL     1       5.687  -3.808  -9.971  0.00  0.00    +0.061 A 
ATOM     16  C   UNL     1       5.011  -4.053  -8.787  0.00  0.00    +0.139 A 
ATOM     17 BR   UNL     1       6.002  -2.028 -10.527  0.00  0.00    -0.046 Br
ATOM     18 BR   UNL     1       6.510  -7.601 -11.426  0.00  0.00    -0.050 Br
BRANCH  16  19
ATOM     19  O   UNL     1       4.573  -3.018  -8.024  0.00  0.00    -0.505 OA
ATOM     20  H   UNL     1       5.215  -2.714  -7.368  0.00  0.00    +0.292 HD
ENDBRANCH  16  19
ENDBRANCH  10  11
ENDBRANCH   7   9
BRANCH   1  21
ATOM     21  S   UNL     1       0.743  -2.311  -1.267  0.00  0.00    -0.086 S 
BRANCH  21  22
ATOM     22  C   UNL     1       0.718  -0.497  -1.257  0.00  0.00    +0.077 C 
BRANCH  22  24
ATOM     23  C   UNL     1      -0.019   1.526   0.010  0.00  0.00    +0.004 C 
ATOM     24  C   UNL     1       0.002  -0.004   0.002  0.00  0.00    +0.008 C 
ENDBRANCH  22  24
ENDBRANCH  21  22
ENDBRANCH   1  21
TORSDOF 6
