REMARK  Name = ZINC01243769
REMARK  8 active torsions:
REMARK  status: ('A' for Active; 'I' for Inactive)
REMARK    1  A    between atoms: C_1  and  C_2
REMARK    2  A    between atoms: C_2  and  C_33
REMARK    3  A    between atoms: C_3  and  N_22
REMARK    4  A    between atoms: N_5  and  N_9
REMARK    5  A    between atoms: C_10  and  C_11
REMARK    6  A    between atoms: C_20  and  O_21
REMARK    7  A    between atoms: N_22  and  O_32
REMARK    8  A    between atoms: N_25  and  C_26
REMARK                            x       y       z     vdW  Elec       q    Type
REMARK                         _______ _______ _______ _____ _____    ______ ____
ROOT
ATOM      1  C   UNL     1       2.352  -1.119   0.966  0.00  0.00    +0.026 C 
ATOM      2  C   UNL     1       1.943  -0.113  -0.111  0.00  0.00    +0.056 C 
ATOM      3  C   UNL     1       2.477   1.298   0.212  0.00  0.00    +0.232 C 
ATOM      4  N   UNL     1       1.431   2.274   0.407  0.00  0.00    -0.187 N 
ATOM      5  C   UNL     1       0.140   1.928   0.303  0.00  0.00    +0.132 C 
ATOM      6  S   UNL     1      -1.222   2.947   0.493  0.00  0.00    -0.026 S 
ATOM      7  S   UNL     1       0.135   0.189  -0.083  0.00  0.00    -0.091 S 
ATOM      8  C   UNL     1       2.404  -0.573  -1.496  0.00  0.00    +0.026 C 
ENDROOT
BRANCH   3   9
ATOM      9  N   UNL     1       3.335   1.740  -0.890  0.00  0.00    -0.143 N 
ATOM     10  C   UNL     1       4.540   2.284  -0.629  0.00  0.00    +0.327 C 
ATOM     11  O   UNL     1       4.878   2.491   0.520  0.00  0.00    -0.250 OA
ATOM     12  N   UNL     1       5.371   2.598  -1.643  0.00  0.00    -0.295 N 
ATOM     13  H   UNL     1       5.074   2.502  -2.561  0.00  0.00    +0.151 HD
BRANCH  12  14
ATOM     14  C   UNL     1       6.723   3.086  -1.357  0.00  0.00    +0.074 C 
ATOM     15  C   UNL     1       6.680   4.596  -1.118  0.00  0.00    +0.022 C 
ATOM     16  C   UNL     1       8.092   5.106  -0.821  0.00  0.00    +0.002 C 
ATOM     17  C   UNL     1       9.005   4.803  -2.010  0.00  0.00    +0.000 C 
ATOM     18  C   UNL     1       9.048   3.293  -2.250  0.00  0.00    +0.002 C 
ATOM     19  C   UNL     1       7.636   2.784  -2.547  0.00  0.00    +0.022 C 
ENDBRANCH  12  14
BRANCH   9  20
ATOM     20  O   UNL     1       2.897   1.597  -2.229  0.00  0.00    -0.289 OA
ATOM     21  H   UNL     1       3.560   1.845  -2.888  0.00  0.00    +0.242 HD
ENDBRANCH   9  20
ENDBRANCH   3   9
BRANCH   4  22
ATOM     22  N   UNL     1       1.769   3.600   0.707  0.00  0.00    -0.184 NA
ATOM     23  C   UNL     1       1.465   4.101   1.867  0.00  0.00    +0.142 C 
BRANCH  23  24
ATOM     24  C   UNL     1       1.719   5.522   2.143  0.00  0.00    +0.044 A 
ATOM     25  C   UNL     1       1.385   6.102   3.443  0.00  0.00    -0.006 A 
ATOM     26  C   UNL     1       0.816   5.330   4.463  0.00  0.00    +0.009 A 
ATOM     27  C   UNL     1       0.517   5.909   5.660  0.00  0.00    +0.001 A 
ATOM     28  C   UNL     1       0.772   7.260   5.884  0.00  0.00    +0.001 A 
ATOM     29  C   UNL     1       1.326   8.039   4.914  0.00  0.00    +0.008 A 
ATOM     30  C   UNL     1       1.645   7.476   3.667  0.00  0.00    -0.017 A 
ATOM     31  C   UNL     1       2.218   8.249   2.642  0.00  0.00    +0.012 A 
ATOM     32  C   UNL     1       2.524   7.693   1.440  0.00  0.00    +0.046 A 
ATOM     33  C   UNL     1       2.290   6.345   1.173  0.00  0.00    +0.126 A 
BRANCH  33  34
ATOM     34  O   UNL     1       2.617   5.831  -0.040  0.00  0.00    -0.506 OA
ATOM     35  H   UNL     1       1.906   5.884  -0.694  0.00  0.00    +0.292 HD
ENDBRANCH  33  34
ENDBRANCH  23  24
ENDBRANCH   4  22
TORSDOF 6
