REMARK  Name = ZINC36548823
REMARK  11 active torsions:
REMARK  status: ('A' for Active; 'I' for Inactive)
REMARK    1  A    between atoms: C_1  and  C_2
REMARK    2  A    between atoms: C_5  and  S_8
REMARK    3  A    between atoms: S_8  and  C_11
REMARK    4  A    between atoms: C_11  and  N_12
REMARK    5  A    between atoms: C_13  and  C_15
REMARK    6  A    between atoms: C_15  and  C_17
REMARK    7  A    between atoms: C_15  and  N_24
REMARK    8  A    between atoms: C_22  and  O_23
REMARK    9  A    between atoms: N_24  and  C_25
REMARK   10  A    between atoms: C_32  and  C_34
REMARK   11  A    between atoms: C_34  and  C_36
REMARK                            x       y       z     vdW  Elec       q    Type
REMARK                         _______ _______ _______ _____ _____    ______ ____
ROOT
ATOM      1  C   UNL     1       3.925  -5.095   2.850  0.00  0.00    +0.201 C 
ENDROOT
BRANCH   1   2
ATOM      2  C   UNL     1       3.213  -4.073   3.698  0.00  0.00    +0.024 A 
ATOM      3  C   UNL     1       1.916  -3.705   3.394  0.00  0.00    +0.009 A 
ATOM      4  C   UNL     1       1.263  -2.768   4.172  0.00  0.00    +0.001 A 
ATOM      5  C   UNL     1       1.904  -2.195   5.255  0.00  0.00    +0.004 A 
ATOM      6  C   UNL     1       3.200  -2.560   5.563  0.00  0.00    +0.046 A 
ATOM      7  C   UNL     1       3.857  -3.505   4.788  0.00  0.00    +0.122 A 
BRANCH   7   8
ATOM      8  O   UNL     1       5.130  -3.869   5.092  0.00  0.00    -0.506 OA
ATOM      9  H   UNL     1       5.806  -3.284   4.723  0.00  0.00    +0.292 HD
ENDBRANCH   7   8
ENDBRANCH   1   2
BRANCH   1  11
ATOM     10  N   UNL     1       4.067  -4.221   0.541  0.00  0.00    -0.294 N 
ATOM     11  C   UNL     1       3.428  -5.005   1.431  0.00  0.00    +0.240 C 
ATOM     12  O   UNL     1       2.451  -5.639   1.089  0.00  0.00    -0.273 OA
ATOM     13  H   UNL     1       4.827  -3.688   0.822  0.00  0.00    +0.150 HD
BRANCH  10  14
ATOM     14  C   UNL     1       3.615  -4.173  -0.852  0.00  0.00    +0.278 C 
BRANCH  14  15
ATOM     15  S   UNL     1       2.456  -2.793  -1.064  0.00  0.00    +0.013 S 
ATOM     16  O   UNL     1       1.786  -2.525   0.160  0.00  0.00    -0.168 OA
ATOM     17  O   UNL     1       1.724  -2.950  -2.272  0.00  0.00    -0.168 OA
BRANCH  15  22
ATOM     18  C   UNL     1       5.948   2.038  -1.997  0.00  0.00    +0.044 C 
ATOM     19  C   UNL     1       5.076   0.831  -1.764  0.00  0.00    -0.050 A 
ATOM     20  C   UNL     1       4.647   0.071  -2.836  0.00  0.00    +0.005 A 
ATOM     21  C   UNL     1       3.847  -1.036  -2.622  0.00  0.00    +0.027 A 
ATOM     22  C   UNL     1       3.477  -1.383  -1.336  0.00  0.00    +0.090 A 
ATOM     23  C   UNL     1       3.906  -0.623  -0.264  0.00  0.00    +0.027 A 
ATOM     24  C   UNL     1       4.710   0.481  -0.477  0.00  0.00    +0.005 A 
ENDBRANCH  15  22
ENDBRANCH  14  15
ENDBRANCH  10  14
ENDBRANCH   1  11
BRANCH   1  25
ATOM     25  N   UNL     1       3.660  -6.437   3.377  0.00  0.00    -0.250 N 
ATOM     26  C   UNL     1       2.391  -6.851   3.556  0.00  0.00    +0.247 C 
ATOM     27  O   UNL     1       1.465  -6.145   3.204  0.00  0.00    -0.270 OA
BRANCH  25  28
ATOM     28  C   UNL     1       4.725  -7.287   3.693  0.00  0.00    +0.056 A 
ATOM     29  C   UNL     1       5.576  -6.974   4.746  0.00  0.00    +0.025 A 
ATOM     30  C   UNL     1       6.626  -7.816   5.056  0.00  0.00    +0.002 A 
ATOM     31  C   UNL     1       6.832  -8.969   4.321  0.00  0.00    +0.002 A 
ATOM     32  C   UNL     1       5.987  -9.283   3.272  0.00  0.00    +0.022 A 
ATOM     33  C   UNL     1       4.931  -8.449   2.959  0.00  0.00    +0.062 A 
ATOM     34 CL   UNL     1       3.866  -8.848   1.648  0.00  0.00    -0.082 Cl
ENDBRANCH  25  28
BRANCH  26  35
ATOM     35  C   UNL     1       2.124  -8.158   4.176  0.00  0.00    +0.005 C 
ATOM     36  C   UNL     1       1.021  -8.831   3.862  0.00  0.00    +0.017 C 
ATOM     37  C   UNL     1       3.102  -8.734   5.168  0.00  0.00    +0.048 C 
ENDBRANCH  26  35
ENDBRANCH   1  25
TORSDOF 9
