REMARK  Name = ZINC12299322
REMARK  8 active torsions:
REMARK  status: ('A' for Active; 'I' for Inactive)
REMARK    1  A    between atoms: C_1  and  C_2
REMARK    2  A    between atoms: C_2  and  C_4
REMARK    3  A    between atoms: C_2  and  N_56
REMARK    4  A    between atoms: N_7  and  C_9
REMARK    5  A    between atoms: C_15  and  C_16
REMARK    6  A    between atoms: C_15  and  N_56
REMARK    7  A    between atoms: C_21  and  C_22
REMARK    8  A    between atoms: C_25  and  C_28
REMARK                            x       y       z     vdW  Elec       q    Type
REMARK                         _______ _______ _______ _____ _____    ______ ____
ROOT
ATOM      1  C   UNL     1       0.628  -4.466   2.289  0.00  0.00    -0.019 A 
ATOM      2  C   UNL     1       0.125  -5.710   2.134  0.00  0.00    +0.107 A 
ATOM      3  N   UNL     1      -0.274  -6.153   3.345  0.00  0.00    -0.284 N 
ATOM      4  H   UNL     1      -0.681  -7.046   3.539  0.00  0.00    +0.188 HD
ATOM      5  N   UNL     1      -0.017  -5.146   4.284  0.00  0.00    -0.174 NA
ATOM      6  C   UNL     1       0.527  -4.127   3.653  0.00  0.00    +0.094 A 
ENDROOT
BRANCH   6   7
ATOM      7  C   UNL     1       0.958  -2.848   4.268  0.00  0.00    +0.002 A 
ATOM      8  C   UNL     1       2.177  -2.276   3.907  0.00  0.00    +0.010 A 
ATOM      9  C   UNL     1       2.575  -1.086   4.474  0.00  0.00    +0.009 A 
ATOM     10  C   UNL     1       1.763  -0.458   5.418  0.00  0.00    -0.018 A 
ATOM     11  C   UNL     1       0.546  -1.032   5.784  0.00  0.00    +0.009 A 
ATOM     12  C   UNL     1       0.146  -2.220   5.212  0.00  0.00    +0.010 A 
BRANCH  10  13
ATOM     13  C   UNL     1       2.194   0.821   6.033  0.00  0.00    -0.018 A 
ATOM     14  C   UNL     1       1.381   1.454   6.972  0.00  0.00    +0.008 A 
ATOM     15  C   UNL     1       1.789   2.642   7.544  0.00  0.00    +0.001 A 
ATOM     16  C   UNL     1       2.997   3.210   7.180  0.00  0.00    +0.000 A 
ATOM     17  C   UNL     1       3.805   2.589   6.245  0.00  0.00    +0.001 A 
ATOM     18  C   UNL     1       3.409   1.398   5.670  0.00  0.00    +0.008 A 
ENDBRANCH  10  13
ENDBRANCH   6   7
BRANCH   1  19
ATOM     19  C   UNL     1       1.192  -3.594   1.197  0.00  0.00    -0.042 C 
BRANCH  19  20
ATOM     20  N   UNL     1       0.226  -2.523   0.887  0.00  0.00    +0.386 N 
ATOM     21  H   UNL     1      -0.626  -2.939   0.494  0.00  0.00    -0.085 HD
ATOM     22  H   UNL     1      -0.006  -2.017   1.749  0.00  0.00    -0.085 HD
BRANCH  20  24
ATOM     23  C   UNL     1       0.575  -2.111  -1.507  0.00  0.00    -0.009 C 
ATOM     24  C   UNL     1       0.803  -1.581  -0.090  0.00  0.00    -0.041 C 
BRANCH  24  25
ATOM     25  C   UNL     1       0.131  -0.240   0.059  0.00  0.00    -0.024 A 
ATOM     26  C   UNL     1      -1.232  -0.025   0.294  0.00  0.00    +0.136 A 
ATOM     27  N   UNL     1      -1.436   1.266   0.363  0.00  0.00    -0.175 NA
ATOM     28  N   UNL     1      -0.209   1.915   0.174  0.00  0.00    -0.240 N 
ATOM     29  C   UNL     1       0.738   0.967  -0.011  0.00  0.00    +0.116 A 
BRANCH  28  30
ATOM     30  C   UNL     1       0.000   3.301   0.176  0.00  0.00    +0.065 A 
ATOM     31  C   UNL     1       1.276   3.812  -0.020  0.00  0.00    +0.028 A 
ATOM     32  C   UNL     1       1.479   5.178  -0.023  0.00  0.00    +0.002 A 
ATOM     33  C   UNL     1       0.414   6.037   0.181  0.00  0.00    +0.000 A 
ATOM     34  C   UNL     1      -0.857   5.530   0.381  0.00  0.00    +0.002 A 
ATOM     35  C   UNL     1      -1.067   4.165   0.379  0.00  0.00    +0.028 A 
ENDBRANCH  28  30
ENDBRANCH  24  25
ENDBRANCH  20  24
ENDBRANCH  19  20
ENDBRANCH   1  19
TORSDOF 7
