REMARK  Name = ZINC20829437
REMARK  9 active torsions:
REMARK  status: ('A' for Active; 'I' for Inactive)
REMARK    1  A    between atoms: C_4  and  N_7
REMARK    2  A    between atoms: C_8  and  C_28
REMARK    3  A    between atoms: C_11  and  S_12
REMARK    4  A    between atoms: S_12  and  C_13
REMARK    5  A    between atoms: C_13  and  C_14
REMARK    6  A    between atoms: C_14  and  C_15
REMARK    7  A    between atoms: N_17  and  C_18
REMARK    8  A    between atoms: C_21  and  S_24
REMARK    9  A    between atoms: S_24  and  N_27
REMARK                            x       y       z     vdW  Elec       q    Type
REMARK                         _______ _______ _______ _____ _____    ______ ____
ROOT
ATOM      1  S   UNL     1      -0.054   3.485   2.781  0.00  0.00    -0.085 S 
ENDROOT
BRANCH   1   6
ATOM      2  N   UNL     1       1.607   2.980   0.584  0.00  0.00    -0.270 N 
ATOM      3  C   UNL     1       2.376   3.738  -0.272  0.00  0.00    +0.171 A 
ATOM      4  N   UNL     1       2.235   4.991   0.091  0.00  0.00    -0.128 NA
ATOM      5  N   UNL     1       1.450   5.070   1.106  0.00  0.00    -0.122 NA
ATOM      6  C   UNL     1       1.036   3.872   1.451  0.00  0.00    +0.196 A 
BRANCH   3   7
ATOM      7  C   UNL     1       3.200   3.234  -1.391  0.00  0.00    +0.038 A 
ATOM      8  C   UNL     1       2.667   2.316  -2.297  0.00  0.00    +0.013 A 
ATOM      9  C   UNL     1       3.442   1.850  -3.339  0.00  0.00    +0.001 A 
ATOM     10  C   UNL     1       4.745   2.291  -3.488  0.00  0.00    +0.001 A 
ATOM     11  C   UNL     1       5.280   3.201  -2.594  0.00  0.00    +0.021 A 
ATOM     12  C   UNL     1       4.514   3.680  -1.550  0.00  0.00    +0.052 A 
ATOM     13 CL   UNL     1       5.185   4.828  -0.433  0.00  0.00    -0.083 Cl
ENDBRANCH   3   7
BRANCH   2  17
ATOM     14  C   UNL     1       1.135  -1.161   0.552  0.00  0.00    +0.000 A 
ATOM     15  C   UNL     1       0.060  -0.342   0.258  0.00  0.00    +0.002 A 
ATOM     16  C   UNL     1       0.214   1.030   0.268  0.00  0.00    +0.026 A 
ATOM     17  C   UNL     1       1.448   1.587   0.574  0.00  0.00    +0.051 A 
ATOM     18  C   UNL     1       2.525   0.762   0.869  0.00  0.00    +0.026 A 
ATOM     19  C   UNL     1       2.365  -0.610   0.857  0.00  0.00    +0.002 A 
ENDBRANCH   2  17
ENDBRANCH   1   6
BRANCH   1  20
ATOM     20  C   UNL     1      -0.360   5.147   3.429  0.00  0.00    +0.086 C 
BRANCH  20  21
ATOM     21  C   UNL     1      -1.309   5.060   4.626  0.00  0.00    +0.107 C 
BRANCH  21  22
ATOM     22  C   UNL     1      -1.564   6.444   5.166  0.00  0.00    +0.218 C 
ATOM     23  O   UNL     1      -1.039   7.405   4.645  0.00  0.00    -0.275 OA
ATOM     24  N   UNL     1      -2.376   6.614   6.229  0.00  0.00    -0.285 N 
ATOM     25  H   UNL     1      -2.788   5.738   6.752  0.00  0.00    +0.155 HD
BRANCH  24  26
ATOM     26  C   UNL     1      -2.695   7.904   6.666  0.00  0.00    +0.033 A 
ATOM     27  C   UNL     1      -2.903   8.149   8.017  0.00  0.00    +0.025 A 
ATOM     28  C   UNL     1      -3.211   9.425   8.447  0.00  0.00    +0.030 A 
ATOM     29  C   UNL     1      -3.325  10.455   7.532  0.00  0.00    +0.105 A 
ATOM     30  C   UNL     1      -3.124  10.213   6.185  0.00  0.00    +0.030 A 
ATOM     31  C   UNL     1      -2.809   8.941   5.750  0.00  0.00    +0.025 A 
BRANCH  29  32
ATOM     32  S   UNL     1      -3.726  12.080   8.083  0.00  0.00    +0.056 S 
ATOM     33  O   UNL     1      -3.328  12.157   9.445  0.00  0.00    -0.153 OA
ATOM     34  O   UNL     1      -3.237  12.976   7.095  0.00  0.00    -0.153 OA
BRANCH  32  35
ATOM     35  N   UNL     1      -5.377  12.210   8.064  0.00  0.00    -0.204 NA
ATOM     36  H   UNL     1      -5.669  13.215   8.403  0.00  0.00    +0.144 HD
ATOM     37  H   UNL     1      -5.811  11.455   8.736  0.00  0.00    +0.144 HD
ENDBRANCH  32  35
ENDBRANCH  29  32
ENDBRANCH  24  26
ENDBRANCH  21  22
ENDBRANCH  20  21
ENDBRANCH   1  20
TORSDOF 9
