REMARK  Name = ZINC00188081
REMARK  4 active torsions:
REMARK  status: ('A' for Active; 'I' for Inactive)
REMARK    1  A    between atoms: C_3  and  C_7
REMARK    2  A    between atoms: C_16  and  C_25
REMARK    3  A    between atoms: C_20  and  C_21
REMARK    4  A    between atoms: C_20  and  C_23
REMARK                            x       y       z     vdW  Elec       q    Type
REMARK                         _______ _______ _______ _____ _____    ______ ____
ROOT
ATOM      1  C   UNL     1       3.696   2.049  -0.023  0.00  0.00    +0.068 C 
ATOM      2  C   UNL     1       4.473   1.657  -1.285  0.00  0.00    +0.036 C 
ATOM      3  C   UNL     1       3.779   2.239  -2.500  0.00  0.00    +0.078 C 
ATOM      4  S   UNL     1       4.247   1.334  -4.003  0.00  0.00    -0.156 S 
ATOM      5  C   UNL     1       3.813  -0.376  -3.550  0.00  0.00    +0.096 C 
ATOM      6  C   UNL     1       4.452  -0.670  -2.226  0.00  0.00    -0.015 C 
ATOM      7  C   UNL     1       4.721   0.186  -1.306  0.00  0.00    -0.046 C 
ATOM      8  C   UNL     1       5.430  -0.405  -0.082  0.00  0.00    +0.164 C 
ATOM      9  C   UNL     1       4.745   0.144   1.149  0.00  0.00    +0.065 C 
ATOM     10  N   UNL     1       4.394  -0.629   2.106  0.00  0.00    -0.304 NA
ATOM     11  C   UNL     1       4.496   1.645   1.219  0.00  0.00    +0.188 C 
ATOM     12  H   UNL     1       4.565  -1.582   2.047  0.00  0.00    +0.186 HD
ENDROOT
BRANCH   1  15
ATOM     13  C   UNL     1      -0.017   1.378   0.010  0.00  0.00    +0.020 A 
ATOM     14  C   UNL     1       1.185   2.070   0.002  0.00  0.00    +0.007 A 
ATOM     15  C   UNL     1       2.365   1.343  -0.013  0.00  0.00    -0.023 A 
ATOM     16  C   UNL     1       2.305  -0.038  -0.020  0.00  0.00    +0.114 A 
ATOM     17  N   UNL     1       1.144  -0.663  -0.013  0.00  0.00    -0.263 NA
ATOM     18  C   UNL     1       0.002  -0.004   0.002  0.00  0.00    +0.111 A 
ENDBRANCH   1  15
BRANCH  11  19
ATOM     19  C   UNL     1       5.772   2.378   1.245  0.00  0.00    +0.091 C 
ATOM     20  N   UNL     1       6.757   2.944   1.265  0.00  0.00    -0.195 NA
ENDBRANCH  11  19
BRANCH  11  21
ATOM     21  C   UNL     1       3.718   1.955   2.430  0.00  0.00    +0.091 C 
ATOM     22  N   UNL     1       3.118   2.195   3.364  0.00  0.00    -0.195 NA
ENDBRANCH  11  21
BRANCH   8  23
ATOM     23  C   UNL     1       6.847  -0.009  -0.086  0.00  0.00    +0.076 C 
ATOM     24  N   UNL     1       7.941   0.297  -0.089  0.00  0.00    -0.196 NA
ENDBRANCH   8  23
TORSDOF 4
