REMARK  Name = ZINC30961590
REMARK  13 active torsions:
REMARK  status: ('A' for Active; 'I' for Inactive)
REMARK    1  A    between atoms: C_1  and  C_2
REMARK    2  A    between atoms: C_5  and  C_8
REMARK    3  A    between atoms: N_10  and  C_11
REMARK    4  A    between atoms: C_11  and  C_13
REMARK    5  A    between atoms: C_11  and  C_16
REMARK    6  A    between atoms: C_13  and  C_14
REMARK    7  A    between atoms: C_13  and  C_15
REMARK    8  A    between atoms: N_18  and  N_19
REMARK    9  A    between atoms: C_20  and  C_21
REMARK   10  A    between atoms: C_24  and  O_30
REMARK   11  A    between atoms: C_25  and  N_27
REMARK   12  A    between atoms: O_30  and  C_31
REMARK   13  A    between atoms: C_31  and  C_32
REMARK                            x       y       z     vdW  Elec       q    Type
REMARK                         _______ _______ _______ _____ _____    ______ ____
ROOT
ATOM      1  C   UNL     1      -0.585  -2.216  -0.023  0.00  0.00    +0.253 C 
ATOM      2  O   UNL     1       0.377  -2.068  -0.749  0.00  0.00    -0.272 OA
ATOM      3  N   UNL     1      -1.335  -3.332  -0.117  0.00  0.00    -0.205 N 
ATOM      4  H   UNL     1      -2.234  -3.445   0.506  0.00  0.00    +0.177 HD
ENDROOT
BRANCH   3   5
ATOM      5  N   UNL     1      -0.969  -4.349  -1.009  0.00  0.00    -0.188 NA
ATOM      6  C   UNL     1      -1.740  -5.380  -1.169  0.00  0.00    +0.138 C 
BRANCH   6   7
ATOM      7  C   UNL     1      -3.178  -5.280  -0.859  0.00  0.00    -0.003 A 
ATOM      8  C   UNL     1      -3.762  -4.030  -0.636  0.00  0.00    +0.013 A 
ATOM      9  C   UNL     1      -5.107  -3.941  -0.352  0.00  0.00    +0.048 A 
ATOM     10  C   UNL     1      -5.881  -5.093  -0.276  0.00  0.00    +0.151 A 
ATOM     11  C   UNL     1      -5.304  -6.337  -0.492  0.00  0.00    +0.168 A 
ATOM     12  C   UNL     1      -3.960  -6.436  -0.782  0.00  0.00    +0.046 A 
BRANCH  11  13
ATOM     13  N   UNL     1      -6.134  -7.560  -0.410  0.00  0.00    +0.060 N 
ATOM     14  O   UNL     1      -5.629  -8.652  -0.600  0.00  0.00    -0.126 OA
ATOM     15  O   UNL     1      -7.321  -7.475  -0.154  0.00  0.00    -0.126 OA
ENDBRANCH  11  13
BRANCH  10  16
ATOM     16  O   UNL     1      -7.206  -5.000   0.009  0.00  0.00    -0.485 OA
BRANCH  16  17
ATOM     17  C   UNL     1      -7.734  -3.690   0.220  0.00  0.00    +0.264 C 
BRANCH  17  18
ATOM     18  C   UNL     1      -9.208  -3.785   0.522  0.00  0.00    -0.010 A 
ATOM     19  C   UNL     1     -10.129  -3.734  -0.507  0.00  0.00    +0.007 A 
ATOM     20  C   UNL     1     -11.480  -3.827  -0.230  0.00  0.00    +0.000 A 
ATOM     21  C   UNL     1     -11.911  -3.959   1.077  0.00  0.00    +0.000 A 
ATOM     22  C   UNL     1     -10.989  -4.004   2.107  0.00  0.00    +0.000 A 
ATOM     23  C   UNL     1      -9.638  -3.917   1.829  0.00  0.00    +0.007 A 
ENDBRANCH  17  18
ENDBRANCH  16  17
ENDBRANCH  10  16
ENDBRANCH   6   7
ENDBRANCH   3   5
BRANCH   1  24
ATOM     24  C   UNL     1      -0.940  -1.152   0.982  0.00  0.00    +0.163 C 
BRANCH  24  27
ATOM     25  C   UNL     1      -0.691   1.270   1.070  0.00  0.00    +0.245 C 
ATOM     26  O   UNL     1      -1.741   1.327   1.680  0.00  0.00    -0.270 OA
ATOM     27  N   UNL     1      -0.205   0.077   0.673  0.00  0.00    -0.300 N 
ATOM     28  H   UNL     1       0.743   0.026   0.118  0.00  0.00    +0.150 HD
BRANCH  25  33
ATOM     29  C   UNL     1       2.198   6.098  -0.141  0.00  0.00    +0.044 C 
ATOM     30  C   UNL     1       1.442   4.834   0.176  0.00  0.00    -0.050 A 
ATOM     31  C   UNL     1       0.249   4.902   0.874  0.00  0.00    +0.004 A 
ATOM     32  C   UNL     1      -0.448   3.748   1.168  0.00  0.00    +0.013 A 
ATOM     33  C   UNL     1       0.051   2.511   0.758  0.00  0.00    +0.037 A 
ATOM     34  C   UNL     1       1.257   2.449   0.059  0.00  0.00    +0.013 A 
ATOM     35  C   UNL     1       1.942   3.610  -0.233  0.00  0.00    +0.004 A 
ENDBRANCH  25  33
ENDBRANCH  24  27
BRANCH  24  36
ATOM     36  C   UNL     1      -0.566  -1.631   2.386  0.00  0.00    +0.012 C 
ATOM     37  C   UNL     1      -0.929  -0.551   3.408  0.00  0.00    +0.009 C 
ATOM     38  C   UNL     1      -1.331  -2.916   2.708  0.00  0.00    +0.009 C 
ENDBRANCH  24  36
ENDBRANCH   1  24
TORSDOF 10
