REMARK  Name = ZINC27550674
REMARK  10 active torsions:
REMARK  status: ('A' for Active; 'I' for Inactive)
REMARK    1  A    between atoms: C_1  and  C_2
REMARK    2  A    between atoms: C_2  and  C_3
REMARK    3  A    between atoms: C_5  and  C_11
REMARK    4  A    between atoms: C_6  and  S_8
REMARK    5  A    between atoms: S_8  and  C_9
REMARK    6  A    between atoms: C_9  and  C_10
REMARK    7  A    between atoms: C_13  and  C_33
REMARK    8  A    between atoms: C_14  and  N_32
REMARK    9  A    between atoms: N_15  and  C_23
REMARK   10  A    between atoms: C_26  and  N_29
REMARK                            x       y       z     vdW  Elec       q    Type
REMARK                         _______ _______ _______ _____ _____    ______ ____
ROOT
ATOM      1  C   UNL     1      -2.019   3.721   0.211  0.00  0.00    +0.099 C 
ATOM      2  C   UNL     1      -1.122   2.704   0.853  0.00  0.00    +0.077 C 
ATOM      3  C   UNL     1      -1.332   1.373   0.677  0.00  0.00    +0.107 C 
ATOM      4  N   UNL     1      -2.391   0.936  -0.086  0.00  0.00    -0.260 N 
ATOM      5  C   UNL     1      -3.452   1.764  -0.342  0.00  0.00    +0.024 C 
ATOM      6  C   UNL     1      -3.327   3.102  -0.213  0.00  0.00    +0.025 C 
ATOM      7  C   UNL     1      -4.411   3.959  -0.473  0.00  0.00    +0.162 C 
ATOM      8  O   UNL     1      -4.271   5.158  -0.329  0.00  0.00    -0.292 OA
ATOM      9  C   UNL     1      -5.740   3.421  -0.926  0.00  0.00    +0.080 C 
ATOM     10  C   UNL     1      -5.514   2.109  -1.684  0.00  0.00    +0.014 C 
ATOM     11  C   UNL     1      -4.760   1.143  -0.767  0.00  0.00    +0.052 C 
ENDROOT
BRANCH   4  12
ATOM     12  C   UNL     1      -2.384  -0.365  -0.603  0.00  0.00    +0.040 A 
ATOM     13  C   UNL     1      -2.923  -1.410   0.135  0.00  0.00    +0.026 A 
ATOM     14  C   UNL     1      -2.918  -2.692  -0.380  0.00  0.00    +0.034 A 
ATOM     15  C   UNL     1      -2.369  -2.936  -1.626  0.00  0.00    +0.126 A 
ATOM     16  C   UNL     1      -1.827  -1.897  -2.361  0.00  0.00    +0.034 A 
ATOM     17  C   UNL     1      -1.833  -0.613  -1.853  0.00  0.00    +0.026 A 
BRANCH  15  18
ATOM     18  N   UNL     1      -2.360  -4.311  -2.172  0.00  0.00    +0.056 N 
ATOM     19  O   UNL     1      -1.876  -4.528  -3.269  0.00  0.00    -0.126 OA
ATOM     20  O   UNL     1      -2.837  -5.227  -1.526  0.00  0.00    -0.126 OA
ENDBRANCH  15  18
ENDBRANCH   4  12
BRANCH   1  23
ATOM     21  C   UNL     1      -0.367   4.038  -3.138  0.00  0.00    -0.009 A 
ATOM     22  C   UNL     1      -0.979   3.486  -2.063  0.00  0.00    +0.017 A 
ATOM     23  C   UNL     1      -1.331   4.297  -1.000  0.00  0.00    -0.014 A 
ATOM     24  C   UNL     1      -1.038   5.627  -1.064  0.00  0.00    +0.049 A 
ATOM     25  S   UNL     1      -0.254   5.755  -2.663  0.00  0.00    -0.087 S 
BRANCH  21  27
ATOM     26  C   UNL     1      -1.019   3.400  -5.444  0.00  0.00    +0.009 C 
ATOM     27  C   UNL     1       0.105   3.372  -4.405  0.00  0.00    +0.039 C 
ENDBRANCH  21  27
BRANCH  24  28
ATOM     28  S   UNL     1      -1.352   6.892   0.122  0.00  0.00    -0.118 S 
BRANCH  28  29
ATOM     29  C   UNL     1      -0.689   8.393  -0.650  0.00  0.00    +0.071 C 
ATOM     30  C   UNL     1      -0.899   9.584   0.286  0.00  0.00    +0.015 C 
ENDBRANCH  28  29
ENDBRANCH  24  28
ENDBRANCH   1  23
BRANCH   3  31
ATOM     31  N   UNL     1      -0.488   0.462   1.266  0.00  0.00    -0.345 N 
ATOM     32  H   UNL     1      -0.656  -0.615   1.124  0.00  0.00    +0.144 HD
ATOM     33  H   UNL     1       0.356   0.811   1.879  0.00  0.00    +0.144 HD
ENDBRANCH   3  31
BRANCH   2  34
ATOM     34  C   UNL     1      -0.025   3.143   1.661  0.00  0.00    +0.099 C 
ATOM     35  N   UNL     1       0.846   3.491   2.301  0.00  0.00    -0.191 NA
ENDBRANCH   2  34
TORSDOF 8
