REMARK  Name = ZINC17076426
REMARK  7 active torsions:
REMARK  status: ('A' for Active; 'I' for Inactive)
REMARK    1  A    between atoms: C_1  and  C_2
REMARK    2  A    between atoms: C_2  and  C_3
REMARK    3  A    between atoms: C_3  and  O_4
REMARK    4  A    between atoms: O_4  and  C_5
REMARK    5  A    between atoms: C_8  and  C_11
REMARK    6  A    between atoms: C_26  and  N_30
REMARK    7  A    between atoms: C_27  and  C_28
REMARK                            x       y       z     vdW  Elec       q    Type
REMARK                         _______ _______ _______ _____ _____    ______ ____
ROOT
ATOM      1  C   UNL     1       2.524   3.750  -0.004  0.00  0.00    +0.103 C 
ATOM      2  C   UNL     1       1.192   3.048   0.007  0.00  0.00    +0.072 A 
ATOM      3  C   UNL     1       0.032   3.763   0.022  0.00  0.00    +0.148 A 
ATOM      4  C   UNL     1      -1.243   3.033   0.030  0.00  0.00    +0.041 A 
ATOM      5  C   UNL     1      -2.464   3.711   0.046  0.00  0.00    +0.013 A 
ATOM      6  C   UNL     1      -3.633   3.003   0.052  0.00  0.00    +0.001 A 
ATOM      7  C   UNL     1      -3.616   1.615   0.043  0.00  0.00    +0.002 A 
ATOM      8  C   UNL     1      -2.423   0.926   0.028  0.00  0.00    +0.026 A 
ATOM      9  C   UNL     1      -1.222   1.627   0.017  0.00  0.00    +0.053 A 
ATOM     10  N   UNL     1      -0.011   0.966   0.007  0.00  0.00    -0.322 N 
ATOM     11  H   UNL     1       0.002  -0.004   0.002  0.00  0.00    +0.169 HD
ATOM     12  C   UNL     1       1.150   1.642  -0.000  0.00  0.00    +0.257 A 
ATOM     13  O   UNL     1       2.198   1.018  -0.013  0.00  0.00    -0.267 OA
ATOM     14  O   UNL     1       0.036   5.111   0.031  0.00  0.00    -0.440 OA
ATOM     15  C   UNL     1       1.141   5.778   0.407  0.00  0.00    +0.199 C 
ATOM     16  C   UNL     1       2.359   5.185   0.413  0.00  0.00    +0.098 C 
ENDROOT
BRANCH   1  20
ATOM     17  C   UNL     1       4.172   3.599  -3.943  0.00  0.00    +0.121 A 
ATOM     18  C   UNL     1       4.860   3.031  -2.880  0.00  0.00    +0.046 A 
ATOM     19  C   UNL     1       4.325   3.082  -1.607  0.00  0.00    +0.008 A 
ATOM     20  C   UNL     1       3.105   3.697  -1.393  0.00  0.00    -0.034 A 
ATOM     21  C   UNL     1       2.416   4.258  -2.451  0.00  0.00    +0.008 A 
ATOM     22  C   UNL     1       2.949   4.216  -3.725  0.00  0.00    +0.046 A 
BRANCH  17  23
ATOM     23  O   UNL     1       4.696   3.550  -5.196  0.00  0.00    -0.492 OA
BRANCH  23  24
ATOM     24  C   UNL     1       3.933   4.155  -6.242  0.00  0.00    +0.229 C 
BRANCH  24  26
ATOM     25  C   UNL     1       3.861   4.650  -8.690  0.00  0.00    +0.007 C 
ATOM     26  C   UNL     1       4.678   4.002  -7.570  0.00  0.00    +0.038 C 
ENDBRANCH  24  26
ENDBRANCH  23  24
ENDBRANCH  17  23
ENDBRANCH   1  20
BRANCH  15  27
ATOM     27  N   UNL     1       1.033   7.090   0.794  0.00  0.00    -0.328 N 
ATOM     28  H   UNL     1       1.823   7.582   1.068  0.00  0.00    +0.145 HD
ATOM     29  H   UNL     1       0.166   7.526   0.794  0.00  0.00    +0.145 HD
ENDBRANCH  15  27
BRANCH  16  30
ATOM     30  C   UNL     1       3.507   5.936   0.822  0.00  0.00    +0.101 C 
ATOM     31  N   UNL     1       4.418   6.532   1.147  0.00  0.00    -0.191 NA
ENDBRANCH  16  30
TORSDOF 6
