REMARK  Name = ZINC21866678
REMARK  10 active torsions:
REMARK  status: ('A' for Active; 'I' for Inactive)
REMARK    1  A    between atoms: C_1  and  C_2
REMARK    2  A    between atoms: C_2  and  C_3
REMARK    3  A    between atoms: C_2  and  C_4
REMARK    4  A    between atoms: C_4  and  C_5
REMARK    5  A    between atoms: C_5  and  N_6
REMARK    6  A    between atoms: C_10  and  N_32
REMARK    7  A    between atoms: C_19  and  C_20
REMARK    8  A    between atoms: C_19  and  C_21
REMARK    9  A    between atoms: N_23  and  C_24
REMARK   10  A    between atoms: C_33  and  C_35
REMARK                            x       y       z     vdW  Elec       q    Type
REMARK                         _______ _______ _______ _____ _____    ______ ____
ROOT
ATOM      1  N   UNL     1      -2.259   1.067   5.851  0.00  0.00    -0.281 N 
ATOM      2  C   UNL     1      -1.900  -0.213   5.601  0.00  0.00    +0.266 C 
ATOM      3  O   UNL     1      -2.725  -1.103   5.507  0.00  0.00    -0.268 OA
ATOM      4  C   UNL     1      -0.466  -0.474   5.443  0.00  0.00    +0.127 A 
ATOM      5  C   UNL     1       0.175  -1.599   4.998  0.00  0.00    +0.072 A 
ATOM      6  C   UNL     1       1.599  -1.295   5.026  0.00  0.00    +0.025 A 
ATOM      7  C   UNL     1       2.719  -2.059   4.678  0.00  0.00    +0.050 A 
ATOM      8  C   UNL     1       3.955  -1.453   4.822  0.00  0.00    +0.124 A 
ATOM      9  C   UNL     1       4.082  -0.151   5.288  0.00  0.00    +0.040 A 
ATOM     10  C   UNL     1       2.989   0.619   5.637  0.00  0.00    +0.029 A 
ATOM     11  C   UNL     1       1.727   0.035   5.504  0.00  0.00    +0.052 A 
ATOM     12  N   UNL     1       0.482   0.511   5.759  0.00  0.00    -0.332 N 
ATOM     13  C   UNL     1       0.069   1.819   6.285  0.00  0.00    +0.157 C 
ATOM     14  C   UNL     1      -1.312   2.170   5.734  0.00  0.00    +0.128 C 
ATOM     15  C   UNL     1      -1.859   3.376   6.501  0.00  0.00    +0.043 C 
ATOM     16  F   UNL     1       5.069  -2.147   4.500  0.00  0.00    -0.205 F 
ENDROOT
BRANCH   5  17
ATOM     17  N   UNL     1      -0.416  -2.793   4.599  0.00  0.00    -0.283 N 
ATOM     18  C   UNL     1      -0.524  -3.816   5.470  0.00  0.00    +0.214 C 
ATOM     19  O   UNL     1      -0.193  -3.665   6.627  0.00  0.00    -0.276 OA
ATOM     20  C   UNL     1      -1.056  -5.148   5.006  0.00  0.00    +0.109 C 
ATOM     21  H   UNL     1      -0.796  -2.903   3.572  0.00  0.00    +0.155 HD
ENDBRANCH   5  17
BRANCH  14  22
ATOM     22  C   UNL     1      -1.173   2.541   4.280  0.00  0.00    +0.238 C 
ATOM     23  O   UNL     1      -1.006   3.699   3.963  0.00  0.00    -0.273 OA
ATOM     24  N   UNL     1      -1.236   1.585   3.332  0.00  0.00    -0.311 N 
ATOM     25  H   UNL     1      -1.387   0.534   3.619  0.00  0.00    +0.149 HD
BRANCH  24  26
ATOM     26  C   UNL     1      -1.101   1.945   1.918  0.00  0.00    +0.073 C 
ATOM     27  C   UNL     1      -2.474   2.407   1.388  0.00  0.00    +0.022 C 
ATOM     28  C   UNL     1      -2.253   3.238   0.152  0.00  0.00    +0.002 C 
ATOM     29  C   UNL     1      -2.356   2.406  -1.141  0.00  0.00    +0.000 C 
ATOM     30  C   UNL     1      -1.666   1.033  -1.025  0.00  0.00    +0.000 C 
ATOM     31  C   UNL     1      -0.347   1.111  -0.305  0.00  0.00    +0.002 C 
ATOM     32  C   UNL     1      -0.583   0.799   1.187  0.00  0.00    +0.022 C 
ENDBRANCH  24  26
ENDBRANCH  14  22
BRANCH   1  33
ATOM     33  C   UNL     1      -3.637   1.353   6.258  0.00  0.00    +0.109 C 
BRANCH  33  34
ATOM     34  C   UNL     1      -4.489   1.625   5.016  0.00  0.00    +0.022 C 
BRANCH  34  36
ATOM     35  C   UNL     1      -5.963   3.223   6.249  0.00  0.00    +0.007 C 
ATOM     36  C   UNL     1      -5.928   1.924   5.441  0.00  0.00    -0.016 C 
ATOM     37  C   UNL     1      -6.806   2.073   4.197  0.00  0.00    +0.007 C 
ENDBRANCH  34  36
ENDBRANCH  33  34
ENDBRANCH   1  33
TORSDOF 6
