REMARK  Name = ZINC13553001
REMARK  5 active torsions:
REMARK  status: ('A' for Active; 'I' for Inactive)
REMARK    1  A    between atoms: C_1  and  N_57
REMARK    2  A    between atoms: C_12  and  C_15
REMARK    3  A    between atoms: C_18  and  O_21
REMARK    4  A    between atoms: O_21  and  C_22
REMARK    5  A    between atoms: C_22  and  C_24
REMARK                            x       y       z     vdW  Elec       q    Type
REMARK                         _______ _______ _______ _____ _____    ______ ____
ROOT
ATOM      1  C   UNL     1      -7.432   0.872   0.188  0.00  0.00    -0.009 A 
ATOM      2  C   UNL     1      -7.335  -0.507   0.213  0.00  0.00    +0.010 A 
ATOM      3  C   UNL     1      -6.095  -1.114   0.171  0.00  0.00    +0.047 A 
ATOM      4  C   UNL     1      -4.946  -0.339   0.103  0.00  0.00    +0.132 A 
ATOM      5  C   UNL     1      -5.046   1.044   0.085  0.00  0.00    +0.047 A 
ATOM      6  C   UNL     1      -6.288   1.647   0.121  0.00  0.00    +0.010 A 
ENDROOT
BRANCH   1  18
ATOM      7  C   UNL     1      -8.905   3.145   8.561  0.00  0.00    -0.096 C 
ATOM      8  C   UNL     1      -9.064   1.443   6.845  0.00  0.00    -0.074 C 
ATOM      9  C   UNL     1      -9.716   1.130   5.496  0.00  0.00    +0.018 C 
ATOM     10  C   UNL     1      -9.150   2.093   4.458  0.00  0.00    -0.027 A 
ATOM     11  C   UNL     1      -8.524   3.225   4.858  0.00  0.00    -0.021 A 
ATOM     12  S   UNL     1      -8.038   4.031   3.357  0.00  0.00    -0.080 S 
ATOM     13  C   UNL     1      -8.653   2.896   2.232  0.00  0.00    +0.080 A 
ATOM     14  C   UNL     1      -9.228   1.889   3.023  0.00  0.00    +0.068 A 
ATOM     15  C   UNL     1      -9.855   0.744   2.323  0.00  0.00    +0.248 C 
ATOM     16  O   UNL     1     -10.478  -0.106   2.932  0.00  0.00    -0.270 OA
ATOM     17  N   UNL     1      -9.706   0.682   0.983  0.00  0.00    -0.289 N 
ATOM     18  C   UNL     1      -8.786   1.532   0.234  0.00  0.00    +0.190 C 
ATOM     19  N   UNL     1      -8.655   2.860   0.861  0.00  0.00    -0.316 N 
ATOM     20  C   UNL     1      -8.309   3.672   6.269  0.00  0.00    -0.036 C 
ATOM     21  H   UNL     1     -10.239   0.038   0.492  0.00  0.00    +0.151 HD
ATOM     22  H   UNL     1      -8.574   3.667   0.330  0.00  0.00    +0.149 HD
ATOM     23  N   UNL     1      -9.215   2.883   7.139  0.00  0.00    +0.381 N 
ATOM     24  H   UNL     1     -10.185   3.163   6.952  0.00  0.00    -0.082 HD
ENDBRANCH   1  18
BRANCH   4  25
ATOM     25  O   UNL     1      -3.725  -0.934   0.062  0.00  0.00    -0.422 OA
BRANCH  25  26
ATOM     26  C   UNL     1      -3.359  -1.501  -1.106  0.00  0.00    +0.345 C 
ATOM     27  O   UNL     1      -4.069  -1.384  -2.086  0.00  0.00    -0.245 OA
BRANCH  26  28
ATOM     28  C   UNL     1      -2.101  -2.261  -1.194  0.00  0.00    +0.067 A 
ATOM     29  C   UNL     1      -1.222  -2.305  -0.118  0.00  0.00    +0.015 A 
ATOM     30  C   UNL     1      -0.037  -3.023  -0.204  0.00  0.00    +0.001 A 
ATOM     31  C   UNL     1       0.309  -3.706  -1.329  0.00  0.00    +0.008 A 
ATOM     32  C   UNL     1      -0.532  -3.706  -2.455  0.00  0.00    -0.017 A 
ATOM     33  C   UNL     1      -1.751  -2.987  -2.413  0.00  0.00    -0.004 A 
ATOM     34  C   UNL     1      -2.592  -2.985  -3.532  0.00  0.00    +0.009 A 
ATOM     35  C   UNL     1      -2.228  -3.676  -4.649  0.00  0.00    +0.001 A 
ATOM     36  C   UNL     1      -1.029  -4.384  -4.694  0.00  0.00    +0.001 A 
ATOM     37  C   UNL     1      -0.188  -4.407  -3.624  0.00  0.00    +0.008 A 
ENDBRANCH  26  28
ENDBRANCH  25  26
ENDBRANCH   4  25
TORSDOF 4
