REMARK  Name = ZINC03054731
REMARK  13 active torsions:
REMARK  status: ('A' for Active; 'I' for Inactive)
REMARK    1  A    between atoms: C_1  and  C_2
REMARK    2  A    between atoms: C_2  and  C_3
REMARK    3  A    between atoms: C_3  and  N_4
REMARK    4  A    between atoms: N_4  and  C_5
REMARK    5  A    between atoms: N_4  and  C_8
REMARK    6  A    between atoms: C_5  and  C_6
REMARK    7  A    between atoms: C_6  and  C_7
REMARK    8  A    between atoms: C_8  and  C_9
REMARK    9  A    between atoms: C_9  and  C_10
REMARK   10  A    between atoms: C_10  and  N_11
REMARK   11  A    between atoms: C_12  and  C_14
REMARK   12  A    between atoms: C_14  and  N_15
REMARK   13  A    between atoms: C_24  and  C_25
REMARK                            x       y       z     vdW  Elec       q    Type
REMARK                         _______ _______ _______ _____ _____    ______ ____
ROOT
ATOM      1  N   UNL     1      -2.258   3.540   8.566  0.00  0.00    -0.257 N 
ATOM      2  C   UNL     1      -2.823   2.303   8.850  0.00  0.00    +0.051 A 
ATOM      3  C   UNL     1      -3.580   1.676   7.859  0.00  0.00    +0.024 A 
ATOM      4  C   UNL     1      -4.155   0.445   8.094  0.00  0.00    +0.002 A 
ATOM      5  C   UNL     1      -3.985  -0.190   9.312  0.00  0.00    +0.001 A 
ATOM      6  C   UNL     1      -3.234   0.416  10.302  0.00  0.00    +0.017 A 
ATOM      7  C   UNL     1      -2.655   1.653  10.072  0.00  0.00    +0.034 A 
ATOM      8  S   UNL     1      -1.696   2.428  11.340  0.00  0.00    -0.082 S 
ATOM      9  C   UNL     1      -0.622   3.464  10.383  0.00  0.00    +0.076 C 
ATOM     10  C   UNL     1       0.677   3.656  10.719  0.00  0.00    +0.028 C 
ATOM     11  C   UNL     1      -1.226   4.109   9.195  0.00  0.00    +0.258 C 
ATOM     12  O   UNL     1      -0.779   5.165   8.788  0.00  0.00    -0.269 OA
ENDROOT
BRANCH  10  13
ATOM     13  C   UNL     1       1.580   4.358   9.795  0.00  0.00    -0.023 A 
ATOM     14  C   UNL     1       2.563   5.221  10.293  0.00  0.00    +0.008 A 
ATOM     15  C   UNL     1       3.406   5.876   9.421  0.00  0.00    +0.002 A 
ATOM     16  C   UNL     1       3.282   5.684   8.056  0.00  0.00    +0.015 A 
ATOM     17  C   UNL     1       2.312   4.832   7.555  0.00  0.00    +0.018 A 
ATOM     18  C   UNL     1       1.464   4.164   8.415  0.00  0.00    +0.023 A 
ATOM     19 BR   UNL     1       2.153   4.577   5.688  0.00  0.00    -0.050 Br
ENDBRANCH  10  13
BRANCH   1  20
ATOM     20  C   UNL     1      -2.860   4.301   7.468  0.00  0.00    +0.209 C 
BRANCH  20  22
ATOM     21  N   UNL     1      -2.559   4.531   5.024  0.00  0.00    -0.314 N 
ATOM     22  C   UNL     1      -2.170   3.949   6.176  0.00  0.00    +0.231 C 
ATOM     23  O   UNL     1      -1.265   3.142   6.172  0.00  0.00    -0.274 OA
ATOM     24  H   UNL     1      -3.380   5.263   5.027  0.00  0.00    +0.149 HD
BRANCH  21  25
ATOM     25  C   UNL     1      -1.889   4.189   3.767  0.00  0.00    +0.102 C 
BRANCH  25  26
ATOM     26  C   UNL     1      -2.517   4.984   2.621  0.00  0.00    +0.000 C 
BRANCH  26  27
ATOM     27  C   UNL     1      -1.817   4.626   1.308  0.00  0.00    -0.077 C 
BRANCH  27  28
ATOM     28  N   UNL     1      -2.420   5.389   0.208  0.00  0.00    +0.380 N 
ATOM     29  H   UNL     1      -2.422   6.451   0.494  0.00  0.00    -0.082 HD
BRANCH  28  30
ATOM     30  C   UNL     1      -1.628   5.255  -1.022  0.00  0.00    -0.079 C 
BRANCH  30  32
ATOM     31  C   UNL     1       0.386   6.086  -2.245  0.00  0.00    +0.002 C 
ATOM     32  C   UNL     1      -0.373   6.125  -0.918  0.00  0.00    -0.022 C 
ENDBRANCH  30  32
ENDBRANCH  28  30
BRANCH  28  33
ATOM     33  C   UNL     1      -3.813   4.979  -0.016  0.00  0.00    -0.079 C 
BRANCH  33  34
ATOM     34  C   UNL     1      -4.524   6.033  -0.867  0.00  0.00    -0.022 C 
ATOM     35  C   UNL     1      -5.976   5.608  -1.095  0.00  0.00    +0.002 C 
ENDBRANCH  33  34
ENDBRANCH  28  33
ENDBRANCH  27  28
ENDBRANCH  26  27
ENDBRANCH  25  26
ENDBRANCH  21  25
ENDBRANCH  20  22
ENDBRANCH   1  20
TORSDOF 11
