REMARK  Name = ZINC19867028
REMARK  8 active torsions:
REMARK  status: ('A' for Active; 'I' for Inactive)
REMARK    1  A    between atoms: C_1  and  C_2
REMARK    2  A    between atoms: C_5  and  C_8
REMARK    3  A    between atoms: C_8  and  C_10
REMARK    4  A    between atoms: C_10  and  S_11
REMARK    5  A    between atoms: S_11  and  C_12
REMARK    6  A    between atoms: C_14  and  N_29
REMARK    7  A    between atoms: C_15  and  C_27
REMARK    8  A    between atoms: C_17  and  C_19
REMARK                            x       y       z     vdW  Elec       q    Type
REMARK                         _______ _______ _______ _____ _____    ______ ____
ROOT
ATOM      1  C   UNL     1       0.130  -7.480   2.608  0.00  0.00    +0.089 C 
ATOM      2  N   UNL     1       0.171  -6.837   3.742  0.00  0.00    -0.229 NA
ATOM      3  C   UNL     1       0.268  -7.476   4.920  0.00  0.00    +0.131 C 
ATOM      4  C   UNL     1       0.657  -8.798   4.977  0.00  0.00    +0.076 C 
ATOM      5  C   UNL     1       1.009  -9.525   3.702  0.00  0.00    +0.026 C 
ATOM      6  C   UNL     1       0.133  -8.986   2.564  0.00  0.00    +0.141 C 
ATOM      7  C   UNL     1       0.752 -11.022   3.879  0.00  0.00    +0.013 C 
ATOM      8  C   UNL     1       1.108 -11.757   2.585  0.00  0.00    +0.001 C 
ATOM      9  C   UNL     1       2.584 -11.525   2.257  0.00  0.00    +0.000 C 
ATOM     10  C   UNL     1       2.839 -10.027   2.079  0.00  0.00    +0.001 C 
ATOM     11  C   UNL     1       2.484  -9.292   3.373  0.00  0.00    +0.013 C 
ENDROOT
BRANCH   6  12
ATOM     12  C   UNL     1      -1.276  -9.496   2.724  0.00  0.00    +0.221 C 
ATOM     13  O   UNL     1      -1.917  -9.208   3.713  0.00  0.00    -0.275 OA
ATOM     14  N   UNL     1      -1.825 -10.271   1.768  0.00  0.00    -0.329 N 
ATOM     15  H   UNL     1      -1.312 -10.501   0.977  0.00  0.00    +0.145 HD
ATOM     16  H   UNL     1      -2.732 -10.600   1.870  0.00  0.00    +0.145 HD
ENDBRANCH   6  12
BRANCH   3  17
ATOM     17  N   UNL     1      -0.025  -6.802   6.088  0.00  0.00    -0.342 N 
ATOM     18  H   UNL     1      -0.298  -5.872   6.055  0.00  0.00    +0.144 HD
ATOM     19  H   UNL     1       0.043  -7.257   6.942  0.00  0.00    +0.144 HD
ENDBRANCH   3  17
BRANCH   4  20
ATOM     20  C   UNL     1       0.728  -9.476   6.236  0.00  0.00    +0.099 C 
ATOM     21  N   UNL     1       0.783 -10.014   7.235  0.00  0.00    -0.191 NA
ENDBRANCH   4  20
BRANCH   1  22
ATOM     22  S   UNL     1       0.065  -6.624   1.187  0.00  0.00    -0.101 S 
BRANCH  22  23
ATOM     23  C   UNL     1       0.082  -4.890   1.719  0.00  0.00    +0.155 C 
BRANCH  23  24
ATOM     24  C   UNL     1       0.027  -3.993   0.509  0.00  0.00    +0.173 C 
ATOM     25  O   UNL     1      -0.020  -4.476  -0.602  0.00  0.00    -0.291 OA
BRANCH  24  30
ATOM     26  C   UNL     1       0.034   1.719   1.163  0.00  0.00    +0.044 C 
ATOM     27  C   UNL     1       0.033   0.221   0.992  0.00  0.00    -0.050 A 
ATOM     28  C   UNL     1      -0.020  -0.326  -0.278  0.00  0.00    +0.004 A 
ATOM     29  C   UNL     1      -0.022  -1.695  -0.443  0.00  0.00    +0.011 A 
ATOM     30  C   UNL     1       0.029  -2.531   0.677  0.00  0.00    +0.018 A 
ATOM     31  C   UNL     1       0.083  -1.970   1.957  0.00  0.00    +0.011 A 
ATOM     32  C   UNL     1       0.089  -0.599   2.105  0.00  0.00    +0.004 A 
ENDBRANCH  24  30
ENDBRANCH  23  24
ENDBRANCH  22  23
ENDBRANCH   1  22
TORSDOF 7
