REMARK  Name = ZINC20701448
REMARK  6 active torsions:
REMARK  status: ('A' for Active; 'I' for Inactive)
REMARK    1  A    between atoms: C_1  and  N_2
REMARK    2  A    between atoms: N_2  and  C_3
REMARK    3  A    between atoms: N_2  and  S_9
REMARK    4  A    between atoms: S_9  and  C_12
REMARK    5  A    between atoms: C_25  and  C_28
REMARK    6  A    between atoms: C_33  and  O_34
REMARK                            x       y       z     vdW  Elec       q    Type
REMARK                         _______ _______ _______ _____ _____    ______ ____
ROOT
ATOM      1  C   UNL     1      -3.546  -2.439   1.677  0.00  0.00    +0.109 A 
ATOM      2  C   UNL     1      -3.442  -2.381   0.299  0.00  0.00    +0.030 A 
ATOM      3  C   UNL     1      -2.892  -1.264  -0.298  0.00  0.00    +0.025 A 
ATOM      4  C   UNL     1      -2.446  -0.206   0.484  0.00  0.00    +0.031 A 
ATOM      5  C   UNL     1      -2.548  -0.260   1.865  0.00  0.00    -0.018 A 
ATOM      6  C   UNL     1      -3.103  -1.389   2.454  0.00  0.00    +0.034 A 
ATOM      7  C   UNL     1      -2.083   0.855   2.747  0.00  0.00    +0.049 C 
ATOM      8  C   UNL     1      -0.783   0.510   3.434  0.00  0.00    -0.023 C 
ATOM      9  C   UNL     1      -0.026   1.575   3.534  0.00  0.00    -0.030 C 
ATOM     10  C   UNL     1      -0.723   2.780   2.932  0.00  0.00    +0.033 C 
ATOM     11  C   UNL     1      -1.769   2.147   1.968  0.00  0.00    +0.029 C 
ATOM     12  C   UNL     1      -1.041   1.807   0.664  0.00  0.00    +0.109 C 
ATOM     13  N   UNL     1      -1.889   0.918  -0.137  0.00  0.00    -0.336 N 
ATOM     14  H   UNL     1      -2.073   1.142  -1.198  0.00  0.00    +0.147 HD
ENDROOT
BRANCH  12  15
ATOM     15  C   UNL     1       0.260   1.115   0.979  0.00  0.00    +0.017 A 
ATOM     16  C   UNL     1       0.282  -0.250   1.198  0.00  0.00    +0.029 A 
ATOM     17  C   UNL     1       1.477  -0.887   1.482  0.00  0.00    +0.043 A 
ATOM     18  C   UNL     1       2.653  -0.160   1.546  0.00  0.00    +0.043 A 
ATOM     19  C   UNL     1       2.635   1.205   1.328  0.00  0.00    +0.084 A 
ATOM     20  C   UNL     1       1.437   1.845   1.043  0.00  0.00    +0.140 A 
ATOM     21 CL   UNL     1       4.110   2.116   1.409  0.00  0.00    -0.080 Cl
ATOM     22 CL   UNL     1       1.501  -2.601   1.757  0.00  0.00    -0.083 Cl
BRANCH  20  23
ATOM     23  O   UNL     1       1.417   3.188   0.827  0.00  0.00    -0.505 OA
ATOM     24  H   UNL     1       2.351   3.767   0.878  0.00  0.00    +0.292 HD
ENDBRANCH  20  23
ENDBRANCH  12  15
BRANCH   1  25
ATOM     25  S   UNL     1      -4.248  -3.862   2.444  0.00  0.00    +0.074 S 
ATOM     26  O   UNL     1      -4.222  -4.901   1.474  0.00  0.00    -0.150 OA
ATOM     27  O   UNL     1      -3.622  -3.990   3.713  0.00  0.00    -0.150 OA
BRANCH  25  29
ATOM     28  C   UNL     1      -6.231  -2.818   3.957  0.00  0.00    +0.157 C 
ATOM     29  N   UNL     1      -5.843  -3.526   2.734  0.00  0.00    -0.206 N 
BRANCH  29  30
ATOM     30  C   UNL     1      -6.818  -3.916   1.814  0.00  0.00    +0.051 A 
ATOM     31  C   UNL     1      -6.490  -4.059   0.471  0.00  0.00    +0.025 A 
ATOM     32  C   UNL     1      -7.456  -4.450  -0.435  0.00  0.00    +0.002 A 
ATOM     33  C   UNL     1      -8.750  -4.689  -0.010  0.00  0.00    +0.000 A 
ATOM     34  C   UNL     1      -9.081  -4.542   1.325  0.00  0.00    +0.002 A 
ATOM     35  C   UNL     1      -8.119  -4.156   2.237  0.00  0.00    +0.025 A 
ENDBRANCH  29  30
ENDBRANCH  25  29
ENDBRANCH   1  25
TORSDOF 5
