REMARK  Name = ZINC03051425
REMARK  8 active torsions:
REMARK  status: ('A' for Active; 'I' for Inactive)
REMARK    1  A    between atoms: C_10  and  C_11
REMARK    2  A    between atoms: N_13  and  C_14
REMARK    3  A    between atoms: C_14  and  C_16
REMARK    4  A    between atoms: C_14  and  N_20
REMARK    5  A    between atoms: N_20  and  C_21
REMARK    6  A    between atoms: C_21  and  N_23
REMARK    7  A    between atoms: N_23  and  C_24
REMARK    8  A    between atoms: C_28  and  N_30
REMARK                            x       y       z     vdW  Elec       q    Type
REMARK                         _______ _______ _______ _____ _____    ______ ____
ROOT
ATOM      1  C   UNL     1      -3.564  -2.462  -0.302  0.00  0.00    +0.211 C 
ENDROOT
BRANCH   1   4
ATOM      2  C   UNL     1      -2.876  -3.258  -2.500  0.00  0.00    +0.246 C 
ATOM      3  O   UNL     1      -1.733  -3.317  -2.089  0.00  0.00    -0.270 OA
ATOM      4  N   UNL     1      -3.865  -2.843  -1.684  0.00  0.00    -0.289 N 
ATOM      5  H   UNL     1      -4.899  -2.790  -2.056  0.00  0.00    +0.151 HD
BRANCH   2  15
ATOM      6  C   UNL     1      -0.241  -5.312  -6.367  0.00  0.00    +0.001 A 
ATOM      7  C   UNL     1       0.069  -4.958  -5.056  0.00  0.00    +0.001 A 
ATOM      8  C   UNL     1      -0.874  -4.414  -4.236  0.00  0.00    +0.009 A 
ATOM      9  C   UNL     1      -2.174  -4.205  -4.715  0.00  0.00    -0.006 A 
ATOM     10  C   UNL     1      -2.491  -4.564  -6.047  0.00  0.00    -0.017 A 
ATOM     11  C   UNL     1      -1.494  -5.124  -6.865  0.00  0.00    +0.008 A 
ATOM     12  C   UNL     1      -3.795  -4.356  -6.529  0.00  0.00    +0.008 A 
ATOM     13  C   UNL     1      -4.746  -3.813  -5.718  0.00  0.00    +0.001 A 
ATOM     14  C   UNL     1      -4.455  -3.459  -4.406  0.00  0.00    +0.013 A 
ATOM     15  C   UNL     1      -3.180  -3.641  -3.891  0.00  0.00    +0.044 A 
ENDBRANCH   2  15
ENDBRANCH   1   4
BRANCH   1  16
ATOM     16  C   UNL     1      -4.601  -3.083   0.636  0.00  0.00    +0.225 C 
ATOM     17 CL   UNL     1      -6.244  -2.486   0.194  0.00  0.00    -0.080 Cl
ATOM     18 CL   UNL     1      -4.553  -4.878   0.483  0.00  0.00    -0.080 Cl
ATOM     19 CL   UNL     1      -4.230  -2.614   2.337  0.00  0.00    -0.080 Cl
ENDBRANCH   1  16
BRANCH   1  20
ATOM     20  N   UNL     1      -3.603  -1.003  -0.177  0.00  0.00    -0.305 N 
ATOM     21  H   UNL     1      -4.570  -0.479  -0.163  0.00  0.00    +0.150 HD
BRANCH  20  22
ATOM     22  C   UNL     1      -2.456  -0.304  -0.081  0.00  0.00    +0.136 C 
ATOM     23  S   UNL     1      -0.951  -1.120  -0.103  0.00  0.00    -0.019 S 
BRANCH  22  24
ATOM     24  N   UNL     1      -2.492   1.039   0.034  0.00  0.00    -0.297 N 
ATOM     25  H   UNL     1      -3.457   1.556   0.139  0.00  0.00    +0.154 HD
BRANCH  24  26
ATOM     26  C   UNL     1      -1.302   1.774   0.019  0.00  0.00    +0.035 A 
ATOM     27  C   UNL     1      -1.128   2.834   0.900  0.00  0.00    +0.023 A 
ATOM     28  C   UNL     1       0.049   3.555   0.886  0.00  0.00    +0.004 A 
ATOM     29  C   UNL     1       1.053   3.226  -0.006  0.00  0.00    +0.033 A 
ATOM     30  C   UNL     1       0.881   2.175  -0.888  0.00  0.00    +0.128 A 
ATOM     31  C   UNL     1      -0.295   1.450  -0.880  0.00  0.00    +0.056 A 
BRANCH  30  32
ATOM     32  N   UNL     1       1.958   1.826  -1.841  0.00  0.00    +0.056 N 
ATOM     33  O   UNL     1       2.995   2.464  -1.849  0.00  0.00    -0.126 OA
ATOM     34  O   UNL     1       1.807   0.900  -2.618  0.00  0.00    -0.126 OA
ENDBRANCH  30  32
ENDBRANCH  24  26
ENDBRANCH  22  24
ENDBRANCH  20  22
ENDBRANCH   1  20
TORSDOF 8
