REMARK  Name = ZINC40315384
REMARK  12 active torsions:
REMARK  status: ('A' for Active; 'I' for Inactive)
REMARK    1  A    between atoms: C_1  and  C_2
REMARK    2  A    between atoms: C_6  and  O_9
REMARK    3  A    between atoms: C_7  and  C_8
REMARK    4  A    between atoms: O_9  and  C_10
REMARK    5  A    between atoms: C_10  and  C_11
REMARK    6  A    between atoms: C_11  and  C_13
REMARK    7  A    between atoms: C_11  and  O_36
REMARK    8  A    between atoms: C_13  and  N_14
REMARK    9  A    between atoms: N_14  and  C_15
REMARK   10  A    between atoms: N_14  and  C_28
REMARK   11  A    between atoms: C_15  and  C_16
REMARK   12  A    between atoms: C_19  and  C_21
REMARK                            x       y       z     vdW  Elec       q    Type
REMARK                         _______ _______ _______ _____ _____    ______ ____
ROOT
ATOM      1  N   UNL     1      -0.347  -6.987   4.721  0.00  0.00    +0.389 N 
ATOM      2  H   UNL     1      -1.268  -7.133   5.105  0.00  0.00    -0.081 HD
ENDROOT
BRANCH   1   3
ATOM      3  C   UNL     1       0.339  -5.932   5.479  0.00  0.00    -0.045 C 
ATOM      4  C   UNL     1       0.281  -6.251   6.982  0.00  0.00    +0.009 C 
ATOM      5  C   UNL     1       0.708  -5.010   7.802  0.00  0.00    +0.164 C 
ATOM      6  S   UNL     1       0.236  -3.616   6.699  0.00  0.00    -0.033 S 
ATOM      7  O   UNL     1       1.409  -2.905   6.325  0.00  0.00    -0.174 OA
ATOM      8  O   UNL     1      -0.852  -2.912   7.282  0.00  0.00    -0.174 OA
ATOM      9  C   UNL     1      -0.375  -4.570   5.246  0.00  0.00    +0.151 C 
ENDBRANCH   1   3
BRANCH   1  10
ATOM     10  C   UNL     1      -0.462  -6.583   3.313  0.00  0.00    -0.043 C 
BRANCH  10  11
ATOM     11  C   UNL     1      -1.938  -6.393   2.956  0.00  0.00    +0.135 C 
BRANCH  11  12
ATOM     12  O   UNL     1      -2.612  -7.650   3.032  0.00  0.00    -0.390 OA
ATOM     13  H   UNL     1      -2.258  -8.322   2.433  0.00  0.00    +0.210 HD
ENDBRANCH  11  12
BRANCH  11  14
ATOM     14  C   UNL     1      -2.051  -5.837   1.535  0.00  0.00    +0.258 C 
BRANCH  14  15
ATOM     15  O   UNL     1      -3.421  -5.550   1.244  0.00  0.00    -0.489 OA
BRANCH  15  21
ATOM     16  C   UNL     1      -6.704  -3.905  -1.970  0.00  0.00    +0.044 C 
ATOM     17  C   UNL     1      -5.283  -4.232  -1.590  0.00  0.00    -0.044 A 
ATOM     18  C   UNL     1      -4.259  -4.020  -2.494  0.00  0.00    +0.004 A 
ATOM     19  C   UNL     1      -2.955  -4.319  -2.148  0.00  0.00    +0.004 A 
ATOM     20  C   UNL     1      -2.671  -4.832  -0.897  0.00  0.00    +0.046 A 
ATOM     21  C   UNL     1      -3.697  -5.046   0.013  0.00  0.00    +0.124 A 
ATOM     22  C   UNL     1      -5.005  -4.739  -0.335  0.00  0.00    -0.006 A 
ATOM     23  C   UNL     1      -6.120  -4.964   0.652  0.00  0.00    +0.048 C 
ENDBRANCH  15  21
ENDBRANCH  14  15
ENDBRANCH  11  14
ENDBRANCH  10  11
ENDBRANCH   1  10
BRANCH   1  24
ATOM     24  C   UNL     1       0.424  -8.234   4.811  0.00  0.00    -0.003 C 
BRANCH  24  25
ATOM     25  C   UNL     1       0.416  -8.728   6.234  0.00  0.00    +0.089 A 
ATOM     26  C   UNL     1      -0.669  -9.145   6.915  0.00  0.00    +0.043 A 
ATOM     27  C   UNL     1      -0.231  -9.518   8.202  0.00  0.00    +0.050 A 
ATOM     28  C   UNL     1       1.112  -9.306   8.235  0.00  0.00    +0.135 A 
ATOM     29  O   UNL     1       1.491  -8.832   7.033  0.00  0.00    -0.462 OA
BRANCH  28  30
ATOM     30  C   UNL     1       2.001  -9.557   9.389  0.00  0.00    +0.019 A 
ATOM     31  C   UNL     1       1.478 -10.063  10.580  0.00  0.00    +0.011 A 
ATOM     32  C   UNL     1       2.313 -10.295  11.653  0.00  0.00    +0.002 A 
ATOM     33  C   UNL     1       3.666 -10.027  11.551  0.00  0.00    +0.020 A 
ATOM     34  C   UNL     1       4.192  -9.525  10.373  0.00  0.00    +0.042 A 
ATOM     35  C   UNL     1       3.368  -9.295   9.289  0.00  0.00    +0.031 A 
ATOM     36 CL   UNL     1       5.892  -9.193  10.255  0.00  0.00    -0.084 Cl
ENDBRANCH  28  30
ENDBRANCH  24  25
ENDBRANCH   1  24
TORSDOF 10
