REMARK  Name = ZINC00127708
REMARK  5 active torsions:
REMARK  status: ('A' for Active; 'I' for Inactive)
REMARK    1  A    between atoms: C_6  and  C_7
REMARK    2  A    between atoms: C_10  and  C_12
REMARK    3  A    between atoms: N_13  and  N_14
REMARK    4  A    between atoms: N_14  and  C_15
REMARK    5  A    between atoms: C_15  and  N_17
REMARK                            x       y       z     vdW  Elec       q    Type
REMARK                         _______ _______ _______ _____ _____    ______ ____
ROOT
ATOM      1  C   UNL     1      -1.264  -0.763   0.011  0.00  0.00    +0.136 A 
ATOM      2  C   UNL     1      -1.377  -2.121   0.010  0.00  0.00    +0.050 A 
ATOM      3  C   UNL     1      -2.746  -2.421   0.020  0.00  0.00    +0.051 A 
ATOM      4  C   UNL     1      -3.416  -1.217   0.027  0.00  0.00    +0.148 A 
ATOM      5  O   UNL     1      -2.500  -0.228   0.026  0.00  0.00    -0.454 OA
ENDROOT
BRANCH   1  11
ATOM      6  C   UNL     1      -0.017   1.393   0.010  0.00  0.00    +0.012 A 
ATOM      7  C   UNL     1       1.170   2.095   0.002  0.00  0.00    +0.016 A 
ATOM      8  C   UNL     1       2.378   1.419  -0.013  0.00  0.00    +0.018 A 
ATOM      9  C   UNL     1       2.404   0.035  -0.021  0.00  0.00    +0.016 A 
ATOM     10  C   UNL     1       1.225  -0.680  -0.013  0.00  0.00    +0.012 A 
ATOM     11  C   UNL     1       0.002  -0.004   0.002  0.00  0.00    +0.017 A 
ATOM     12 BR   UNL     1       4.000   2.391  -0.025  0.00  0.00    -0.050 Br
ENDBRANCH   1  11
BRANCH   4  13
ATOM     13  C   UNL     1      -4.870  -1.043   0.038  0.00  0.00    +0.176 C 
ATOM     14  N   UNL     1      -5.382   0.154   0.044  0.00  0.00    -0.185 NA
BRANCH  14  15
ATOM     15  N   UNL     1      -6.773   0.320   0.055  0.00  0.00    -0.218 N 
ATOM     16  H   UNL     1      -7.354  -0.456   0.058  0.00  0.00    +0.176 HD
BRANCH  15  17
ATOM     17  C   UNL     1      -7.303   1.560   0.060  0.00  0.00    +0.147 C 
ATOM     18  S   UNL     1      -9.003   1.763   0.074  0.00  0.00    -0.017 S 
BRANCH  17  19
ATOM     19  N   UNL     1      -6.495   2.638   0.055  0.00  0.00    -0.339 N 
ATOM     20  H   UNL     1      -5.532   2.523   0.048  0.00  0.00    +0.144 HD
ATOM     21  H   UNL     1      -6.877   3.530   0.059  0.00  0.00    +0.144 HD
ENDBRANCH  17  19
ENDBRANCH  15  17
ENDBRANCH  14  15
ENDBRANCH   4  13
TORSDOF 5
