REMARK  Name = ZINC31910659
REMARK  6 active torsions:
REMARK  status: ('A' for Active; 'I' for Inactive)
REMARK    1  A    between atoms: C_1  and  C_2
REMARK    2  A    between atoms: CA_7  and  C_22
REMARK    3  A    between atoms: C_8  and  C_11
REMARK    4  A    between atoms: C_11  and  N_12
REMARK    5  A    between atoms: C_14  and  C_21
REMARK    6  A    between atoms: C_17  and  C_20
REMARK                            x       y       z     vdW  Elec       q    Type
REMARK                         _______ _______ _______ _____ _____    ______ ____
ROOT
ATOM      1  C   UNL     1      -1.981  -6.012  -4.337  0.00  0.00    +0.045 C 
ATOM      2  C   UNL     1      -2.650  -4.687  -4.076  0.00  0.00    -0.034 A 
ATOM      3  C   UNL     1      -3.307  -4.017  -5.123  0.00  0.00    +0.008 A 
ATOM      4  C   UNL     1      -3.909  -2.823  -4.885  0.00  0.00    +0.047 A 
ATOM      5  C   UNL     1      -3.867  -2.272  -3.586  0.00  0.00    +0.139 A 
ATOM      6  N   UNL     1      -4.356  -1.152  -3.082  0.00  0.00    -0.221 NA
ATOM      7  CA  UNL     1      -4.042  -1.085  -1.775  0.00  0.00    +0.172 A 
ATOM      8  C   UNL     1      -3.329  -2.204  -1.450  0.00  0.00    +0.041 A 
ATOM      9  N   UNL     1      -3.213  -2.948  -2.585  0.00  0.00    -0.304 N 
ATOM     10  C   UNL     1      -2.616  -4.151  -2.839  0.00  0.00    +0.096 A 
ENDROOT
BRANCH   7  11
ATOM     11  C   UNL     1      -4.404   0.008  -0.853  0.00  0.00    +0.406 C 
ATOM     12  O   UNL     1      -4.062  -0.041   0.312  0.00  0.00    -0.239 OA
ATOM     13  OXT UNL     1      -5.113   1.062  -1.303  0.00  0.00    -0.239 OA
ENDBRANCH   7  11
BRANCH   8  14
ATOM     14  C   UNL     1      -2.772  -2.549  -0.093  0.00  0.00    -0.022 C 
BRANCH  14  15
ATOM     15  N   UNL     1      -1.414  -2.003   0.031  0.00  0.00    +0.384 N 
ATOM     16  C   UNL     1      -0.749  -2.514   1.237  0.00  0.00    -0.075 C 
ATOM     17  C   UNL     1       0.707  -2.043   1.257  0.00  0.00    -0.031 C 
ATOM     18  C   UNL     1       0.743  -0.512   1.242  0.00  0.00    +0.003 C 
ATOM     19  C   UNL     1       0.002  -0.004   0.002  0.00  0.00    -0.031 C 
ATOM     20  C   UNL     1      -1.433  -0.535   0.018  0.00  0.00    -0.075 C 
ATOM     21  C   UNL     1      -0.019   1.526   0.010  0.00  0.00    +0.005 C 
ATOM     22  C   UNL     1       1.436  -2.583   0.025  0.00  0.00    +0.005 C 
ATOM     23  H   UNL     1      -0.832  -2.338  -0.840  0.00  0.00    -0.081 HD
ENDBRANCH  14  15
ENDBRANCH   8  14
TORSDOF 3
