REMARK  Name = ZINC22204958
REMARK  9 active torsions:
REMARK  status: ('A' for Active; 'I' for Inactive)
REMARK    1  A    between atoms: C_4  and  C_7
REMARK    2  A    between atoms: C_7  and  C_8
REMARK    3  A    between atoms: N_10  and  C_11
REMARK    4  A    between atoms: C_11  and  C_13
REMARK    5  A    between atoms: C_11  and  N_17
REMARK    6  A    between atoms: N_17  and  C_18
REMARK    7  A    between atoms: C_18  and  N_20
REMARK    8  A    between atoms: N_20  and  C_21
REMARK    9  A    between atoms: C_24  and  N_27
REMARK                            x       y       z     vdW  Elec       q    Type
REMARK                         _______ _______ _______ _____ _____    ______ ____
ROOT
ATOM      1  C   UNL     1       3.554   6.260   0.315  0.00  0.00    +0.211 C 
ENDROOT
BRANCH   1   4
ATOM      2  C   UNL     1       4.785   6.434  -1.781  0.00  0.00    +0.219 C 
ATOM      3  O   UNL     1       5.410   5.444  -1.462  0.00  0.00    -0.275 OA
ATOM      4  N   UNL     1       3.834   6.923  -0.961  0.00  0.00    -0.293 N 
ATOM      5  H   UNL     1       3.268   7.821  -1.251  0.00  0.00    +0.151 HD
BRANCH   2   6
ATOM      6  C   UNL     1       5.074   7.116  -3.093  0.00  0.00    +0.131 C 
BRANCH   6  10
ATOM      7  C   UNL     1       8.184   5.018  -5.136  0.00  0.00    +0.000 A 
ATOM      8  C   UNL     1       6.863   4.668  -5.343  0.00  0.00    +0.000 A 
ATOM      9  C   UNL     1       5.856   5.347  -4.682  0.00  0.00    +0.004 A 
ATOM     10  C   UNL     1       6.171   6.376  -3.814  0.00  0.00    -0.039 A 
ATOM     11  C   UNL     1       7.492   6.729  -3.611  0.00  0.00    +0.004 A 
ATOM     12  C   UNL     1       8.499   6.047  -4.268  0.00  0.00    +0.000 A 
ENDBRANCH   6  10
ENDBRANCH   2   6
ENDBRANCH   1   4
BRANCH   1  13
ATOM     13  C   UNL     1       3.435   7.311   1.420  0.00  0.00    +0.225 C 
ATOM     14 CL   UNL     1       3.090   6.495   2.990  0.00  0.00    -0.080 Cl
ATOM     15 CL   UNL     1       4.981   8.229   1.546  0.00  0.00    -0.080 Cl
ATOM     16 CL   UNL     1       2.091   8.448   1.026  0.00  0.00    -0.080 Cl
ENDBRANCH   1  13
BRANCH   1  17
ATOM     17  N   UNL     1       2.297   5.514   0.212  0.00  0.00    -0.305 N 
ATOM     18  H   UNL     1       1.337   6.051   0.224  0.00  0.00    +0.150 HD
BRANCH  17  19
ATOM     19  C   UNL     1       2.318   4.171   0.104  0.00  0.00    +0.136 C 
ATOM     20  S   UNL     1       3.813   3.337   0.086  0.00  0.00    -0.019 S 
BRANCH  19  21
ATOM     21  N   UNL     1       1.162   3.485   0.009  0.00  0.00    -0.297 N 
ATOM     22  H   UNL     1       0.207   4.025  -0.071  0.00  0.00    +0.154 HD
BRANCH  21  23
ATOM     23  C   UNL     1       1.177   2.086   0.013  0.00  0.00    +0.033 A 
ATOM     24  C   UNL     1       2.010   1.401   0.888  0.00  0.00    +0.025 A 
ATOM     25  C   UNL     1       2.022   0.020   0.890  0.00  0.00    +0.034 A 
ATOM     26  C   UNL     1       1.205  -0.681   0.022  0.00  0.00    +0.126 A 
ATOM     27  C   UNL     1       0.374  -0.002  -0.851  0.00  0.00    +0.034 A 
ATOM     28  C   UNL     1       0.358   1.379  -0.858  0.00  0.00    +0.025 A 
BRANCH  26  29
ATOM     29  N   UNL     1       1.220  -2.161   0.027  0.00  0.00    +0.056 N 
ATOM     30  O   UNL     1       1.951  -2.760   0.794  0.00  0.00    -0.126 OA
ATOM     31  O   UNL     1       0.501  -2.780  -0.737  0.00  0.00    -0.126 OA
ENDBRANCH  26  29
ENDBRANCH  21  23
ENDBRANCH  19  21
ENDBRANCH  17  19
ENDBRANCH   1  17
TORSDOF 9
