REMARK  Name = ZINC04641120
REMARK  7 active torsions:
REMARK  status: ('A' for Active; 'I' for Inactive)
REMARK    1  A    between atoms: C_1  and  C_2
REMARK    2  A    between atoms: C_3  and  C_12
REMARK    3  A    between atoms: C_12  and  C_13
REMARK    4  A    between atoms: C_13  and  N_14
REMARK    5  A    between atoms: C_15  and  C_16
REMARK    6  A    between atoms: C_15  and  C_32
REMARK    7  A    between atoms: N_22  and  C_25
REMARK                            x       y       z     vdW  Elec       q    Type
REMARK                         _______ _______ _______ _____ _____    ______ ____
ROOT
ATOM      1  N   UNL     1      -1.646   8.654   1.746  0.00  0.00    -0.286 NA
ATOM      2  C   UNL     1      -2.336   8.846   2.907  0.00  0.00    +0.064 C 
ENDROOT
BRANCH   2   3
ATOM      3  C   UNL     1      -3.676   9.242   2.867  0.00  0.00    +0.210 C 
ATOM      4  C   UNL     1      -4.325   9.624   1.604  0.00  0.00    +0.238 C 
ATOM      5  O   UNL     1      -3.708   9.605   0.555  0.00  0.00    -0.274 OA
ATOM      6  N   UNL     1      -5.622   9.992   1.639  0.00  0.00    -0.238 N 
ATOM      7  C   UNL     1      -6.311  10.023   2.788  0.00  0.00    +0.319 C 
ATOM      8  O   UNL     1      -7.475  10.368   2.754  0.00  0.00    -0.251 OA
ATOM      9  N   UNL     1      -5.780   9.692   3.975  0.00  0.00    -0.193 N 
ATOM     10  C   UNL     1      -4.495   9.300   4.087  0.00  0.00    +0.245 C 
ATOM     11  O   UNL     1      -4.025   9.002   5.169  0.00  0.00    -0.274 OA
ATOM     12  H   UNL     1      -6.066  10.244   0.814  0.00  0.00    +0.159 HD
BRANCH   9  13
ATOM     13  C   UNL     1      -6.580   9.755   5.124  0.00  0.00    +0.045 A 
ATOM     14  C   UNL     1      -6.962   8.588   5.770  0.00  0.00    +0.025 A 
ATOM     15  C   UNL     1      -7.746   8.653   6.906  0.00  0.00    +0.017 A 
ATOM     16  C   UNL     1      -8.159   9.880   7.393  0.00  0.00    +0.018 A 
ATOM     17  C   UNL     1      -7.785  11.045   6.747  0.00  0.00    +0.017 A 
ATOM     18  C   UNL     1      -6.997  10.986   5.615  0.00  0.00    +0.025 A 
ATOM     19 BR   UNL     1      -9.238   9.966   8.944  0.00  0.00    -0.050 Br
ENDBRANCH   9  13
ENDBRANCH   2   3
BRANCH   2  20
ATOM     20  C   UNL     1      -1.669   8.634   4.204  0.00  0.00    -0.003 A 
ATOM     21  C   UNL     1      -1.673   9.646   5.169  0.00  0.00    +0.011 A 
ATOM     22  C   UNL     1      -1.050   9.441   6.381  0.00  0.00    +0.020 A 
ATOM     23  C   UNL     1      -0.413   8.238   6.641  0.00  0.00    +0.041 A 
ATOM     24  C   UNL     1      -0.402   7.232   5.688  0.00  0.00    +0.020 A 
ATOM     25  C   UNL     1      -1.024   7.423   4.473  0.00  0.00    +0.011 A 
ATOM     26 CL   UNL     1       0.374   7.989   8.168  0.00  0.00    -0.084 Cl
ENDBRANCH   2  20
BRANCH   1  27
ATOM     27  C   UNL     1      -0.242   8.239   1.788  0.00  0.00    +0.146 C 
BRANCH  27  28
ATOM     28  C   UNL     1       0.258   7.984   0.364  0.00  0.00    +0.060 C 
BRANCH  28  31
ATOM     29  C   UNL     1       2.724   9.863   0.239  0.00  0.00    +0.063 C 
ATOM     30  C   UNL     1       2.775   8.362   0.354  0.00  0.00    +0.017 A 
ATOM     31  C   UNL     1       1.702   7.556   0.408  0.00  0.00    -0.018 A 
ATOM     32  C   UNL     1       2.202   6.184   0.517  0.00  0.00    +0.003 A 
ATOM     33  C   UNL     1       1.589   4.932   0.608  0.00  0.00    +0.010 A 
ATOM     34  C   UNL     1       2.358   3.806   0.695  0.00  0.00    +0.001 A 
ATOM     35  C   UNL     1       3.743   3.896   0.705  0.00  0.00    +0.002 A 
ATOM     36  C   UNL     1       4.368   5.121   0.615  0.00  0.00    +0.026 A 
ATOM     37  C   UNL     1       3.605   6.280   0.520  0.00  0.00    +0.047 A 
ATOM     38  N   UNL     1       3.921   7.617   0.420  0.00  0.00    -0.358 N 
ATOM     39  H   UNL     1       4.821   7.977   0.400  0.00  0.00    +0.166 HD
ENDBRANCH  28  31
ENDBRANCH  27  28
ENDBRANCH   1  27
TORSDOF 6
