REMARK  Name = ZINC46767903
REMARK  9 active torsions:
REMARK  status: ('A' for Active; 'I' for Inactive)
REMARK    1  A    between atoms: C_1  and  C_2
REMARK    2  A    between atoms: C_2  and  C_4
REMARK    3  A    between atoms: C_2  and  O_18
REMARK    4  A    between atoms: N_6  and  C_7
REMARK    5  A    between atoms: C_10  and  O_16
REMARK    6  A    between atoms: C_12  and  N_13
REMARK    7  A    between atoms: O_16  and  C_17
REMARK    8  A    between atoms: O_18  and  C_19
REMARK    9  A    between atoms: C_19  and  C_21
REMARK                            x       y       z     vdW  Elec       q    Type
REMARK                         _______ _______ _______ _____ _____    ______ ____
ROOT
ATOM      1  C   UNL     1      -0.035   1.537  -0.008  0.00  0.00    +0.062 C 
ATOM      2  C   UNL     1      -0.002   0.007  -0.002  0.00  0.00    +0.259 C 
ENDROOT
BRANCH   2   3
ATOM      3  C   UNL     1      -1.411  -0.526   0.015  0.00  0.00    +0.258 C 
ATOM      4  O   UNL     1      -1.831  -1.160  -0.931  0.00  0.00    -0.271 OA
ATOM      5  N   UNL     1      -2.205  -0.299   1.079  0.00  0.00    -0.281 N 
ATOM      6  H   UNL     1      -1.846   0.137   1.868  0.00  0.00    +0.155 HD
BRANCH   5   7
ATOM      7  C   UNL     1      -3.550  -0.693   1.048  0.00  0.00    +0.064 A 
ATOM      8  C   UNL     1      -4.208  -0.819  -0.169  0.00  0.00    +0.029 A 
ATOM      9  C   UNL     1      -5.532  -1.208  -0.200  0.00  0.00    +0.047 A 
ATOM     10  C   UNL     1      -6.206  -1.471   0.985  0.00  0.00    +0.122 A 
ATOM     11  C   UNL     1      -5.549  -1.345   2.200  0.00  0.00    +0.080 A 
ATOM     12  C   UNL     1      -4.223  -0.963   2.232  0.00  0.00    +0.151 A 
BRANCH  12  13
ATOM     13  N   UNL     1      -3.520  -0.835   3.528  0.00  0.00    +0.058 N 
ATOM     14  O   UNL     1      -4.078  -1.155   4.552  0.00  0.00    -0.126 OA
ATOM     15  O   UNL     1      -2.389  -0.410   3.563  0.00  0.00    -0.126 OA
ENDBRANCH  12  13
BRANCH  10  16
ATOM     16  O   UNL     1      -7.511  -1.852   0.954  0.00  0.00    -0.495 OA
ATOM     17  C   UNL     1      -8.124  -1.961  -0.332  0.00  0.00    +0.277 C 
ENDBRANCH  10  16
ENDBRANCH   5   7
ENDBRANCH   2   3
BRANCH   2  18
ATOM     18  O   UNL     1       0.671  -0.459  -1.173  0.00  0.00    -0.448 OA
BRANCH  18  19
ATOM     19  C   UNL     1       2.005  -0.634  -1.085  0.00  0.00    +0.357 C 
ATOM     20  O   UNL     1       2.581  -0.396  -0.041  0.00  0.00    -0.243 OA
BRANCH  19  21
ATOM     21  C   UNL     1       2.761  -1.110  -2.249  0.00  0.00    +0.140 A 
ATOM     22  C   UNL     1       4.104  -1.330  -2.282  0.00  0.00    +0.057 A 
ATOM     23  C   UNL     1       4.434  -1.783  -3.583  0.00  0.00    +0.014 A 
ATOM     24  C   UNL     1       5.638  -2.159  -4.193  0.00  0.00    +0.011 A 
ATOM     25  C   UNL     1       5.641  -2.562  -5.497  0.00  0.00    +0.001 A 
ATOM     26  C   UNL     1       4.460  -2.603  -6.227  0.00  0.00    +0.002 A 
ATOM     27  C   UNL     1       3.265  -2.238  -5.650  0.00  0.00    +0.026 A 
ATOM     28  C   UNL     1       3.236  -1.823  -4.321  0.00  0.00    +0.048 A 
ATOM     29  N   UNL     1       2.223  -1.414  -3.486  0.00  0.00    -0.348 N 
ATOM     30  H   UNL     1       1.286  -1.347  -3.726  0.00  0.00    +0.166 HD
ATOM     31 BR   UNL     1       5.311  -1.075  -0.849  0.00  0.00    -0.047 Br
ENDBRANCH  19  21
ENDBRANCH  18  19
ENDBRANCH   2  18
TORSDOF 7
