REMARK  Name = ZINC15320390
REMARK  5 active torsions:
REMARK  status: ('A' for Active; 'I' for Inactive)
REMARK    1  A    between atoms: C_1  and  C_2
REMARK    2  A    between atoms: C_2  and  C_3
REMARK    3  A    between atoms: N_11  and  C_14
REMARK    4  A    between atoms: N_28  and  C_31
REMARK    5  A    between atoms: C_31  and  C_32
REMARK                            x       y       z     vdW  Elec       q    Type
REMARK                         _______ _______ _______ _____ _____    ______ ____
ROOT
ATOM      1  C   UNL     1       0.742  -0.511   1.242  0.00  0.00    +0.067 C 
ATOM      2  C   UNL     1       0.748  -2.036   1.291  0.00  0.00    +0.107 C 
ATOM      3  C   UNL     1       1.876  -2.202   2.375  0.00  0.00    +0.123 C 
ATOM      4  C   UNL     1       1.705  -3.576   2.780  0.00  0.00    +0.233 C 
ATOM      5  O   UNL     1       2.563  -4.353   3.139  0.00  0.00    -0.274 OA
ATOM      6  N   UNL     1       0.355  -3.811   2.672  0.00  0.00    -0.210 N 
ATOM      7  C   UNL     1      -0.317  -2.797   2.015  0.00  0.00    +0.232 C 
ATOM      8  O   UNL     1      -1.507  -2.565   2.025  0.00  0.00    -0.274 OA
ATOM      9  C   UNL     1       2.896  -1.214   2.040  0.00  0.00    +0.136 C 
ATOM     10  N   UNL     1       2.215  -0.211   1.152  0.00  0.00    -0.295 NA
ATOM     11  C   UNL     1       3.477  -0.483   3.225  0.00  0.00    +0.004 A 
ATOM     12  C   UNL     1       2.913   0.237   4.255  0.00  0.00    +0.008 A 
ATOM     13  C   UNL     1       3.721   0.810   5.221  0.00  0.00    +0.000 A 
ATOM     14  C   UNL     1       5.094   0.658   5.149  0.00  0.00    +0.002 A 
ATOM     15  C   UNL     1       5.662  -0.064   4.119  0.00  0.00    +0.024 A 
ATOM     16  C   UNL     1       4.855  -0.644   3.143  0.00  0.00    +0.042 A 
ATOM     17  N   UNL     1       5.186  -1.407   2.022  0.00  0.00    -0.260 N 
ATOM     18  C   UNL     1       4.099  -1.780   1.323  0.00  0.00    +0.246 C 
ATOM     19  O   UNL     1       4.088  -2.446   0.309  0.00  0.00    -0.273 OA
ATOM     20  H   UNL     1       2.545  -0.296   0.203  0.00  0.00    +0.123 HD
ENDROOT
BRANCH   6  21
ATOM     21  C   UNL     1      -0.275  -4.964   3.162  0.00  0.00    +0.044 A 
ATOM     22  C   UNL     1       0.469  -5.944   3.804  0.00  0.00    +0.024 A 
ATOM     23  C   UNL     1      -0.155  -7.078   4.286  0.00  0.00    +0.002 A 
ATOM     24  C   UNL     1      -1.520  -7.238   4.129  0.00  0.00    +0.000 A 
ATOM     25  C   UNL     1      -2.264  -6.263   3.490  0.00  0.00    +0.002 A 
ATOM     26  C   UNL     1      -1.646  -5.124   3.011  0.00  0.00    +0.024 A 
ENDBRANCH   6  21
BRANCH   1  28
ATOM     27  C   UNL     1      -0.019   1.526   0.010  0.00  0.00    +0.005 C 
ATOM     28  C   UNL     1       0.002  -0.004   0.002  0.00  0.00    +0.016 C 
ENDBRANCH   1  28
BRANCH  17  29
ATOM     29  C   UNL     1       6.558  -1.759   1.649  0.00  0.00    +0.210 C 
BRANCH  29  30
ATOM     30  C   UNL     1       6.935  -3.065   2.299  0.00  0.00    +0.238 C 
ATOM     31  O   UNL     1       6.137  -3.645   3.005  0.00  0.00    -0.274 OA
ATOM     32  N   UNL     1       8.160  -3.590   2.097  0.00  0.00    -0.270 N 
ATOM     33  C   UNL     1       8.639  -4.851   2.669  0.00  0.00    +0.118 C 
ATOM     34  C   UNL     1      10.077  -5.009   2.150  0.00  0.00    +0.056 C 
ATOM     35  C   UNL     1      10.310  -3.784   1.295  0.00  0.00    -0.024 A 
ATOM     36  C   UNL     1       9.159  -3.013   1.306  0.00  0.00    +0.040 A 
ATOM     37  C   UNL     1       9.132  -1.823   0.577  0.00  0.00    +0.024 A 
ATOM     38  C   UNL     1      10.237  -1.427  -0.147  0.00  0.00    +0.002 A 
ATOM     39  C   UNL     1      11.380  -2.205  -0.155  0.00  0.00    +0.000 A 
ATOM     40  C   UNL     1      11.416  -3.380   0.572  0.00  0.00    +0.005 A 
ENDBRANCH  29  30
ENDBRANCH  17  29
TORSDOF 4
