REMARK  Name = ZINC19852595
REMARK  14 active torsions:
REMARK  status: ('A' for Active; 'I' for Inactive)
REMARK    1  A    between atoms: C_1  and  C_2
REMARK    2  A    between atoms: C_2  and  C_3
REMARK    3  A    between atoms: C_2  and  C_4
REMARK    4  A    between atoms: C_2  and  C_5
REMARK    5  A    between atoms: C_8  and  C_11
REMARK    6  A    between atoms: C_20  and  C_28
REMARK    7  A    between atoms: C_21  and  N_27
REMARK    8  A    between atoms: C_22  and  C_23
REMARK    9  A    between atoms: C_22  and  C_25
REMARK   10  A    between atoms: C_30  and  O_32
REMARK   11  A    between atoms: O_32  and  C_33
REMARK   12  A    between atoms: C_33  and  C_34
REMARK   13  A    between atoms: C_33  and  C_35
REMARK   14  A    between atoms: C_33  and  C_36
REMARK                            x       y       z     vdW  Elec       q    Type
REMARK                         _______ _______ _______ _____ _____    ______ ____
ROOT
ATOM      1  C   UNL     1      -1.332   2.114   0.020  0.00  0.00    +0.068 C 
ATOM      2  C   UNL     1      -1.379   3.096  -1.152  0.00  0.00    +0.048 C 
ATOM      3  C   UNL     1      -0.993   2.435  -2.456  0.00  0.00    +0.120 C 
ATOM      4  N   UNL     1      -2.172   2.181  -3.291  0.00  0.00    -0.263 N 
ATOM      5  C   UNL     1      -3.062   3.324  -3.564  0.00  0.00    +0.138 C 
ATOM      6  C   UNL     1      -3.483   3.888  -2.231  0.00  0.00    -0.003 C 
ATOM      7  C   UNL     1      -2.725   3.757  -1.161  0.00  0.00    -0.026 C 
ATOM      8  C   UNL     1      -3.239   4.245   0.147  0.00  0.00    +0.074 C 
ATOM      9  C   UNL     1      -2.649   3.822   1.293  0.00  0.00    +0.054 C 
ATOM     10  C   UNL     1      -1.473   2.893   1.328  0.00  0.00    +0.188 C 
ATOM     11  C   UNL     1      -2.430   0.955  -3.787  0.00  0.00    +0.404 C 
ATOM     12  O   UNL     1      -1.678   0.031  -3.546  0.00  0.00    -0.226 OA
ENDROOT
BRANCH   1  16
ATOM     13  C   UNL     1       2.397   0.030   0.003  0.00  0.00    -0.042 A 
ATOM     14  C   UNL     1       2.368   1.396  -0.207  0.00  0.00    +0.004 A 
ATOM     15  C   UNL     1       1.161   2.070  -0.203  0.00  0.00    +0.004 A 
ATOM     16  C   UNL     1      -0.017   1.378   0.010  0.00  0.00    -0.041 A 
ATOM     17  C   UNL     1       0.013   0.012   0.219  0.00  0.00    +0.004 A 
ATOM     18  C   UNL     1       1.220  -0.662   0.216  0.00  0.00    +0.004 A 
BRANCH  13  20
ATOM     19  C   UNL     1       4.615  -0.142   1.099  0.00  0.00    +0.015 C 
ATOM     20  C   UNL     1       3.713  -0.705  -0.002  0.00  0.00    -0.013 C 
ATOM     21  C   UNL     1       3.467  -2.193   0.251  0.00  0.00    +0.015 C 
ATOM     22  C   UNL     1       4.393  -0.524  -1.360  0.00  0.00    +0.015 C 
ENDBRANCH  13  20
ENDBRANCH   1  16
BRANCH   9  23
ATOM     23  N   UNL     1      -3.155   4.267   2.482  0.00  0.00    -0.358 N 
ATOM     24  H   UNL     1      -2.699   3.944   3.429  0.00  0.00    +0.142 HD
ATOM     25  H   UNL     1      -4.018   4.949   2.492  0.00  0.00    +0.142 HD
ENDBRANCH   9  23
BRANCH  10  26
ATOM     26  C   UNL     1      -1.642   1.941   2.438  0.00  0.00    +0.091 C 
ATOM     27  N   UNL     1      -1.772   1.207   3.295  0.00  0.00    -0.194 NA
ENDBRANCH  10  26
BRANCH  10  28
ATOM     28  C   UNL     1      -0.248   3.679   1.554  0.00  0.00    +0.091 C 
ATOM     29  N   UNL     1       0.696   4.285   1.727  0.00  0.00    -0.194 NA
ENDBRANCH  10  28
BRANCH   8  30
ATOM     30  C   UNL     1      -4.347   5.151   0.196  0.00  0.00    +0.101 C 
ATOM     31  N   UNL     1      -5.226   5.870   0.235  0.00  0.00    -0.191 NA
ENDBRANCH   8  30
BRANCH  11  32
ATOM     32  O   UNL     1      -3.520   0.754  -4.551  0.00  0.00    -0.445 OA
BRANCH  32  33
ATOM     33  C   UNL     1      -3.736  -0.592  -5.051  0.00  0.00    +0.107 C 
ATOM     34  C   UNL     1      -3.874  -1.558  -3.873  0.00  0.00    +0.055 C 
ATOM     35  C   UNL     1      -5.014  -0.625  -5.892  0.00  0.00    +0.055 C 
ATOM     36  C   UNL     1      -2.545  -1.011  -5.917  0.00  0.00    +0.055 C 
ENDBRANCH  32  33
ENDBRANCH  11  32
TORSDOF 8
