REMARK  Name = ZINC41583983
REMARK  11 active torsions:
REMARK  status: ('A' for Active; 'I' for Inactive)
REMARK    1  A    between atoms: C_1  and  C_2
REMARK    2  A    between atoms: C_2  and  O_3
REMARK    3  A    between atoms: O_3  and  C_4
REMARK    4  A    between atoms: C_9  and  O_10
REMARK    5  A    between atoms: O_10  and  C_11
REMARK    6  A    between atoms: C_17  and  O_37
REMARK    7  A    between atoms: C_18  and  C_26
REMARK    8  A    between atoms: C_21  and  C_22
REMARK    9  A    between atoms: C_26  and  N_27
REMARK   10  A    between atoms: C_29  and  C_36
REMARK   11  A    between atoms: C_32  and  C_35
REMARK                            x       y       z     vdW  Elec       q    Type
REMARK                         _______ _______ _______ _____ _____    ______ ____
ROOT
ATOM      1  C   UNL     1      -5.054  -2.262   0.028  0.00  0.00    +0.222 A 
ATOM      2  C   UNL     1      -6.284  -1.545   0.003  0.00  0.00    +0.235 A 
ATOM      3  O   UNL     1      -6.309  -0.331  -0.109  0.00  0.00    -0.283 OA
ATOM      4  C   UNL     1      -7.524  -2.332   0.117  0.00  0.00    +0.068 A 
ATOM      5  C   UNL     1      -8.778  -1.718   0.102  0.00  0.00    +0.019 A 
ATOM      6  C   UNL     1      -9.906  -2.480   0.209  0.00  0.00    +0.046 A 
ATOM      7  C   UNL     1      -9.812  -3.865   0.335  0.00  0.00    +0.122 A 
ATOM      8  C   UNL     1      -8.575  -4.489   0.351  0.00  0.00    +0.020 A 
ATOM      9  C   UNL     1      -7.419  -3.728   0.242  0.00  0.00    +0.144 A 
ATOM     10  O   UNL     1      -6.203  -4.310   0.255  0.00  0.00    -0.447 OA
ATOM     11  C   UNL     1      -5.069  -3.605   0.147  0.00  0.00    +0.254 A 
ENDROOT
BRANCH  11  12
ATOM     12  C   UNL     1      -3.755  -4.343   0.166  0.00  0.00    +0.454 C 
ATOM     13  F   UNL     1      -2.704  -3.422   0.221  0.00  0.00    -0.163 F 
ATOM     14  F   UNL     1      -3.705  -5.176   1.288  0.00  0.00    -0.163 F 
ATOM     15  F   UNL     1      -3.639  -5.116  -0.995  0.00  0.00    -0.163 F 
ENDBRANCH  11  12
BRANCH   7  16
ATOM     16  O   UNL     1     -10.942  -4.609   0.442  0.00  0.00    -0.506 OA
ATOM     17  H   UNL     1     -11.299  -4.907  -0.406  0.00  0.00    +0.292 HD
ENDBRANCH   7  16
BRANCH   1  18
ATOM     18  O   UNL     1      -3.870  -1.597  -0.074  0.00  0.00    -0.445 OA
BRANCH  18  24
ATOM     19  C   UNL     1      -2.372   0.018   0.836  0.00  0.00    +0.163 A 
ATOM     20  C   UNL     1      -2.016   0.865   1.874  0.00  0.00    +0.049 A 
ATOM     21  C   UNL     1      -2.793   0.922   3.016  0.00  0.00    +0.004 A 
ATOM     22  C   UNL     1      -3.925   0.136   3.126  0.00  0.00    +0.004 A 
ATOM     23  C   UNL     1      -4.286  -0.710   2.094  0.00  0.00    +0.050 A 
ATOM     24  C   UNL     1      -3.515  -0.769   0.944  0.00  0.00    +0.170 A 
BRANCH  19  25
ATOM     25  O   UNL     1      -1.608  -0.040  -0.288  0.00  0.00    -0.489 OA
BRANCH  25  27
ATOM     26  C   UNL     1       0.276   0.596  -1.661  0.00  0.00    +0.048 C 
ATOM     27  C   UNL     1      -0.450   0.796  -0.329  0.00  0.00    +0.226 C 
ENDBRANCH  25  27
ENDBRANCH  19  25
ENDBRANCH  18  24
ENDBRANCH   1  18
BRANCH   8  28
ATOM     28  C   UNL     1      -8.485  -5.987   0.488  0.00  0.00    -0.036 C 
BRANCH  28  29
ATOM     29  N   UNL     1      -8.502  -6.602  -0.846  0.00  0.00    +0.383 N 
ATOM     30  C   UNL     1      -9.796  -6.339  -1.488  0.00  0.00    -0.075 C 
ATOM     31  C   UNL     1      -9.789  -6.907  -2.909  0.00  0.00    -0.031 C 
ATOM     32  C   UNL     1      -9.546  -8.418  -2.847  0.00  0.00    +0.003 C 
ATOM     33  C   UNL     1      -8.230  -8.684  -2.110  0.00  0.00    -0.031 C 
ATOM     34  C   UNL     1      -8.294  -8.049  -0.719  0.00  0.00    -0.075 C 
ATOM     35  C   UNL     1      -7.070  -8.072  -2.898  0.00  0.00    +0.005 C 
ATOM     36  C   UNL     1     -11.139  -6.633  -3.575  0.00  0.00    +0.005 C 
ATOM     37  H   UNL     1      -7.763  -6.205  -1.408  0.00  0.00    -0.081 HD
ENDBRANCH  28  29
ENDBRANCH   8  28
TORSDOF 8
