REMARK  Name = ZINC37336395
REMARK  3 active torsions:
REMARK  status: ('A' for Active; 'I' for Inactive)
REMARK    1  A    between atoms: C_8  and  C_16
REMARK    2  A    between atoms: C_9  and  C_10
REMARK    3  A    between atoms: C_10  and  N_11
REMARK                            x       y       z     vdW  Elec       q    Type
REMARK                         _______ _______ _______ _____ _____    ______ ____
ROOT
ATOM      1  C   UNL     1      -0.017   1.376   0.010  0.00  0.00    +0.004 A 
ATOM      2  C   UNL     1       1.182   2.078   0.002  0.00  0.00    +0.039 A 
ATOM      3  C   UNL     1       2.383   1.438  -0.013  0.00  0.00    +0.132 A 
ATOM      4  C   UNL     1       2.448   0.018  -0.022  0.00  0.00    +0.030 A 
ATOM      5  C   UNL     1       1.210  -0.668  -0.013  0.00  0.00    +0.023 A 
ATOM      6  C   UNL     1       0.002  -0.004   0.002  0.00  0.00    +0.016 A 
ATOM      7  S   UNL     1       1.685  -2.379  -0.029  0.00  0.00    -0.081 S 
ATOM      8  C   UNL     1       3.456  -2.155  -0.045  0.00  0.00    +0.106 A 
ATOM      9  C   UNL     1       3.590  -0.799  -0.038  0.00  0.00    +0.006 A 
ATOM     10  F   UNL     1       3.525   2.160  -0.020  0.00  0.00    -0.205 F 
ENDROOT
BRANCH   8  11
ATOM     11  C   UNL     1       4.505  -3.176  -0.061  0.00  0.00    +0.393 C 
ATOM     12  O   UNL     1       4.204  -4.363  -0.064  0.00  0.00    -0.240 OA
ATOM     13  O   UNL     1       5.683  -2.844  -0.070  0.00  0.00    -0.240 OA
ENDBRANCH   8  11
BRANCH   9  14
ATOM     14  C   UNL     1       4.963  -0.177  -0.047  0.00  0.00    +0.180 C 
BRANCH  14  15
ATOM     15  N   UNL     1       5.421   0.015   1.331  0.00  0.00    -0.267 N 
ATOM     16  C   UNL     1       6.576  -0.445   1.855  0.00  0.00    +0.108 A 
ATOM     17  C   UNL     1       6.625  -0.056   3.150  0.00  0.00    +0.041 A 
ATOM     18  C   UNL     1       5.460   0.667   3.427  0.00  0.00    +0.134 A 
ATOM     19  N   UNL     1       4.741   0.715   2.335  0.00  0.00    -0.179 NA
ENDBRANCH  14  15
ENDBRANCH   9  14
TORSDOF 3
