REMARK  Name = ZINC64659505
REMARK  3 active torsions:
REMARK  status: ('A' for Active; 'I' for Inactive)
REMARK    1  A    between atoms: C_4  and  N_7
REMARK    2  A    between atoms: C_13  and  C_16
REMARK    3  A    between atoms: C_16  and  C_17
REMARK                            x       y       z     vdW  Elec       q    Type
REMARK                         _______ _______ _______ _____ _____    ______ ____
ROOT
ATOM      1  N   UNL     1       2.838  -0.441  -2.473  0.00  0.00    -0.296 N 
ATOM      2  C   UNL     1       3.424  -1.655  -2.483  0.00  0.00    +0.302 C 
ATOM      3  O   UNL     1       3.463  -2.319  -1.466  0.00  0.00    -0.253 OA
ATOM      4  N   UNL     1       3.967  -2.131  -3.621  0.00  0.00    -0.286 N 
ATOM      5  C   UNL     1       4.032  -1.295  -4.827  0.00  0.00    +0.109 C 
ATOM      6  C   UNL     1       3.389  -2.056  -5.990  0.00  0.00    +0.023 C 
ATOM      7  C   UNL     1       4.063  -3.423  -6.136  0.00  0.00    +0.001 C 
ATOM      8  C   UNL     1       3.857  -4.234  -4.854  0.00  0.00    +0.023 C 
ATOM      9  C   UNL     1       4.511  -3.495  -3.677  0.00  0.00    +0.109 C 
ATOM     10  H   UNL     1       2.872   0.120  -3.264  0.00  0.00    +0.151 HD
ENDROOT
BRANCH   1  14
ATOM     11  C   UNL     1      -0.023   1.523   0.008  0.00  0.00    +0.000 C 
ATOM     12  C   UNL     1       1.412   2.053  -0.001  0.00  0.00    +0.002 C 
ATOM     13  C   UNL     1       2.130   1.561  -1.260  0.00  0.00    +0.022 C 
ATOM     14  C   UNL     1       2.151   0.031  -1.268  0.00  0.00    +0.074 C 
ATOM     15  C   UNL     1       0.716  -0.500  -1.259  0.00  0.00    +0.022 C 
ATOM     16  C   UNL     1      -0.001  -0.007  -0.001  0.00  0.00    +0.002 C 
ENDBRANCH   1  14
BRANCH   7  17
ATOM     17  C   UNL     1       3.446  -4.172  -7.318  0.00  0.00    +0.099 C 
BRANCH  17  18
ATOM     18  C   UNL     1       4.191  -5.464  -7.538  0.00  0.00    +0.216 C 
ATOM     19  O   UNL     1       5.123  -5.756  -6.820  0.00  0.00    -0.276 OA
ATOM     20  N   UNL     1       3.821  -6.294  -8.533  0.00  0.00    -0.301 N 
ATOM     21  C   UNL     1       2.719  -6.062  -9.478  0.00  0.00    +0.108 C 
ATOM     22  C   UNL     1       2.653  -7.286 -10.416  0.00  0.00    +0.020 C 
ATOM     23  C   UNL     1       3.357  -8.394  -9.589  0.00  0.00    +0.020 C 
ATOM     24  C   UNL     1       4.459  -7.583  -8.859  0.00  0.00    +0.108 C 
ENDBRANCH  17  18
ENDBRANCH   7  17
TORSDOF 3
