REMARK  Name = ZINC62723924
REMARK  1 active torsions:
REMARK  status: ('A' for Active; 'I' for Inactive)
REMARK    1  A    between atoms: C_13  and  S_17
REMARK                            x       y       z     vdW  Elec       q    Type
REMARK                         _______ _______ _______ _____ _____    ______ ____
ROOT
ATOM      1  C   UNL     1      -0.016   1.357   0.009  0.00  0.00    +0.001 A 
ATOM      2  C   UNL     1       1.168   2.092   0.002  0.00  0.00    +0.001 A 
ATOM      3  C   UNL     1       2.378   1.469  -0.013  0.00  0.00    +0.009 A 
ATOM      4  C   UNL     1       2.436   0.063  -0.022  0.00  0.00    -0.014 A 
ATOM      5  C   UNL     1       1.232  -0.683  -0.012  0.00  0.00    -0.018 A 
ATOM      6  C   UNL     1       0.002  -0.004   0.002  0.00  0.00    +0.008 A 
ATOM      7  C   UNL     1       1.282  -2.090  -0.017  0.00  0.00    +0.009 A 
ATOM      8  C   UNL     1       2.481  -2.723  -0.030  0.00  0.00    +0.012 A 
ATOM      9  C   UNL     1       3.686  -1.992  -0.040  0.00  0.00    +0.023 A 
ATOM     10  C   UNL     1       3.672  -0.606  -0.042  0.00  0.00    -0.029 A 
ATOM     11  C   UNL     1       4.942   0.200  -0.071  0.00  0.00    +0.039 C 
ATOM     12  C   UNL     1       6.124  -0.608   0.458  0.00  0.00    +0.042 C 
ATOM     13  C   UNL     1       6.229  -1.923  -0.326  0.00  0.00    +0.233 C 
ATOM     14  C   UNL     1       4.971  -2.717  -0.044  0.00  0.00    +0.190 C 
ATOM     15  O   UNL     1       5.018  -3.910   0.170  0.00  0.00    -0.290 OA
ENDROOT
BRANCH  13  16
ATOM     16  S   UNL     1       7.685  -2.854   0.226  0.00  0.00    +0.120 S 
ATOM     17  O   UNL     1       7.759  -4.094  -0.532  0.00  0.00    -0.144 OA
ATOM     18  O   UNL     1       8.871  -2.046  -0.012  0.00  0.00    -0.144 OA
ATOM     19  O   UNL     1       7.545  -3.139   1.645  0.00  0.00    -0.047 OA
ENDBRANCH  13  16
TORSDOF 1
