REMARK  Name = ZINC20874664
REMARK  12 active torsions:
REMARK  status: ('A' for Active; 'I' for Inactive)
REMARK    1  A    between atoms: C_1  and  C_2
REMARK    2  A    between atoms: C_5  and  C_8
REMARK    3  A    between atoms: C_8  and  O_9
REMARK    4  A    between atoms: O_9  and  C_10
REMARK    5  A    between atoms: C_15  and  C_16
REMARK    6  A    between atoms: C_16  and  N_17
REMARK    7  A    between atoms: N_17  and  C_18
REMARK    8  A    between atoms: C_18  and  C_19
REMARK    9  A    between atoms: C_19  and  C_20
REMARK   10  A    between atoms: C_20  and  S_21
REMARK   11  A    between atoms: S_21  and  C_22
REMARK   12  A    between atoms: N_26  and  C_27
REMARK                            x       y       z     vdW  Elec       q    Type
REMARK                         _______ _______ _______ _____ _____    ______ ____
ROOT
ATOM      1  N   UNL     1      -3.084   3.902   1.417  0.00  0.00    +0.382 N 
ATOM      2  H   UNL     1      -3.239   2.871   1.767  0.00  0.00    -0.085 HD
ATOM      3  H   UNL     1      -2.369   4.411   2.079  0.00  0.00    -0.085 HD
ENDROOT
BRANCH   1   4
ATOM      4  C   UNL     1      -2.553   3.879   0.047  0.00  0.00    -0.043 C 
BRANCH   4  10
ATOM      5  C   UNL     1      -1.223   1.754   0.017  0.00  0.00    +0.122 A 
ATOM      6  C   UNL     1      -0.013   1.076   0.008  0.00  0.00    +0.047 A 
ATOM      7  C   UNL     1       1.174   1.783   0.000  0.00  0.00    +0.019 A 
ATOM      8  C   UNL     1       1.156   3.167   0.008  0.00  0.00    +0.018 A 
ATOM      9  C   UNL     1      -0.050   3.844   0.024  0.00  0.00    +0.020 A 
ATOM     10  C   UNL     1      -1.239   3.140   0.031  0.00  0.00    -0.022 A 
ATOM     11 BR   UNL     1       2.781   4.132  -0.002  0.00  0.00    -0.050 Br
BRANCH   5  12
ATOM     12  O   UNL     1      -2.392   1.060   0.019  0.00  0.00    -0.487 OA
BRANCH  12  13
ATOM     13  C   UNL     1      -2.299  -0.366   0.011  0.00  0.00    +0.264 C 
BRANCH  13  18
ATOM     14  C   UNL     1      -7.611  -2.642   0.023  0.00  0.00    +0.044 C 
ATOM     15  C   UNL     1      -6.226  -2.049   0.020  0.00  0.00    -0.050 A 
ATOM     16  C   UNL     1      -5.596  -1.769  -1.179  0.00  0.00    +0.004 A 
ATOM     17  C   UNL     1      -4.326  -1.225  -1.182  0.00  0.00    +0.007 A 
ATOM     18  C   UNL     1      -3.685  -0.960   0.014  0.00  0.00    -0.010 A 
ATOM     19  C   UNL     1      -4.312  -1.244   1.213  0.00  0.00    +0.007 A 
ATOM     20  C   UNL     1      -5.585  -1.784   1.216  0.00  0.00    +0.004 A 
ENDBRANCH  13  18
ENDBRANCH  12  13
ENDBRANCH   5  12
ENDBRANCH   4  10
ENDBRANCH   1   4
BRANCH   1  21
ATOM     21  C   UNL     1      -4.367   4.616   1.471  0.00  0.00    -0.081 C 
BRANCH  21  22
ATOM     22  C   UNL     1      -4.888   4.618   2.910  0.00  0.00    -0.008 C 
BRANCH  22  23
ATOM     23  C   UNL     1      -6.224   5.362   2.967  0.00  0.00    +0.075 C 
BRANCH  23  24
ATOM     24  S   UNL     1      -6.841   5.365   4.668  0.00  0.00    -0.084 S 
BRANCH  24  25
ATOM     25  C   UNL     1      -8.344   6.258   4.448  0.00  0.00    +0.214 A 
ATOM     26  N   UNL     1      -8.804   6.748   3.317  0.00  0.00    -0.101 NA
ATOM     27  N   UNL     1      -9.926   7.343   3.507  0.00  0.00    -0.022 NA
ATOM     28  N   UNL     1     -10.262   7.281   4.750  0.00  0.00    -0.038 NA
ATOM     29  N   UNL     1      -9.248   6.567   5.412  0.00  0.00    -0.187 N 
BRANCH  29  30
ATOM     30  C   UNL     1      -9.182   6.246   6.775  0.00  0.00    +0.070 A 
ATOM     31  C   UNL     1      -8.628   5.039   7.179  0.00  0.00    +0.028 A 
ATOM     32  C   UNL     1      -8.561   4.728   8.523  0.00  0.00    +0.002 A 
ATOM     33  C   UNL     1      -9.055   5.612   9.465  0.00  0.00    +0.000 A 
ATOM     34  C   UNL     1      -9.612   6.812   9.065  0.00  0.00    +0.002 A 
ATOM     35  C   UNL     1      -9.677   7.131   7.723  0.00  0.00    +0.028 A 
ENDBRANCH  29  30
ENDBRANCH  24  25
ENDBRANCH  23  24
ENDBRANCH  22  23
ENDBRANCH  21  22
ENDBRANCH   1  21
TORSDOF 11
