REMARK  Name = ZINC36215026
REMARK  12 active torsions:
REMARK  status: ('A' for Active; 'I' for Inactive)
REMARK    1  A    between atoms: C_1  and  C_2
REMARK    2  A    between atoms: C_6  and  C_8
REMARK    3  A    between atoms: N_10  and  C_11
REMARK    4  A    between atoms: C_11  and  C_13
REMARK    5  A    between atoms: C_11  and  C_29
REMARK    6  A    between atoms: N_16  and  S_19
REMARK    7  A    between atoms: S_19  and  C_22
REMARK    8  A    between atoms: N_31  and  C_32
REMARK    9  A    between atoms: C_32  and  C_33
REMARK   10  A    between atoms: C_33  and  C_34
REMARK   11  A    between atoms: C_34  and  O_35
REMARK   12  A    between atoms: O_35  and  C_36
REMARK                            x       y       z     vdW  Elec       q    Type
REMARK                         _______ _______ _______ _____ _____    ______ ____
ROOT
ATOM      1  C   UNL     1      -0.004  -4.880   3.737  0.00  0.00    +0.162 C 
ENDROOT
BRANCH   1   2
ATOM      2  C   UNL     1       1.179  -4.455   4.609  0.00  0.00    +0.021 C 
ATOM      3  C   UNL     1       1.060  -2.965   4.937  0.00  0.00    +0.023 C 
ATOM      4  C   UNL     1       2.227  -2.550   5.839  0.00  0.00    +0.110 C 
ATOM      5  N   UNL     1       3.488  -2.926   5.184  0.00  0.00    -0.177 NA
ATOM      6  C   UNL     1       3.669  -4.316   4.746  0.00  0.00    +0.110 C 
ATOM      7  C   UNL     1       2.486  -4.711   3.856  0.00  0.00    +0.023 C 
BRANCH   5   8
ATOM      8  S   UNL     1       4.681  -1.803   4.944  0.00  0.00    +0.061 S 
ATOM      9  O   UNL     1       5.467  -2.272   3.857  0.00  0.00    -0.153 OA
ATOM     10  O   UNL     1       4.047  -0.532   4.934  0.00  0.00    -0.153 OA
BRANCH   8  11
ATOM     11  C   UNL     1       5.720  -1.835   6.367  0.00  0.00    +0.106 A 
ATOM     12  C   UNL     1       5.442  -1.016   7.445  0.00  0.00    +0.030 A 
ATOM     13  C   UNL     1       6.256  -1.040   8.561  0.00  0.00    +0.022 A 
ATOM     14  C   UNL     1       7.351  -1.886   8.600  0.00  0.00    +0.041 A 
ATOM     15  C   UNL     1       7.629  -2.706   7.521  0.00  0.00    +0.022 A 
ATOM     16  C   UNL     1       6.810  -2.684   6.407  0.00  0.00    +0.030 A 
ATOM     17 CL   UNL     1       8.375  -1.917  10.001  0.00  0.00    -0.084 Cl
ENDBRANCH   8  11
ENDBRANCH   5   8
ENDBRANCH   1   2
BRANCH   1  20
ATOM     18  C   UNL     1      -0.687  -4.499   1.429  0.00  0.00    +0.245 C 
ATOM     19  O   UNL     1      -1.165  -5.616   1.415  0.00  0.00    -0.270 OA
ATOM     20  N   UNL     1      -0.037  -4.058   2.524  0.00  0.00    -0.300 N 
ATOM     21  H   UNL     1       0.409  -3.197   2.510  0.00  0.00    +0.150 HD
BRANCH  18  27
ATOM     22  C   UNL     1      -2.331  -3.745  -3.222  0.00  0.00    +0.044 C 
ATOM     23  C   UNL     1      -1.606  -3.257  -1.994  0.00  0.00    -0.050 A 
ATOM     24  C   UNL     1      -1.060  -1.985  -1.975  0.00  0.00    +0.003 A 
ATOM     25  C   UNL     1      -0.393  -1.529  -0.852  0.00  0.00    +0.001 A 
ATOM     26  C   UNL     1      -0.268  -2.341   0.257  0.00  0.00    +0.013 A 
ATOM     27  C   UNL     1      -0.817  -3.624   0.244  0.00  0.00    +0.037 A 
ATOM     28  C   UNL     1      -1.493  -4.076  -0.890  0.00  0.00    +0.016 A 
ENDBRANCH  18  27
ENDBRANCH   1  20
BRANCH   1  29
ATOM     29  C   UNL     1      -1.288  -4.694   4.505  0.00  0.00    +0.234 C 
ATOM     30  O   UNL     1      -1.976  -3.715   4.306  0.00  0.00    -0.274 OA
ATOM     31  N   UNL     1      -1.669  -5.614   5.412  0.00  0.00    -0.314 N 
ATOM     32  H   UNL     1      -1.119  -6.396   5.571  0.00  0.00    +0.149 HD
BRANCH  31  33
ATOM     33  C   UNL     1      -2.917  -5.433   6.159  0.00  0.00    +0.106 C 
BRANCH  33  34
ATOM     34  C   UNL     1      -3.114  -6.610   7.116  0.00  0.00    +0.047 C 
BRANCH  34  35
ATOM     35  C   UNL     1      -4.417  -6.420   7.895  0.00  0.00    +0.161 C 
BRANCH  35  36
ATOM     36  O   UNL     1      -4.601  -7.520   8.789  0.00  0.00    -0.383 OA
ATOM     37  C   UNL     1      -5.796  -7.441   9.570  0.00  0.00    +0.193 C 
ENDBRANCH  35  36
ENDBRANCH  34  35
ENDBRANCH  33  34
ENDBRANCH  31  33
ENDBRANCH   1  29
TORSDOF 10
