REMARK  Name = ZINC08915344
REMARK  5 active torsions:
REMARK  status: ('A' for Active; 'I' for Inactive)
REMARK    1  A    between atoms: C_4  and  C_7
REMARK    2  A    between atoms: C_7  and  C_9
REMARK    3  A    between atoms: C_11  and  C_23
REMARK    4  A    between atoms: C_14  and  O_22
REMARK    5  A    between atoms: C_16  and  C_17
REMARK                            x       y       z     vdW  Elec       q    Type
REMARK                         _______ _______ _______ _____ _____    ______ ____
ROOT
ATOM      1  C   UNL     1       3.561  -2.626   0.202  0.00  0.00    +0.149 C 
ATOM      2  C   UNL     1       4.901  -2.789   0.934  0.00  0.00    +0.120 C 
ATOM      3  N   UNL     1       5.866  -1.886   0.289  0.00  0.00    -0.293 N 
ATOM      4  C   UNL     1       5.876  -1.800  -1.082  0.00  0.00    +0.256 C 
ATOM      5  N   UNL     1       4.930  -2.288  -1.811  0.00  0.00    -0.306 N 
ATOM      6  C   UNL     1       3.767  -2.986  -1.271  0.00  0.00    +0.284 C 
ATOM      7  O   UNL     1       3.967  -4.396  -1.389  0.00  0.00    -0.194 OA
ATOM      8  H   UNL     1       6.484  -1.360   0.821  0.00  0.00    +0.151 HD
ATOM      9  H   UNL     1       4.995  -2.186  -2.773  0.00  0.00    +0.167 HD
ENDROOT
BRANCH   2  10
ATOM     10  C   UNL     1       4.740  -2.417   2.386  0.00  0.00    -0.025 A 
ATOM     11  C   UNL     1       4.832  -1.093   2.774  0.00  0.00    +0.007 A 
ATOM     12  C   UNL     1       4.686  -0.750   4.105  0.00  0.00    +0.022 A 
ATOM     13  C   UNL     1       4.445  -1.732   5.049  0.00  0.00    +0.059 A 
ATOM     14  C   UNL     1       4.352  -3.057   4.661  0.00  0.00    +0.060 A 
ATOM     15  C   UNL     1       4.495  -3.398   3.327  0.00  0.00    +0.027 A 
ATOM     16 CL   UNL     1       4.052  -4.291   5.845  0.00  0.00    -0.082 Cl
ATOM     17 CL   UNL     1       4.261  -1.302   6.721  0.00  0.00    -0.082 Cl
ENDBRANCH   2  10
BRANCH   6  18
ATOM     18  C   UNL     1       2.523  -2.586  -2.068  0.00  0.00    +0.441 C 
ATOM     19  F   UNL     1       2.389  -1.193  -2.055  0.00  0.00    -0.166 F 
ATOM     20  F   UNL     1       2.652  -3.029  -3.388  0.00  0.00    -0.166 F 
ATOM     21  F   UNL     1       1.391  -3.169  -1.488  0.00  0.00    -0.166 F 
ENDBRANCH   6  18
BRANCH   1  22
ATOM     22  C   UNL     1       3.091  -1.199   0.314  0.00  0.00    +0.173 C 
ATOM     23  O   UNL     1       3.764  -0.301  -0.143  0.00  0.00    -0.292 OA
BRANCH  22  27
ATOM     24  C   UNL     1      -0.591  -0.323   2.232  0.00  0.00    +0.000 A 
ATOM     25  C   UNL     1       0.227   0.710   1.807  0.00  0.00    +0.001 A 
ATOM     26  C   UNL     1       1.425   0.433   1.183  0.00  0.00    +0.011 A 
ATOM     27  C   UNL     1       1.814  -0.895   0.980  0.00  0.00    +0.018 A 
ATOM     28  C   UNL     1       0.982  -1.933   1.412  0.00  0.00    +0.011 A 
ATOM     29  C   UNL     1      -0.213  -1.640   2.034  0.00  0.00    +0.001 A 
ENDBRANCH  22  27
ENDBRANCH   1  22
BRANCH   4  30
ATOM     30  O   UNL     1       6.913  -1.183  -1.689  0.00  0.00    -0.483 OA
ATOM     31  H   UNL     1       6.849  -1.162  -2.653  0.00  0.00    +0.295 HD
ENDBRANCH   4  30
TORSDOF 5
