REMARK  Name = ZINC09015390
REMARK  3 active torsions:
REMARK  status: ('A' for Active; 'I' for Inactive)
REMARK    1  A    between atoms: C_4  and  C_7
REMARK    2  A    between atoms: C_17  and  C_19
REMARK    3  A    between atoms: C_22  and  N_25
REMARK                            x       y       z     vdW  Elec       q    Type
REMARK                         _______ _______ _______ _____ _____    ______ ____
ROOT
ATOM      1  C   UNL     1       3.699  -0.689  -0.038  0.00  0.00    +0.098 A 
ATOM      2  C   UNL     1       4.001  -1.852   0.674  0.00  0.00    +0.028 A 
ATOM      3  C   UNL     1       5.290  -2.202   0.382  0.00  0.00    +0.125 A 
ATOM      4  N   UNL     1       5.782  -1.285  -0.475  0.00  0.00    -0.263 N 
ATOM      5  H   UNL     1       6.677  -1.275  -0.849  0.00  0.00    +0.190 HD
ATOM      6  N   UNL     1       4.768  -0.349  -0.734  0.00  0.00    -0.172 NA
ATOM      7  N   UNL     1       5.886  -3.340   0.925  0.00  0.00    -0.270 N 
ATOM      8  C   UNL     1       5.102  -4.210   1.595  0.00  0.00    +0.219 C 
ATOM      9  O   UNL     1       5.623  -5.102   2.231  0.00  0.00    -0.275 OA
ATOM     10  C   UNL     1       3.603  -4.110   1.577  0.00  0.00    +0.109 C 
ATOM     11  C   UNL     1       3.143  -2.649   1.623  0.00  0.00    +0.063 C 
ATOM     12  H   UNL     1       6.837  -3.502   0.824  0.00  0.00    +0.156 HD
ENDROOT
BRANCH   1  16
ATOM     13  C   UNL     1      -0.017   1.379   0.010  0.00  0.00    +0.000 A 
ATOM     14  C   UNL     1       1.169   2.090   0.059  0.00  0.00    +0.001 A 
ATOM     15  C   UNL     1       2.377   1.424   0.043  0.00  0.00    +0.010 A 
ATOM     16  C   UNL     1       2.402   0.033  -0.021  0.00  0.00    +0.002 A 
ATOM     17  C   UNL     1       1.205  -0.679  -0.070  0.00  0.00    +0.010 A 
ATOM     18  C   UNL     1       0.002  -0.003  -0.054  0.00  0.00    +0.001 A 
ENDBRANCH   1  16
BRANCH  11  19
ATOM     19  C   UNL     1       3.300  -2.111   3.023  0.00  0.00    -0.039 A 
ATOM     20  C   UNL     1       4.544  -2.101   3.624  0.00  0.00    +0.006 A 
ATOM     21  C   UNL     1       4.688  -1.608   4.907  0.00  0.00    +0.033 A 
ATOM     22  C   UNL     1       3.587  -1.125   5.589  0.00  0.00    +0.126 A 
ATOM     23  C   UNL     1       2.342  -1.134   4.987  0.00  0.00    +0.033 A 
ATOM     24  C   UNL     1       2.199  -1.623   3.703  0.00  0.00    +0.006 A 
BRANCH  22  25
ATOM     25  N   UNL     1       3.740  -0.598   6.964  0.00  0.00    +0.056 N 
ATOM     26  O   UNL     1       4.828  -0.590   7.490  0.00  0.00    -0.126 OA
ATOM     27  O   UNL     1       2.777  -0.175   7.560  0.00  0.00    -0.126 OA
ENDBRANCH  22  25
ENDBRANCH  11  19
TORSDOF 3
