REMARK  Name = ZINC02725878
REMARK  7 active torsions:
REMARK  status: ('A' for Active; 'I' for Inactive)
REMARK    1  A    between atoms: C_7  and  C_11
REMARK    2  A    between atoms: C_11  and  C_13
REMARK    3  A    between atoms: C_13  and  O_14
REMARK    4  A    between atoms: O_14  and  C_15
REMARK    5  A    between atoms: C_15  and  C_17
REMARK    6  A    between atoms: C_21  and  S_23
REMARK    7  A    between atoms: S_23  and  N_26
REMARK                            x       y       z     vdW  Elec       q    Type
REMARK                         _______ _______ _______ _____ _____    ______ ____
ROOT
ATOM      1  C   UNL     1       0.564  -6.867  -0.039  0.00  0.00    +0.340 C 
ATOM      2  O   UNL     1       1.734  -7.192  -0.053  0.00  0.00    -0.245 OA
ENDROOT
BRANCH   1   3
ATOM      3  C   UNL     1      -0.490  -7.902  -0.034  0.00  0.00    +0.061 A 
ATOM      4  C   UNL     1      -1.837  -7.532  -0.024  0.00  0.00    +0.015 A 
ATOM      5  C   UNL     1      -2.816  -8.503  -0.019  0.00  0.00    +0.003 A 
ATOM      6  C   UNL     1      -2.466  -9.842  -0.024  0.00  0.00    +0.028 A 
ATOM      7  C   UNL     1      -1.134 -10.216  -0.033  0.00  0.00    +0.106 A 
ATOM      8  C   UNL     1      -0.145  -9.255  -0.044  0.00  0.00    +0.043 A 
BRANCH   7   9
ATOM      9  S   UNL     1      -0.700 -11.924  -0.038  0.00  0.00    +0.061 S 
ATOM     10  O   UNL     1       0.611 -12.011   0.504  0.00  0.00    -0.153 OA
ATOM     11  O   UNL     1      -1.803 -12.625   0.519  0.00  0.00    -0.153 OA
BRANCH   9  12
ATOM     12  N   UNL     1      -0.590 -12.396  -1.621  0.00  0.00    -0.177 NA
ATOM     13  C   UNL     1      -1.776 -12.901  -2.278  0.00  0.00    +0.109 C 
ATOM     14  C   UNL     1      -1.872 -14.433  -2.071  0.00  0.00    +0.017 C 
ATOM     15  C   UNL     1      -0.840 -15.121  -2.862  0.00  0.00    +0.001 C 
ATOM     16  C   UNL     1       0.592 -14.775  -2.465  0.00  0.00    +0.001 C 
ATOM     17  C   UNL     1       1.018 -13.516  -3.177  0.00  0.00    +0.017 C 
ATOM     18  C   UNL     1       0.712 -12.279  -2.306  0.00  0.00    +0.109 C 
ENDBRANCH   9  12
ENDBRANCH   7   9
ENDBRANCH   1   3
BRANCH   1  19
ATOM     19  O   UNL     1       0.227  -5.562  -0.029  0.00  0.00    -0.453 OA
BRANCH  19  20
ATOM     20  C   UNL     1       1.298  -4.616  -0.035  0.00  0.00    +0.312 C 
BRANCH  20  21
ATOM     21  C   UNL     1       0.733  -3.219  -0.022  0.00  0.00    +0.202 C 
ATOM     22  O   UNL     1      -0.469  -3.050  -0.008  0.00  0.00    -0.288 OA
BRANCH  21  29
ATOM     23  C   UNL     1      -0.017   1.374   0.010  0.00  0.00    +0.001 A 
ATOM     24  C   UNL     1       1.172   2.089   0.002  0.00  0.00    +0.002 A 
ATOM     25  C   UNL     1       2.385   1.436  -0.013  0.00  0.00    +0.026 A 
ATOM     26  C   UNL     1       2.424   0.045  -0.021  0.00  0.00    +0.047 A 
ATOM     27  C   UNL     1       1.221  -0.677  -0.013  0.00  0.00    +0.010 A 
ATOM     28  C   UNL     1       0.002  -0.004   0.002  0.00  0.00    +0.011 A 
ATOM     29  C   UNL     1       1.605  -2.102  -0.025  0.00  0.00    +0.046 A 
ATOM     30  C   UNL     1       2.983  -2.128  -0.039  0.00  0.00    +0.095 A 
ATOM     31  N   UNL     1       3.459  -0.868  -0.036  0.00  0.00    -0.360 N 
ATOM     32  H   UNL     1       4.401  -0.634  -0.045  0.00  0.00    +0.165 HD
ENDBRANCH  21  29
ENDBRANCH  20  21
ENDBRANCH  19  20
ENDBRANCH   1  19
TORSDOF 7
