REMARK  Name = ZINC38740764
REMARK  8 active torsions:
REMARK  status: ('A' for Active; 'I' for Inactive)
REMARK    1  A    between atoms: C_1  and  C_2
REMARK    2  A    between atoms: C_2  and  C_4
REMARK    3  A    between atoms: C_2  and  N_18
REMARK    4  A    between atoms: C_4  and  C_5
REMARK    5  A    between atoms: C_4  and  C_11
REMARK    6  A    between atoms: C_4  and  O_17
REMARK    7  A    between atoms: C_19  and  C_21
REMARK    8  A    between atoms: C_27  and  C_29
REMARK                            x       y       z     vdW  Elec       q    Type
REMARK                         _______ _______ _______ _____ _____    ______ ____
ROOT
ATOM      1  N   UNL     1       0.726  -0.409   1.184  0.00  0.00    -0.309 N 
ATOM      2  C   UNL     1       0.060  -0.573   2.344  0.00  0.00    +0.217 C 
ATOM      3  O   UNL     1      -1.119  -0.295   2.411  0.00  0.00    -0.275 OA
ATOM      4  H   UNL     1       1.669  -0.632   1.130  0.00  0.00    +0.149 HD
ENDROOT
BRANCH   2   5
ATOM      5  C   UNL     1       0.779  -1.103   3.558  0.00  0.00    +0.091 C 
ATOM      6  C   UNL     1       1.331  -2.499   3.260  0.00  0.00    +0.040 C 
ATOM      7  C   UNL     1       1.813  -3.145   4.526  0.00  0.00    -0.030 C 
ATOM      8  C   UNL     1       1.487  -2.746   5.713  0.00  0.00    -0.030 C 
ATOM      9  C   UNL     1       0.588  -1.577   5.990  0.00  0.00    +0.040 C 
ATOM     10  C   UNL     1      -0.200  -1.204   4.734  0.00  0.00    +0.091 C 
BRANCH  10  11
ATOM     11  C   UNL     1      -0.887   0.121   4.937  0.00  0.00    +0.220 C 
ATOM     12  O   UNL     1      -0.285   1.154   4.732  0.00  0.00    -0.275 OA
ATOM     13  N   UNL     1      -2.171   0.160   5.345  0.00  0.00    -0.298 N 
ATOM     14  C   UNL     1      -2.874  -1.075   5.719  0.00  0.00    +0.126 C 
ATOM     15  C   UNL     1      -3.428  -0.913   7.140  0.00  0.00    +0.125 C 
ATOM     16  N   UNL     1      -4.150   0.365   7.220  0.00  0.00    -0.314 N 
ATOM     17  C   UNL     1      -3.446   1.600   6.846  0.00  0.00    +0.125 C 
ATOM     18  C   UNL     1      -2.891   1.438   5.430  0.00  0.00    +0.126 C 
ATOM     19  C   UNL     1      -5.474   0.404   7.641  0.00  0.00    +0.099 A 
ATOM     20  C   UNL     1      -6.084  -0.757   8.106  0.00  0.00    +0.042 A 
ATOM     21  C   UNL     1      -7.402  -0.703   8.522  0.00  0.00    +0.005 A 
ATOM     22  C   UNL     1      -8.068   0.514   8.459  0.00  0.00    +0.018 A 
ATOM     23  C   UNL     1      -7.401   1.626   7.987  0.00  0.00    +0.084 A 
ATOM     24  N   UNL     1      -6.141   1.547   7.602  0.00  0.00    -0.350 N 
ATOM     25  H   UNL     1      -5.694   2.345   7.278  0.00  0.00    +0.166 HD
ENDBRANCH  10  11
ENDBRANCH   2   5
BRANCH   1  27
ATOM     26  C   UNL     1       0.017   1.635   0.045  0.00  0.00    +0.031 C 
ATOM     27  C   UNL     1       0.027   0.106   0.004  0.00  0.00    +0.110 C 
BRANCH  27  28
ATOM     28  C   UNL     1       0.747  -0.366  -1.261  0.00  0.00    +0.134 C 
BRANCH  28  29
ATOM     29  C   UNL     1       0.757  -1.872  -1.301  0.00  0.00    -0.010 A 
ATOM     30  C   UNL     1      -0.275  -2.586  -0.722  0.00  0.00    +0.007 A 
ATOM     31  C   UNL     1      -0.265  -3.968  -0.759  0.00  0.00    +0.000 A 
ATOM     32  C   UNL     1       0.776  -4.636  -1.375  0.00  0.00    +0.000 A 
ATOM     33  C   UNL     1       1.808  -3.922  -1.955  0.00  0.00    +0.000 A 
ATOM     34  C   UNL     1       1.796  -2.540  -1.922  0.00  0.00    +0.007 A 
ENDBRANCH  28  29
BRANCH  28  35
ATOM     35  C   UNL     1       0.028   0.164  -2.475  0.00  0.00    -0.010 A 
ATOM     36  C   UNL     1      -1.335   0.389  -2.428  0.00  0.00    +0.007 A 
ATOM     37  C   UNL     1      -1.995   0.875  -3.541  0.00  0.00    +0.000 A 
ATOM     38  C   UNL     1      -1.292   1.136  -4.702  0.00  0.00    +0.000 A 
ATOM     39  C   UNL     1       0.072   0.912  -4.749  0.00  0.00    +0.000 A 
ATOM     40  C   UNL     1       0.732   0.430  -3.634  0.00  0.00    +0.007 A 
ENDBRANCH  28  35
BRANCH  28  41
ATOM     41  O   UNL     1       2.091   0.120  -1.254  0.00  0.00    -0.377 OA
ATOM     42  H   UNL     1       2.614  -0.182  -0.499  0.00  0.00    +0.211 HD
ENDBRANCH  28  41
ENDBRANCH  27  28
ENDBRANCH   1  27
TORSDOF 7
