REMARK  Name = ZINC09926789
REMARK  6 active torsions:
REMARK  status: ('A' for Active; 'I' for Inactive)
REMARK    1  A    between atoms: C_1  and  C_2
REMARK    2  A    between atoms: C_2  and  O_3
REMARK    3  A    between atoms: O_3  and  C_4
REMARK    4  A    between atoms: C_4  and  C_6
REMARK    5  A    between atoms: C_7  and  N_33
REMARK    6  A    between atoms: C_25  and  C_28
REMARK                            x       y       z     vdW  Elec       q    Type
REMARK                         _______ _______ _______ _____ _____    ______ ____
ROOT
ATOM      1  C   UNL     1      -1.263   3.842  -1.189  0.00  0.00    +0.117 C 
ATOM      2  C   UNL     1      -1.575   5.165  -1.131  0.00  0.00    +0.195 C 
ATOM      3  O   UNL     1      -1.576   5.829   0.034  0.00  0.00    -0.446 OA
ATOM      4  C   UNL     1      -1.699   5.158   1.194  0.00  0.00    +0.116 C 
ATOM      5  C   UNL     1      -1.395   3.849   1.281  0.00  0.00    +0.057 C 
ATOM      6  C   UNL     1      -0.920   3.095   0.066  0.00  0.00    +0.141 C 
ATOM      7  C   UNL     1       0.551   2.830   0.150  0.00  0.00    -0.001 A 
ATOM      8  C   UNL     1       1.630   3.686   0.204  0.00  0.00    +0.022 A 
ATOM      9  C   UNL     1       2.892   3.105   0.278  0.00  0.00    +0.018 A 
ATOM     10  C   UNL     1       3.052   1.733   0.297  0.00  0.00    +0.017 A 
ATOM     11  C   UNL     1       1.971   0.868   0.243  0.00  0.00    +0.025 A 
ATOM     12  C   UNL     1       0.699   1.438   0.168  0.00  0.00    +0.038 A 
ATOM     13  N   UNL     1      -0.538   0.822   0.102  0.00  0.00    -0.284 N 
ATOM     14  C   UNL     1      -1.546   1.717   0.035  0.00  0.00    +0.237 C 
ATOM     15  O   UNL     1      -2.731   1.464  -0.036  0.00  0.00    -0.274 OA
ATOM     16 BR   UNL     1       4.420   4.216   0.356  0.00  0.00    -0.050 Br
ATOM     17  C   UNL     1      -1.511   3.150   2.498  0.00  0.00    +0.165 C 
ATOM     18  O   UNL     1      -1.243   1.966   2.534  0.00  0.00    -0.292 OA
ATOM     19  C   UNL     1      -1.960   3.844   3.756  0.00  0.00    +0.091 C 
ATOM     20  C   UNL     1      -1.572   5.324   3.671  0.00  0.00    +0.070 C 
ATOM     21  C   UNL     1      -2.193   5.915   2.404  0.00  0.00    +0.086 C 
ATOM     22  H   UNL     1      -0.666  -0.139   0.101  0.00  0.00    +0.155 HD
ENDROOT
BRANCH  20  23
ATOM     23  C   UNL     1      -2.096   6.055   4.880  0.00  0.00    +0.109 A 
ATOM     24  C   UNL     1      -1.353   6.734   5.773  0.00  0.00    +0.045 A 
ATOM     25  C   UNL     1      -2.245   7.257   6.736  0.00  0.00    +0.041 A 
ATOM     26  C   UNL     1      -3.481   6.867   6.375  0.00  0.00    +0.195 A 
ATOM     27  O   UNL     1      -3.385   6.144   5.247  0.00  0.00    -0.468 OA
ENDBRANCH  20  23
BRANCH   2  28
ATOM     28  N   UNL     1      -1.893   5.831  -2.284  0.00  0.00    -0.329 N 
ATOM     29  H   UNL     1      -2.198   6.751  -2.244  0.00  0.00    +0.145 HD
ATOM     30  H   UNL     1      -1.813   5.383  -3.141  0.00  0.00    +0.145 HD
ENDBRANCH   2  28
BRANCH   1  31
ATOM     31  C   UNL     1      -1.264   3.176  -2.424  0.00  0.00    +0.342 C 
ATOM     32  O   UNL     1      -0.212   2.952  -2.996  0.00  0.00    -0.245 OA
BRANCH  31  33
ATOM     33  O   UNL     1      -2.431   2.783  -2.978  0.00  0.00    -0.462 OA
BRANCH  33  35
ATOM     34  C   UNL     1      -3.768   1.744  -4.703  0.00  0.00    +0.048 C 
ATOM     35  C   UNL     1      -2.358   2.110  -4.237  0.00  0.00    +0.229 C 
ENDBRANCH  33  35
ENDBRANCH  31  33
ENDBRANCH   1  31
TORSDOF 5
