REMARK  Name = ZINC39654237
REMARK  8 active torsions:
REMARK  status: ('A' for Active; 'I' for Inactive)
REMARK    1  A    between atoms: C_1  and  C_2
REMARK    2  A    between atoms: C_2  and  C_3
REMARK    3  A    between atoms: C_6  and  C_9
REMARK    4  A    between atoms: C_9  and  C_10
REMARK    5  A    between atoms: C_10  and  N_11
REMARK    6  A    between atoms: C_12  and  C_14
REMARK    7  A    between atoms: C_25  and  C_27
REMARK    8  A    between atoms: C_32  and  C_33
REMARK                            x       y       z     vdW  Elec       q    Type
REMARK                         _______ _______ _______ _____ _____    ______ ____
ROOT
ATOM      1  C   UNL     1      -9.811  -0.437   0.219  0.00  0.00    +0.100 C 
ATOM      2  C   UNL     1     -10.110  -1.530   1.270  0.00  0.00    +0.121 C 
ATOM      3  N   UNL     1     -10.880  -0.832   2.326  0.00  0.00    -0.296 N 
ATOM      4  C   UNL     1     -11.775   0.087   1.583  0.00  0.00    +0.115 C 
ATOM      5  C   UNL     1     -10.908   0.620   0.425  0.00  0.00    -0.004 C 
ATOM      6  C   UNL     1     -11.748   0.764  -0.840  0.00  0.00    -0.010 C 
ATOM      7  C   UNL     1     -12.795   1.862  -0.631  0.00  0.00    -0.082 C 
ATOM      8  N   UNL     1     -12.122   3.129  -0.319  0.00  0.00    +0.379 N 
ATOM      9  C   UNL     1     -11.392   3.009   0.949  0.00  0.00    -0.082 C 
ATOM     10  C   UNL     1     -10.286   1.960   0.806  0.00  0.00    -0.010 C 
ATOM     11  C   UNL     1     -10.788  -0.996   3.661  0.00  0.00    +0.247 C 
ATOM     12  O   UNL     1     -11.563  -0.420   4.399  0.00  0.00    -0.270 OA
ATOM     13  H   UNL     1     -11.474   3.355  -1.059  0.00  0.00    -0.086 HD
ATOM     14  H   UNL     1     -12.810   3.863  -0.242  0.00  0.00    -0.086 HD
ENDROOT
BRANCH  11  15
ATOM     15  C   UNL     1      -9.745  -1.877   4.227  0.00  0.00    +0.049 A 
ATOM     16  C   UNL     1      -9.386  -3.054   3.566  0.00  0.00    +0.013 A 
ATOM     17  C   UNL     1      -8.412  -3.871   4.100  0.00  0.00    +0.001 A 
ATOM     18  C   UNL     1      -7.790  -3.528   5.287  0.00  0.00    +0.001 A 
ATOM     19  C   UNL     1      -8.141  -2.364   5.947  0.00  0.00    +0.013 A 
ATOM     20  C   UNL     1      -9.110  -1.534   5.422  0.00  0.00    +0.067 A 
BRANCH  20  21
ATOM     21  C   UNL     1      -9.487  -0.264   6.139  0.00  0.00    +0.418 C 
ATOM     22  F   UNL     1      -8.720  -0.140   7.302  0.00  0.00    -0.166 F 
ATOM     23  F   UNL     1      -9.247   0.832   5.303  0.00  0.00    -0.166 F 
ATOM     24  F   UNL     1     -10.844  -0.304   6.478  0.00  0.00    -0.166 F 
ENDBRANCH  20  21
ENDBRANCH  11  15
BRANCH   1  26
ATOM     25  N   UNL     1      -7.758   0.697  -0.567  0.00  0.00    -0.315 N 
ATOM     26  C   UNL     1      -8.450   0.164   0.459  0.00  0.00    +0.218 C 
ATOM     27  O   UNL     1      -7.978   0.169   1.577  0.00  0.00    -0.275 OA
ATOM     28  H   UNL     1      -8.136   0.693  -1.460  0.00  0.00    +0.149 HD
BRANCH  25  29
ATOM     29  C   UNL     1      -6.435   1.282  -0.333  0.00  0.00    +0.109 C 
BRANCH  29  30
ATOM     30  C   UNL     1      -5.871   1.812  -1.653  0.00  0.00    +0.054 C 
BRANCH  30  34
ATOM     31  C   UNL     1      -2.015   3.518  -0.973  0.00  0.00    -0.048 A 
ATOM     32  C   UNL     1      -2.131   2.178  -1.292  0.00  0.00    +0.004 A 
ATOM     33  C   UNL     1      -3.379   1.626  -1.512  0.00  0.00    +0.004 A 
ATOM     34  C   UNL     1      -4.511   2.414  -1.412  0.00  0.00    -0.046 A 
ATOM     35  C   UNL     1      -4.394   3.753  -1.093  0.00  0.00    +0.004 A 
ATOM     36  C   UNL     1      -3.147   4.305  -0.869  0.00  0.00    +0.004 A 
BRANCH  31  38
ATOM     37  C   UNL     1      -0.294   3.994   0.748  0.00  0.00    +0.009 C 
ATOM     38  C   UNL     1      -0.654   4.120  -0.734  0.00  0.00    +0.032 C 
ENDBRANCH  31  38
ENDBRANCH  30  34
ENDBRANCH  29  30
ENDBRANCH  25  29
ENDBRANCH   1  26
TORSDOF 7
