REMARK  Name = ZINC04427000
REMARK  11 active torsions:
REMARK  status: ('A' for Active; 'I' for Inactive)
REMARK    1  A    between atoms: C_1  and  C_2
REMARK    2  A    between atoms: C_2  and  C_3
REMARK    3  A    between atoms: C_2  and  C_4
REMARK    4  A    between atoms: C_2  and  C_5
REMARK    5  A    between atoms: C_8  and  C_11
REMARK    6  A    between atoms: C_14  and  C_25
REMARK    7  A    between atoms: C_20  and  N_24
REMARK    8  A    between atoms: C_21  and  C_22
REMARK    9  A    between atoms: C_25  and  C_26
REMARK   10  A    between atoms: C_25  and  C_27
REMARK   11  A    between atoms: C_25  and  C_28
REMARK                            x       y       z     vdW  Elec       q    Type
REMARK                         _______ _______ _______ _____ _____    ______ ____
ROOT
ATOM      1  C   UNL     1       3.396  -0.478  -4.742  0.00  0.00    +0.101 C 
ATOM      2  C   UNL     1       3.307  -0.036  -6.180  0.00  0.00    +0.050 A 
ATOM      3  C   UNL     1       2.183   0.168  -6.969  0.00  0.00    +0.076 A 
ATOM      4  N   UNL     1       2.585   0.552  -8.158  0.00  0.00    -0.175 NA
ATOM      5  N   UNL     1       3.987   0.603  -8.157  0.00  0.00    -0.246 N 
ATOM      6  H   UNL     1       4.550   0.857  -8.906  0.00  0.00    +0.192 HD
ATOM      7  C   UNL     1       4.412   0.239  -6.937  0.00  0.00    +0.222 A 
ATOM      8  O   UNL     1       5.675   0.133  -6.455  0.00  0.00    -0.423 OA
ATOM      9  C   UNL     1       5.844  -0.516  -5.284  0.00  0.00    +0.200 C 
ATOM     10  C   UNL     1       4.832  -0.831  -4.445  0.00  0.00    +0.098 C 
ENDROOT
BRANCH   1  14
ATOM     11  C   UNL     1       2.135   2.697  -2.177  0.00  0.00    -0.042 A 
ATOM     12  C   UNL     1       1.696   1.406  -1.947  0.00  0.00    +0.004 A 
ATOM     13  C   UNL     1       2.104   0.379  -2.777  0.00  0.00    +0.005 A 
ATOM     14  C   UNL     1       2.950   0.642  -3.838  0.00  0.00    -0.035 A 
ATOM     15  C   UNL     1       3.389   1.933  -4.068  0.00  0.00    +0.005 A 
ATOM     16  C   UNL     1       2.977   2.961  -3.241  0.00  0.00    +0.004 A 
BRANCH  11  18
ATOM     17  C   UNL     1       0.934   4.864  -2.091  0.00  0.00    +0.015 C 
ATOM     18  C   UNL     1       1.690   3.817  -1.272  0.00  0.00    -0.013 C 
ATOM     19  C   UNL     1       2.915   4.464  -0.622  0.00  0.00    +0.015 C 
ATOM     20  C   UNL     1       0.770   3.258  -0.184  0.00  0.00    +0.015 C 
ENDBRANCH  11  18
ENDBRANCH   1  14
BRANCH   3  21
ATOM     21  C   UNL     1       0.752  -0.020  -6.536  0.00  0.00    +0.007 C 
ATOM     22  C   UNL     1       0.398   1.026  -5.478  0.00  0.00    +0.017 C 
ATOM     23  C   UNL     1      -0.172   0.143  -7.745  0.00  0.00    +0.017 C 
ATOM     24  C   UNL     1       0.578  -1.421  -5.947  0.00  0.00    +0.017 C 
ENDBRANCH   3  21
BRANCH   9  25
ATOM     25  N   UNL     1       7.119  -0.877  -4.924  0.00  0.00    -0.328 N 
ATOM     26  H   UNL     1       7.866  -0.664  -5.505  0.00  0.00    +0.145 HD
ATOM     27  H   UNL     1       7.272  -1.345  -4.088  0.00  0.00    +0.145 HD
ENDBRANCH   9  25
BRANCH  10  28
ATOM     28  C   UNL     1       5.133  -1.527  -3.230  0.00  0.00    +0.101 C 
ATOM     29  N   UNL     1       5.373  -2.079  -2.266  0.00  0.00    -0.191 NA
ENDBRANCH  10  28
TORSDOF 5
