REMARK  Name = ZINC24225593
REMARK  9 active torsions:
REMARK  status: ('A' for Active; 'I' for Inactive)
REMARK    1  A    between atoms: C_1  and  C_2
REMARK    2  A    between atoms: C_2  and  C_4
REMARK    3  A    between atoms: C_2  and  S_18
REMARK    4  A    between atoms: C_4  and  C_6
REMARK    5  A    between atoms: C_6  and  C_16
REMARK    6  A    between atoms: S_18  and  C_19
REMARK    7  A    between atoms: C_22  and  C_31
REMARK    8  A    between atoms: N_23  and  C_24
REMARK    9  A    between atoms: C_24  and  C_25
REMARK                            x       y       z     vdW  Elec       q    Type
REMARK                         _______ _______ _______ _____ _____    ______ ____
ROOT
ATOM      1  S   UNL     1      -2.318  -1.931   1.882  0.00  0.00    -0.075 S 
ENDROOT
BRANCH   1   2
ATOM      2  C   UNL     1      -2.950  -0.327   2.243  0.00  0.00    +0.193 A 
ATOM      3  N   UNL     1      -3.004   0.241   3.427  0.00  0.00    -0.122 NA
ATOM      4  N   UNL     1      -3.529   1.410   3.333  0.00  0.00    -0.128 NA
ATOM      5  C   UNL     1      -3.838   1.663   2.082  0.00  0.00    +0.165 A 
ATOM      6  N   UNL     1      -3.473   0.560   1.345  0.00  0.00    -0.298 N 
BRANCH   5   7
ATOM      7  C   UNL     1      -4.460   2.900   1.563  0.00  0.00    +0.019 A 
ATOM      8  C   UNL     1      -4.041   3.437   0.345  0.00  0.00    +0.014 A 
ATOM      9  C   UNL     1      -4.628   4.588  -0.137  0.00  0.00    +0.039 A 
ATOM     10  C   UNL     1      -5.625   5.217   0.591  0.00  0.00    +0.123 A 
ATOM     11  C   UNL     1      -6.042   4.691   1.804  0.00  0.00    +0.039 A 
ATOM     12  C   UNL     1      -5.465   3.537   2.292  0.00  0.00    +0.014 A 
ATOM     13  F   UNL     1      -6.194   6.347   0.117  0.00  0.00    -0.205 F 
ENDBRANCH   5   7
BRANCH   6  14
ATOM     14  C   UNL     1      -3.621   0.372  -0.100  0.00  0.00    +0.161 C 
BRANCH  14  15
ATOM     15  C   UNL     1      -5.031  -0.063  -0.408  0.00  0.00    -0.028 A 
ATOM     16  C   UNL     1      -6.043   0.875  -0.484  0.00  0.00    +0.005 A 
ATOM     17  C   UNL     1      -7.335   0.477  -0.773  0.00  0.00    +0.000 A 
ATOM     18  C   UNL     1      -7.615  -0.861  -0.980  0.00  0.00    +0.000 A 
ATOM     19  C   UNL     1      -6.604  -1.800  -0.899  0.00  0.00    +0.000 A 
ATOM     20  C   UNL     1      -5.312  -1.401  -0.611  0.00  0.00    +0.005 A 
ENDBRANCH  14  15
ENDBRANCH   6  14
ENDBRANCH   1   2
BRANCH   1  22
ATOM     21  C   UNL     1      -3.072  -2.585   4.425  0.00  0.00    +0.028 C 
ATOM     22  C   UNL     1      -1.829  -2.458   3.542  0.00  0.00    +0.123 C 
BRANCH  22  23
ATOM     23  C   UNL     1      -1.132  -3.792   3.461  0.00  0.00    +0.189 C 
ATOM     24  O   UNL     1      -1.360  -4.541   2.531  0.00  0.00    -0.290 OA
BRANCH  23  25
ATOM     25  C   UNL     1      -0.220  -4.170   4.461  0.00  0.00    +0.131 C 
ATOM     26  C   UNL     1       0.430  -5.415   4.385  0.00  0.00    +0.114 C 
ATOM     27  N   UNL     1       0.255  -6.335   3.402  0.00  0.00    -0.300 N 
ATOM     28  C   UNL     1       1.070  -7.427   3.677  0.00  0.00    +0.054 A 
ATOM     29  C   UNL     1       1.292  -8.632   3.024  0.00  0.00    +0.025 A 
ATOM     30  C   UNL     1       2.179  -9.548   3.554  0.00  0.00    +0.002 A 
ATOM     31  C   UNL     1       2.848  -9.270   4.734  0.00  0.00    +0.002 A 
ATOM     32  C   UNL     1       2.634  -8.075   5.391  0.00  0.00    +0.025 A 
ATOM     33  C   UNL     1       1.745  -7.147   4.867  0.00  0.00    +0.054 A 
ATOM     34  N   UNL     1       1.329  -5.889   5.287  0.00  0.00    -0.300 N 
ATOM     35  H   UNL     1      -0.446  -6.133   2.578  0.00  0.00    +0.153 HD
ATOM     36  H   UNL     1       1.600  -5.283   6.164  0.00  0.00    +0.153 HD
BRANCH  25  37
ATOM     37  C   UNL     1       0.049  -3.288   5.556  0.00  0.00    +0.106 C 
ATOM     38  N   UNL     1       0.261  -2.588   6.426  0.00  0.00    -0.191 NA
ENDBRANCH  25  37
ENDBRANCH  23  25
ENDBRANCH  22  23
ENDBRANCH   1  22
TORSDOF 8
