REMARK  Name = ZINC10784654
REMARK  7 active torsions:
REMARK  status: ('A' for Active; 'I' for Inactive)
REMARK    1  A    between atoms: C_1  and  C_2
REMARK    2  A    between atoms: C_5  and  C_8
REMARK    3  A    between atoms: C_11  and  S_14
REMARK    4  A    between atoms: N_12  and  N_13
REMARK    5  A    between atoms: S_14  and  C_15
REMARK    6  A    between atoms: C_15  and  C_16
REMARK    7  A    between atoms: N_21  and  C_22
REMARK                            x       y       z     vdW  Elec       q    Type
REMARK                         _______ _______ _______ _____ _____    ______ ____
ROOT
ATOM      1  C   UNL     1      -7.059   0.166   2.101  0.00  0.00    +0.231 C 
ATOM      2  O   UNL     1      -6.540   0.849   2.958  0.00  0.00    -0.274 OA
ATOM      3  N   UNL     1      -6.305  -0.376   1.124  0.00  0.00    -0.239 N 
ATOM      4  C   UNL     1      -4.975  -0.159   1.100  0.00  0.00    +0.306 C 
ATOM      5  O   UNL     1      -4.455   0.525   1.960  0.00  0.00    -0.252 OA
ATOM      6  N   UNL     1      -4.221  -0.701   0.123  0.00  0.00    -0.294 N 
ATOM      7  H   UNL     1      -6.719  -0.921   0.438  0.00  0.00    +0.159 HD
ATOM      8  H   UNL     1      -4.635  -1.247  -0.563  0.00  0.00    +0.151 HD
ENDROOT
BRANCH   6   9
ATOM      9  C   UNL     1      -2.775  -0.465   0.098  0.00  0.00    +0.037 C 
ATOM     10  C   UNL     1      -2.162  -1.187  -1.104  0.00  0.00    +0.029 C 
ATOM     11  C   UNL     1      -0.652  -0.941  -1.130  0.00  0.00    -0.008 C 
ATOM     12  C   UNL     1      -0.025  -1.475   0.159  0.00  0.00    +0.007 C 
ATOM     13  C   UNL     1      -0.639  -0.753   1.361  0.00  0.00    -0.008 C 
ATOM     14  C   UNL     1      -2.148  -0.999   1.388  0.00  0.00    +0.029 C 
ATOM     15  C   UNL     1      -0.368   0.749   1.246  0.00  0.00    +0.007 C 
ATOM     16  C   UNL     1      -0.995   1.282  -0.043  0.00  0.00    -0.008 C 
ATOM     17  C   UNL     1      -0.382   0.561  -1.245  0.00  0.00    +0.007 C 
ATOM     18  C   UNL     1      -2.505   1.036  -0.017  0.00  0.00    +0.029 C 
ENDBRANCH   6   9
BRANCH   1  19
ATOM     19  C   UNL     1      -8.546  -0.076   2.127  0.00  0.00    +0.173 C 
BRANCH  19  20
ATOM     20  S   UNL     1      -9.271   0.778   3.549  0.00  0.00    -0.075 S 
BRANCH  20  24
ATOM     21  C   UNL     1     -13.125   0.133   3.591  0.00  0.00    +0.182 A 
ATOM     22  N   UNL     1     -12.733  -0.531   2.528  0.00  0.00    -0.127 NA
ATOM     23  N   UNL     1     -11.463  -0.407   2.377  0.00  0.00    -0.121 NA
ATOM     24  C   UNL     1     -10.964   0.337   3.339  0.00  0.00    +0.209 A 
ATOM     25  N   UNL     1     -12.004   0.709   4.143  0.00  0.00    -0.224 N 
BRANCH  21  30
ATOM     26  C   UNL     1     -18.513   0.555   5.566  0.00  0.00    +0.044 C 
ATOM     27  C   UNL     1     -17.102   0.445   5.049  0.00  0.00    -0.050 A 
ATOM     28  C   UNL     1     -16.139   1.341   5.478  0.00  0.00    +0.004 A 
ATOM     29  C   UNL     1     -14.845   1.245   5.008  0.00  0.00    +0.012 A 
ATOM     30  C   UNL     1     -14.509   0.241   4.098  0.00  0.00    +0.021 A 
ATOM     31  C   UNL     1     -15.486  -0.656   3.666  0.00  0.00    +0.012 A 
ATOM     32  C   UNL     1     -16.775  -0.553   4.147  0.00  0.00    +0.004 A 
ENDBRANCH  21  30
BRANCH  25  33
ATOM     33  N   UNL     1     -11.943   1.491   5.261  0.00  0.00    -0.295 N 
ATOM     34  H   UNL     1     -12.152   2.453   5.042  0.00  0.00    +0.163 HD
ATOM     35  H   UNL     1     -12.560   1.142   5.980  0.00  0.00    +0.163 HD
ENDBRANCH  25  33
ENDBRANCH  20  24
ENDBRANCH  19  20
ENDBRANCH   1  19
TORSDOF 6
