REMARK  Name = ZINC18157502
REMARK  3 active torsions:
REMARK  status: ('A' for Active; 'I' for Inactive)
REMARK    1  A    between atoms: C_6  and  N_7
REMARK    2  A    between atoms: C_8  and  C_11
REMARK    3  A    between atoms: N_9  and  O_10
REMARK                            x       y       z     vdW  Elec       q    Type
REMARK                         _______ _______ _______ _____ _____    ______ ____
ROOT
ATOM      1  N   UNL     1      -1.267  -0.719  -0.142  0.00  0.00    -0.295 N 
ATOM      2  C   UNL     1      -1.182  -2.102  -0.103  0.00  0.00    +0.194 C 
ATOM      3  N   UNL     1      -2.136  -2.797   0.442  0.00  0.00    -0.069 NA
ATOM      4  H   UNL     1      -2.135  -0.287  -0.159  0.00  0.00    +0.154 HD
ENDROOT
BRANCH   2   5
ATOM      5  C   UNL     1      -0.004  -2.788  -0.683  0.00  0.00    +0.191 A 
ATOM      6  C   UNL     1       0.180  -4.240  -0.788  0.00  0.00    +0.191 A 
ATOM      7  N   UNL     1       1.335  -4.467  -1.352  0.00  0.00    -0.033 NA
ATOM      8  O   UNL     1       1.937  -3.216  -1.632  0.00  0.00    -0.240 OA
ATOM      9  N   UNL     1       1.048  -2.204  -1.194  0.00  0.00    -0.044 NA
ATOM     10  N   UNL     1      -0.720  -5.207  -0.360  0.00  0.00    -0.339 N 
ATOM     11  H   UNL     1      -1.558  -4.942   0.051  0.00  0.00    +0.144 HD
ATOM     12  H   UNL     1      -0.511  -6.148  -0.472  0.00  0.00    +0.144 HD
ENDBRANCH   2   5
BRANCH   1  18
ATOM     13  C   UNL     1      -0.097   1.292  -0.785  0.00  0.00    +0.024 A 
ATOM     14  C   UNL     1       1.056   2.053  -0.799  0.00  0.00    +0.017 A 
ATOM     15  C   UNL     1       2.205   1.581  -0.189  0.00  0.00    +0.018 A 
ATOM     16  C   UNL     1       2.203   0.347   0.437  0.00  0.00    +0.017 A 
ATOM     17  C   UNL     1       1.053  -0.418   0.454  0.00  0.00    +0.024 A 
ATOM     18  C   UNL     1      -0.102   0.053  -0.158  0.00  0.00    +0.033 A 
ATOM     19 BR   UNL     1       3.781   2.626  -0.209  0.00  0.00    -0.050 Br
ENDBRANCH   1  18
BRANCH   3  20
ATOM     20  O   UNL     1      -3.318  -2.154   0.882  0.00  0.00    -0.408 OA
ATOM     21  H   UNL     1      -3.936  -2.739   1.341  0.00  0.00    +0.328 HD
ENDBRANCH   3  20
TORSDOF 3
