REMARK  Name = ZINC02454004
REMARK  7 active torsions:
REMARK  status: ('A' for Active; 'I' for Inactive)
REMARK    1  A    between atoms: C_4  and  C_7
REMARK    2  A    between atoms: C_10  and  S_18
REMARK    3  A    between atoms: N_11  and  C_12
REMARK    4  A    between atoms: C_12  and  C_13
REMARK    5  A    between atoms: S_18  and  C_19
REMARK    6  A    between atoms: C_19  and  C_20
REMARK    7  A    between atoms: N_22  and  C_23
REMARK                            x       y       z     vdW  Elec       q    Type
REMARK                         _______ _______ _______ _____ _____    ______ ____
ROOT
ATOM      1  C   UNL     1      10.205  -3.798   6.250  0.00  0.00    +0.165 A 
ATOM      2  N   UNL     1      10.436  -2.556   5.893  0.00  0.00    -0.128 NA
ATOM      3  N   UNL     1       9.558  -2.176   5.035  0.00  0.00    -0.122 NA
ATOM      4  C   UNL     1       8.708  -3.149   4.797  0.00  0.00    +0.193 A 
ATOM      5  N   UNL     1       9.091  -4.216   5.559  0.00  0.00    -0.295 N 
ENDROOT
BRANCH   1   9
ATOM      6  C   UNL     1      12.470  -6.093   9.014  0.00  0.00    +0.000 A 
ATOM      7  C   UNL     1      12.603  -4.716   8.990  0.00  0.00    +0.001 A 
ATOM      8  C   UNL     1      11.870  -3.965   8.095  0.00  0.00    +0.011 A 
ATOM      9  C   UNL     1      10.993  -4.597   7.212  0.00  0.00    +0.019 A 
ATOM     10  C   UNL     1      10.860  -5.986   7.245  0.00  0.00    +0.011 A 
ATOM     11  C   UNL     1      11.603  -6.726   8.141  0.00  0.00    +0.001 A 
ENDBRANCH   1   9
BRANCH   5  12
ATOM     12  C   UNL     1       8.450  -5.532   5.626  0.00  0.00    +0.200 C 
BRANCH  12  13
ATOM     13  C   UNL     1       8.935  -6.386   4.483  0.00  0.00    +0.125 A 
ATOM     14  C   UNL     1      10.072  -7.104   4.465  0.00  0.00    +0.046 A 
ATOM     15  C   UNL     1      10.130  -7.749   3.208  0.00  0.00    +0.041 A 
ATOM     16  C   UNL     1       9.028  -7.381   2.530  0.00  0.00    +0.195 A 
ATOM     17  O   UNL     1       8.308  -6.555   3.308  0.00  0.00    -0.466 OA
ENDBRANCH  12  13
ENDBRANCH   5  12
BRANCH   4  18
ATOM     18  S   UNL     1       7.334  -3.091   3.696  0.00  0.00    -0.077 S 
BRANCH  18  19
ATOM     19  C   UNL     1       7.491  -1.395   3.085  0.00  0.00    +0.173 C 
BRANCH  19  20
ATOM     20  C   UNL     1       6.388  -1.111   2.099  0.00  0.00    +0.227 C 
ATOM     21  O   UNL     1       5.575  -1.972   1.834  0.00  0.00    -0.275 OA
ATOM     22  N   UNL     1       6.304   0.098   1.510  0.00  0.00    -0.285 N 
ATOM     23  H   UNL     1       6.997   0.760   1.662  0.00  0.00    +0.155 HD
BRANCH  22  24
ATOM     24  C   UNL     1       5.217   0.400   0.679  0.00  0.00    +0.037 A 
ATOM     25  C   UNL     1       3.967  -0.140   0.949  0.00  0.00    +0.027 A 
ATOM     26  C   UNL     1       2.894   0.156   0.130  0.00  0.00    +0.051 A 
ATOM     27  C   UNL     1       3.062   0.992  -0.961  0.00  0.00    +0.166 A 
ATOM     28  C   UNL     1       4.316   1.536  -1.234  0.00  0.00    +0.168 A 
ATOM     29  C   UNL     1       5.390   1.238  -0.413  0.00  0.00    +0.072 A 
ATOM     30  O   UNL     1       4.219   2.317  -2.349  0.00  0.00    -0.453 OA
ATOM     31  C   UNL     1       2.812   2.573  -2.519  0.00  0.00    +0.466 C 
ATOM     32  O   UNL     1       2.181   1.433  -1.907  0.00  0.00    -0.453 OA
ENDBRANCH  22  24
ENDBRANCH  19  20
ENDBRANCH  18  19
ENDBRANCH   4  18
TORSDOF 7
