REMARK  Name = ZINC01168844
REMARK  5 active torsions:
REMARK  status: ('A' for Active; 'I' for Inactive)
REMARK    1  A    between atoms: C_1  and  C_2
REMARK    2  A    between atoms: C_2  and  S_3
REMARK    3  A    between atoms: S_3  and  C_4
REMARK    4  A    between atoms: C_17  and  C_20
REMARK    5  A    between atoms: C_23  and  C_25
REMARK                            x       y       z     vdW  Elec       q    Type
REMARK                         _______ _______ _______ _____ _____    ______ ____
ROOT
ATOM      1  C   UNL     1      -0.810   5.387   2.040  0.00  0.00    +0.212 A 
ATOM      2  N   UNL     1      -0.401   4.122   2.015  0.00  0.00    -0.184 NA
ATOM      3  C   UNL     1      -1.037   3.252   1.250  0.00  0.00    +0.248 A 
ATOM      4  C   UNL     1      -2.131   3.700   0.476  0.00  0.00    +0.156 A 
ATOM      5  N   UNL     1      -2.490   4.973   0.549  0.00  0.00    -0.141 NA
ATOM      6  N   UNL     1      -1.843   5.787   1.310  0.00  0.00    -0.122 NA
ATOM      7  C   UNL     1      -2.847   2.748  -0.398  0.00  0.00    +0.028 A 
ATOM      8  C   UNL     1      -4.234   2.666  -0.404  0.00  0.00    +0.012 A 
ATOM      9  C   UNL     1      -4.865   1.771  -1.246  0.00  0.00    +0.001 A 
ATOM     10  C   UNL     1      -4.125   0.956  -2.084  0.00  0.00    +0.002 A 
ATOM     11  C   UNL     1      -2.743   1.022  -2.084  0.00  0.00    +0.024 A 
ATOM     12  C   UNL     1      -2.097   1.907  -1.242  0.00  0.00    +0.040 A 
ATOM     13  N   UNL     1      -0.703   1.976  -1.189  0.00  0.00    -0.303 N 
ATOM     14  C   UNL     1      -0.018   1.503   0.010  0.00  0.00    +0.329 C 
ATOM     15  O   UNL     1      -0.663   1.951   1.197  0.00  0.00    -0.445 OA
ATOM     16  H   UNL     1      -0.199   2.331  -1.938  0.00  0.00    +0.150 HD
ENDROOT
BRANCH  14  17
ATOM     17  C   UNL     1       0.002  -0.004   0.002  0.00  0.00    +0.165 A 
ATOM     18  C   UNL     1       0.968  -0.779   0.531  0.00  0.00    +0.051 A 
ATOM     19  C   UNL     1       0.592  -2.119   0.307  0.00  0.00    +0.050 A 
ATOM     20  C   UNL     1      -0.592  -2.087  -0.361  0.00  0.00    +0.135 A 
ATOM     21  O   UNL     1      -0.937  -0.797  -0.539  0.00  0.00    -0.454 OA
BRANCH  20  22
ATOM     22  C   UNL     1      -1.365  -3.262  -0.814  0.00  0.00    +0.017 A 
ATOM     23  C   UNL     1      -0.888  -4.551  -0.568  0.00  0.00    +0.014 A 
ATOM     24  C   UNL     1      -1.616  -5.644  -0.987  0.00  0.00    +0.039 A 
ATOM     25  C   UNL     1      -2.813  -5.465  -1.662  0.00  0.00    +0.123 A 
ATOM     26  C   UNL     1      -3.288  -4.188  -1.914  0.00  0.00    +0.039 A 
ATOM     27  C   UNL     1      -2.571  -3.088  -1.494  0.00  0.00    +0.014 A 
ATOM     28  F   UNL     1      -3.520  -6.540  -2.076  0.00  0.00    -0.205 F 
ENDBRANCH  20  22
ENDBRANCH  14  17
BRANCH   1  29
ATOM     29  S   UNL     1       0.035   6.551   3.058  0.00  0.00    -0.085 S 
BRANCH  29  31
ATOM     30  C   UNL     1      -0.361   9.219   3.491  0.00  0.00    +0.016 C 
ATOM     31  C   UNL     1      -0.927   8.041   2.696  0.00  0.00    +0.074 C 
ENDBRANCH  29  31
ENDBRANCH   1  29
TORSDOF 4
