REMARK  Name = ZINC34750126
REMARK  11 active torsions:
REMARK  status: ('A' for Active; 'I' for Inactive)
REMARK    1  A    between atoms: C_1  and  C_2
REMARK    2  A    between atoms: C_2  and  C_3
REMARK    3  A    between atoms: C_3  and  C_4
REMARK    4  A    between atoms: C_4  and  N_5
REMARK    5  A    between atoms: C_18  and  S_20
REMARK    6  A    between atoms: S_20  and  C_21
REMARK    7  A    between atoms: C_21  and  C_22
REMARK    8  A    between atoms: C_25  and  C_29
REMARK    9  A    between atoms: C_27  and  C_28
REMARK   10  A    between atoms: C_32  and  C_34
REMARK   11  A    between atoms: C_32  and  C_35
REMARK                            x       y       z     vdW  Elec       q    Type
REMARK                         _______ _______ _______ _____ _____    ______ ____
ROOT
ATOM      1  N   UNL     1      -3.801  -1.694   0.048  0.00  0.00    +0.382 N 
ATOM      2  C   UNL     1      -5.249  -1.884   0.209  0.00  0.00    -0.060 C 
ATOM      3  C   UNL     1      -5.560  -3.381   0.298  0.00  0.00    +0.088 C 
ATOM      4  N   UNL     1      -4.988  -4.048  -0.882  0.00  0.00    -0.318 N 
ATOM      5  C   UNL     1      -3.579  -3.783  -1.213  0.00  0.00    +0.088 C 
ATOM      6  C   UNL     1      -3.361  -2.267  -1.231  0.00  0.00    -0.060 C 
ATOM      7  C   UNL     1      -5.753  -4.899  -1.658  0.00  0.00    +0.134 A 
ATOM      8  C   UNL     1      -5.717  -6.304  -1.433  0.00  0.00    +0.051 A 
ATOM      9  C   UNL     1      -4.946  -7.056  -0.444  0.00  0.00    -0.020 A 
ATOM     10  C   UNL     1      -5.093  -8.398  -0.440  0.00  0.00    +0.021 A 
ATOM     11  S   UNL     1      -6.252  -8.739  -1.733  0.00  0.00    -0.071 S 
ATOM     12  C   UNL     1      -6.537  -7.076  -2.282  0.00  0.00    +0.115 A 
ATOM     13  N   UNL     1      -7.281  -6.519  -3.217  0.00  0.00    -0.215 NA
ATOM     14  C   UNL     1      -7.274  -5.202  -3.382  0.00  0.00    +0.191 A 
ATOM     15  N   UNL     1      -6.530  -4.417  -2.613  0.00  0.00    -0.206 NA
ATOM     16  C   UNL     1      -4.405  -9.361   0.477  0.00  0.00    +0.203 C 
ATOM     17  O   UNL     1      -3.333  -8.662   1.130  0.00  0.00    -0.368 OA
ATOM     18  C   UNL     1      -3.728  -7.404   1.683  0.00  0.00    +0.068 C 
ATOM     19  C   UNL     1      -4.003  -6.398   0.560  0.00  0.00    +0.071 C 
ATOM     20  C   UNL     1      -4.996  -7.591   2.517  0.00  0.00    +0.041 C 
ATOM     21  C   UNL     1      -2.609  -6.870   2.579  0.00  0.00    +0.041 C 
ATOM     22  H   UNL     1      -3.318  -2.155   0.805  0.00  0.00    -0.082 HD
ENDROOT
BRANCH   1  23
ATOM     23  C   UNL     1      -3.491  -0.259   0.073  0.00  0.00    -0.079 C 
BRANCH  23  24
ATOM     24  C   UNL     1      -3.834   0.313   1.450  0.00  0.00    -0.019 C 
BRANCH  24  26
ATOM     25  C   UNL     1      -3.854   2.381   2.852  0.00  0.00    +0.004 C 
ATOM     26  C   UNL     1      -3.511   1.809   1.475  0.00  0.00    -0.005 C 
ENDBRANCH  24  26
ENDBRANCH  23  24
ENDBRANCH   1  23
BRANCH  14  27
ATOM     27  S   UNL     1      -8.277  -4.483  -4.639  0.00  0.00    -0.081 S 
BRANCH  27  28
ATOM     28  C   UNL     1      -9.102  -5.903  -5.409  0.00  0.00    +0.112 C 
BRANCH  28  29
ATOM     29  C   UNL     1     -10.003  -5.421  -6.517  0.00  0.00    -0.034 A 
ATOM     30  C   UNL     1     -11.318  -5.092  -6.245  0.00  0.00    +0.005 A 
ATOM     31  C   UNL     1     -12.144  -4.650  -7.261  0.00  0.00    +0.003 A 
ATOM     32  C   UNL     1     -11.655  -4.536  -8.549  0.00  0.00    -0.050 A 
ATOM     33  C   UNL     1     -10.341  -4.864  -8.821  0.00  0.00    +0.007 A 
ATOM     34  C   UNL     1      -9.513  -5.302  -7.804  0.00  0.00    -0.046 A 
ATOM     35  C   UNL     1      -8.078  -5.654  -8.099  0.00  0.00    +0.044 C 
ATOM     36  C   UNL     1     -12.556  -4.054  -9.657  0.00  0.00    +0.044 C 
ENDBRANCH  28  29
ENDBRANCH  27  28
ENDBRANCH  14  27
TORSDOF 6
