REMARK  Name = ZINC04848827
REMARK  9 active torsions:
REMARK  status: ('A' for Active; 'I' for Inactive)
REMARK    1  A    between atoms: C_1  and  C_2
REMARK    2  A    between atoms: C_2  and  C_3
REMARK    3  A    between atoms: C_3  and  C_5
REMARK    4  A    between atoms: C_3  and  N_6
REMARK    5  A    between atoms: C_7  and  C_9
REMARK    6  A    between atoms: C_10  and  N_25
REMARK    7  A    between atoms: C_15  and  O_22
REMARK    8  A    between atoms: O_22  and  C_23
REMARK    9  A    between atoms: C_23  and  C_24
REMARK                            x       y       z     vdW  Elec       q    Type
REMARK                         _______ _______ _______ _____ _____    ______ ____
ROOT
ATOM      1  C   UNL     1      -2.064   5.786   0.051  0.00  0.00    +0.097 A 
ATOM      2  C   UNL     1      -2.325   4.436   0.047  0.00  0.00    +0.053 A 
ATOM      3  C   UNL     1      -1.199   3.511   0.032  0.00  0.00    +0.030 A 
ATOM      4  C   UNL     1      -1.227   2.105   0.019  0.00  0.00    +0.022 A 
ATOM      5  C   UNL     1      -0.017   1.404   0.010  0.00  0.00    +0.005 A 
ATOM      6  C   UNL     1       0.002  -0.004   0.002  0.00  0.00    +0.055 A 
ATOM      7  C   UNL     1       1.196  -0.663  -0.013  0.00  0.00    +0.121 A 
ATOM      8  C   UNL     1       2.405   0.042  -0.021  0.00  0.00    +0.048 A 
ATOM      9  C   UNL     1       2.422   1.401  -0.013  0.00  0.00    +0.032 A 
ATOM     10  C   UNL     1       1.211   2.116   0.002  0.00  0.00    +0.073 A 
ATOM     11  N   UNL     1       1.203   3.452   0.009  0.00  0.00    -0.239 NA
ATOM     12  C   UNL     1       0.082   4.128   0.023  0.00  0.00    +0.111 A 
ATOM     13  S   UNL     1      -0.284   5.867   0.035  0.00  0.00    -0.062 S 
ENDROOT
BRANCH   1  15
ATOM     14  N   UNL     1      -2.547   8.132   0.067  0.00  0.00    -0.308 N 
ATOM     15  C   UNL     1      -2.990   6.859   0.065  0.00  0.00    +0.253 C 
ATOM     16  O   UNL     1      -4.186   6.630   0.074  0.00  0.00    -0.270 OA
ATOM     17  H   UNL     1      -1.594   8.313   0.059  0.00  0.00    +0.149 HD
BRANCH  14  18
ATOM     18  C   UNL     1      -3.505   9.240   0.081  0.00  0.00    +0.070 C 
ATOM     19  C   UNL     1      -3.920   9.537   1.523  0.00  0.00    +0.028 C 
BRANCH  18  21
ATOM     20  C   UNL     1      -2.551  10.228  -2.007  0.00  0.00    +0.005 C 
ATOM     21  C   UNL     1      -2.854  10.484  -0.529  0.00  0.00    +0.018 C 
ENDBRANCH  18  21
ENDBRANCH  14  18
ENDBRANCH   1  15
BRANCH   2  22
ATOM     22  N   UNL     1      -3.630   3.966   0.056  0.00  0.00    -0.356 N 
ATOM     23  H   UNL     1      -4.371   4.591   0.065  0.00  0.00    +0.142 HD
ATOM     24  H   UNL     1      -3.801   3.011   0.053  0.00  0.00    +0.142 HD
ENDBRANCH   2  22
BRANCH   7  25
ATOM     25  O   UNL     1       1.212  -2.022  -0.021  0.00  0.00    -0.492 OA
BRANCH  25  26
ATOM     26  C   UNL     1       2.493  -2.656  -0.036  0.00  0.00    +0.225 C 
ATOM     27  C   UNL     1       2.310  -4.175  -0.043  0.00  0.00    +0.048 C 
ENDBRANCH  25  26
ENDBRANCH   7  25
TORSDOF 6
