REMARK  Name = ZINC36718244
REMARK  13 active torsions:
REMARK  status: ('A' for Active; 'I' for Inactive)
REMARK    1  A    between atoms: C_1  and  C_2
REMARK    2  A    between atoms: C_2  and  C_3
REMARK    3  A    between atoms: C_3  and  C_4
REMARK    4  A    between atoms: C_4  and  N_5
REMARK    5  A    between atoms: N_5  and  C_6
REMARK    6  A    between atoms: C_7  and  N_19
REMARK    7  A    between atoms: N_8  and  C_15
REMARK    8  A    between atoms: C_15  and  C_16
REMARK    9  A    between atoms: C_16  and  C_17
REMARK   10  A    between atoms: C_16  and  C_18
REMARK   11  A    between atoms: C_20  and  C_22
REMARK   12  A    between atoms: C_22  and  O_23
REMARK   13  A    between atoms: O_23  and  C_24
REMARK                            x       y       z     vdW  Elec       q    Type
REMARK                         _______ _______ _______ _____ _____    ______ ____
ROOT
ATOM      1  N   UNL     1      -2.689  -2.585   0.029  0.00  0.00    -0.261 N 
ATOM      2  C   UNL     1      -3.117  -2.947   1.256  0.00  0.00    +0.258 C 
ATOM      3  O   UNL     1      -4.192  -3.495   1.386  0.00  0.00    -0.272 OA
ENDROOT
BRANCH   1   4
ATOM      4  C   UNL     1      -3.537  -2.738  -1.089  0.00  0.00    +0.140 A 
ATOM      5  C   UNL     1      -3.224  -3.635  -2.090  0.00  0.00    +0.127 A 
ATOM      6  N   UNL     1      -4.071  -3.762  -3.166  0.00  0.00    -0.280 N 
ATOM      7  C   UNL     1      -5.191  -3.020  -3.243  0.00  0.00    +0.331 A 
ATOM      8  O   UNL     1      -5.926  -3.147  -4.203  0.00  0.00    -0.246 OA
ATOM      9  N   UNL     1      -5.512  -2.141  -2.277  0.00  0.00    -0.273 N 
ATOM     10  H   UNL     1      -6.325  -1.619  -2.355  0.00  0.00    +0.173 HD
ATOM     11  C   UNL     1      -4.720  -1.983  -1.198  0.00  0.00    +0.277 A 
ATOM     12  O   UNL     1      -5.023  -1.187  -0.326  0.00  0.00    -0.266 OA
BRANCH   5  13
ATOM     13  N   UNL     1      -2.080  -4.392  -2.012  0.00  0.00    -0.343 N 
ATOM     14  H   UNL     1      -1.456  -4.255  -1.282  0.00  0.00    +0.144 HD
ATOM     15  H   UNL     1      -1.896  -5.064  -2.687  0.00  0.00    +0.144 HD
ENDBRANCH   5  13
BRANCH   6  16
ATOM     16  C   UNL     1      -3.751  -4.710  -4.236  0.00  0.00    +0.131 C 
BRANCH  16  17
ATOM     17  C   UNL     1      -4.370  -6.071  -3.913  0.00  0.00    +0.003 C 
ATOM     18  C   UNL     1      -4.143  -7.026  -5.087  0.00  0.00    +0.009 C 
ATOM     19  C   UNL     1      -3.714  -6.644  -2.655  0.00  0.00    +0.009 C 
ENDBRANCH  16  17
ENDBRANCH   6  16
ENDBRANCH   1   4
BRANCH   1  20
ATOM     20  C   UNL     1      -1.343  -2.033  -0.144  0.00  0.00    +0.114 C 
BRANCH  20  21
ATOM     21  C   UNL     1      -1.410  -0.505  -0.107  0.00  0.00    +0.019 C 
BRANCH  21  23
ATOM     22  C   UNL     1      -0.071   1.600  -0.251  0.00  0.00    +0.004 C 
ATOM     23  C   UNL     1      -0.004   0.072  -0.288  0.00  0.00    -0.002 C 
ENDBRANCH  21  23
ENDBRANCH  20  21
ENDBRANCH   1  20
BRANCH   2  24
ATOM     24  C   UNL     1      -2.261  -2.671   2.465  0.00  0.00    +0.325 C 
BRANCH  24  25
ATOM     25  O   UNL     1      -2.926  -3.144   3.638  0.00  0.00    -0.483 OA
BRANCH  25  26
ATOM     26  C   UNL     1      -2.284  -2.971   4.823  0.00  0.00    +0.122 A 
ATOM     27  C   UNL     1      -1.042  -2.354   4.857  0.00  0.00    +0.046 A 
ATOM     28  C   UNL     1      -0.391  -2.180   6.063  0.00  0.00    +0.005 A 
ATOM     29  C   UNL     1      -0.976  -2.620   7.236  0.00  0.00    +0.015 A 
ATOM     30  C   UNL     1      -2.215  -3.236   7.205  0.00  0.00    +0.021 A 
ATOM     31  C   UNL     1      -2.873  -3.407   6.001  0.00  0.00    +0.061 A 
ATOM     32 BR   UNL     1      -3.011  -3.836   8.811  0.00  0.00    -0.050 Br
ENDBRANCH  25  26
ENDBRANCH  24  25
ENDBRANCH   2  24
TORSDOF 10
