REMARK  Name = ZINC11787410
REMARK  8 active torsions:
REMARK  status: ('A' for Active; 'I' for Inactive)
REMARK    1  A    between atoms: C_1  and  C_2
REMARK    2  A    between atoms: C_7  and  O_8
REMARK    3  A    between atoms: O_8  and  C_9
REMARK    4  A    between atoms: C_9  and  C_11
REMARK    5  A    between atoms: C_9  and  C_12
REMARK    6  A    between atoms: C_17  and  C_20
REMARK    7  A    between atoms: C_20  and  C_27
REMARK    8  A    between atoms: C_27  and  C_28
REMARK                            x       y       z     vdW  Elec       q    Type
REMARK                         _______ _______ _______ _____ _____    ______ ____
ROOT
ATOM      1  C   UNL     1      -2.779   0.678   2.335  0.00  0.00    +0.256 C 
ATOM      2  O   UNL     1      -3.975   0.480   2.368  0.00  0.00    -0.272 OA
ATOM      3  N   UNL     1      -2.243   1.401   1.332  0.00  0.00    -0.298 N 
ATOM      4  C   UNL     1      -0.795   1.648   1.279  0.00  0.00    +0.108 C 
ATOM      5  C   UNL     1      -0.270   1.207  -0.091  0.00  0.00    +0.025 C 
ATOM      6  C   UNL     1      -1.069   1.910  -1.190  0.00  0.00    +0.025 C 
ATOM      7  C   UNL     1      -2.543   1.511  -1.087  0.00  0.00    +0.025 C 
ATOM      8  C   UNL     1      -3.094   1.956   0.271  0.00  0.00    +0.108 C 
ENDROOT
BRANCH   6   9
ATOM      9  C   UNL     1      -0.524   1.497  -2.559  0.00  0.00    +0.119 C 
ATOM     10  C   UNL     1      -0.409  -0.011  -2.655  0.00  0.00    +0.245 C 
ATOM     11  O   UNL     1      -1.307  -0.821  -2.573  0.00  0.00    -0.273 OA
ATOM     12  N   UNL     1       0.901  -0.265  -2.849  0.00  0.00    -0.238 N 
ATOM     13  C   UNL     1       1.621   0.862  -2.889  0.00  0.00    +0.307 C 
ATOM     14  O   UNL     1       2.825   0.889  -3.053  0.00  0.00    -0.252 OA
ATOM     15  N   UNL     1       0.864   1.962  -2.726  0.00  0.00    -0.284 N 
ATOM     16  H   UNL     1       1.275  -1.154  -2.947  0.00  0.00    +0.159 HD
ATOM     17  H   UNL     1       1.172   2.882  -2.720  0.00  0.00    +0.151 HD
BRANCH   9  18
ATOM     18  C   UNL     1      -1.413   2.045  -3.678  0.00  0.00    +0.073 C 
BRANCH  18  19
ATOM     19  C   UNL     1      -0.856   1.625  -5.013  0.00  0.00    -0.010 A 
ATOM     20  C   UNL     1      -0.024   2.478  -5.714  0.00  0.00    +0.006 A 
ATOM     21  C   UNL     1       0.492   2.091  -6.937  0.00  0.00    +0.000 A 
ATOM     22  C   UNL     1       0.169   0.855  -7.465  0.00  0.00    +0.003 A 
ATOM     23  C   UNL     1      -0.667   0.003  -6.769  0.00  0.00    +0.038 A 
ATOM     24  C   UNL     1      -1.181   0.387  -5.542  0.00  0.00    +0.127 A 
ATOM     25  F   UNL     1      -1.998  -0.445  -4.860  0.00  0.00    -0.205 F 
ENDBRANCH  18  19
ENDBRANCH   9  18
ENDBRANCH   6   9
BRANCH   1  26
ATOM     26  C   UNL     1      -1.893   0.115   3.416  0.00  0.00    +0.256 C 
ATOM     27  C   UNL     1      -1.267   1.263   4.211  0.00  0.00    +0.062 C 
BRANCH  26  28
ATOM     28  O   UNL     1      -2.671  -0.703   4.292  0.00  0.00    -0.480 OA
BRANCH  28  35
ATOM     29  C   UNL     1      -4.220  -2.472   5.857  0.00  0.00    +0.047 C 
ATOM     30  C   UNL     1      -2.719  -2.572   5.763  0.00  0.00    -0.007 A 
ATOM     31  C   UNL     1      -2.047  -3.562   6.454  0.00  0.00    +0.027 A 
ATOM     32  C   UNL     1      -0.669  -3.651   6.372  0.00  0.00    +0.041 A 
ATOM     33  C   UNL     1       0.039  -2.753   5.593  0.00  0.00    +0.023 A 
ATOM     34  C   UNL     1      -0.629  -1.766   4.896  0.00  0.00    +0.047 A 
ATOM     35  C   UNL     1      -2.011  -1.674   4.977  0.00  0.00    +0.125 A 
ATOM     36 CL   UNL     1       0.173  -4.892   7.247  0.00  0.00    -0.084 Cl
ENDBRANCH  28  35
ENDBRANCH  26  28
ENDBRANCH   1  26
TORSDOF 6
