REMARK  Name = ZINC12081323
REMARK  6 active torsions:
REMARK  status: ('A' for Active; 'I' for Inactive)
REMARK    1  A    between atoms: C_1  and  C_2
REMARK    2  A    between atoms: C_9  and  N_14
REMARK    3  A    between atoms: C_15  and  C_17
REMARK    4  A    between atoms: C_17  and  C_19
REMARK    5  A    between atoms: C_17  and  O_20
REMARK    6  A    between atoms: O_20  and  C_21
REMARK                            x       y       z     vdW  Elec       q    Type
REMARK                         _______ _______ _______ _____ _____    ______ ____
ROOT
ATOM      1  N   UNL     1      -1.410  -1.690   0.850  0.00  0.00    -0.282 N 
ATOM      2  C   UNL     1      -1.242  -0.352   0.845  0.00  0.00    +0.258 C 
ATOM      3  O   UNL     1      -2.052   0.362   1.396  0.00  0.00    -0.271 OA
ATOM      4  H   UNL     1      -0.726  -2.266   0.474  0.00  0.00    +0.155 HD
ENDROOT
BRANCH   1  12
ATOM      5  C   UNL     1      -7.231  -5.777   3.898  0.00  0.00    +0.062 C 
ATOM      6  C   UNL     1      -6.095  -5.322   2.980  0.00  0.00    +0.256 C 
ATOM      7  C   UNL     1      -4.796  -5.920   3.454  0.00  0.00    +0.258 C 
ATOM      8  O   UNL     1      -4.792  -6.982   4.041  0.00  0.00    -0.271 OA
ATOM      9  N   UNL     1      -3.635  -5.269   3.223  0.00  0.00    -0.279 N 
ATOM     10  C   UNL     1      -3.669  -4.027   2.573  0.00  0.00    +0.077 A 
ATOM     11  C   UNL     1      -2.518  -3.482   2.030  0.00  0.00    +0.050 A 
ATOM     12  C   UNL     1      -2.573  -2.248   1.397  0.00  0.00    +0.035 A 
ATOM     13  C   UNL     1      -3.780  -1.569   1.299  0.00  0.00    +0.027 A 
ATOM     14  C   UNL     1      -4.930  -2.116   1.837  0.00  0.00    +0.049 A 
ATOM     15  C   UNL     1      -4.880  -3.344   2.474  0.00  0.00    +0.143 A 
ATOM     16  O   UNL     1      -6.005  -3.895   3.006  0.00  0.00    -0.478 OA
ATOM     17  H   UNL     1      -2.790  -5.656   3.502  0.00  0.00    +0.155 HD
ENDBRANCH   1  12
BRANCH   2  18
ATOM     18  C   UNL     1      -0.047   0.254   0.157  0.00  0.00    +0.256 C 
ATOM     19  C   UNL     1      -0.133  -0.015  -1.347  0.00  0.00    +0.062 C 
BRANCH  18  20
ATOM     20  O   UNL     1      -0.029   1.665   0.388  0.00  0.00    -0.478 OA
BRANCH  20  21
ATOM     21  C   UNL     1       1.178   2.287   0.316  0.00  0.00    +0.140 A 
ATOM     22  C   UNL     1       2.301   1.579  -0.086  0.00  0.00    +0.048 A 
ATOM     23  C   UNL     1       3.526   2.214  -0.163  0.00  0.00    +0.023 A 
ATOM     24  C   UNL     1       3.635   3.553   0.169  0.00  0.00    +0.043 A 
ATOM     25  C   UNL     1       2.517   4.260   0.575  0.00  0.00    +0.043 A 
ATOM     26  C   UNL     1       1.288   3.629   0.649  0.00  0.00    +0.084 A 
ATOM     27 CL   UNL     1      -0.114   4.517   1.158  0.00  0.00    -0.080 Cl
ATOM     28 CL   UNL     1       5.176   4.346   0.077  0.00  0.00    -0.083 Cl
ENDBRANCH  20  21
ENDBRANCH  18  20
ENDBRANCH   2  18
TORSDOF 4
