REMARK  Name = ZINC04333631
REMARK  4 active torsions:
REMARK  status: ('A' for Active; 'I' for Inactive)
REMARK    1  A    between atoms: C_4  and  C_7
REMARK    2  A    between atoms: C_11  and  C_12
REMARK    3  A    between atoms: C_11  and  C_14
REMARK    4  A    between atoms: N_24  and  C_25
REMARK                            x       y       z     vdW  Elec       q    Type
REMARK                         _______ _______ _______ _____ _____    ______ ____
ROOT
ATOM      1  C   UNL     1      -1.105  -0.669   0.258  0.00  0.00    +0.053 C 
ATOM      2  C   UNL     1      -1.108  -2.018   0.337  0.00  0.00    +0.071 C 
ATOM      3  S   UNL     1       0.564  -2.422  -0.144  0.00  0.00    -0.078 S 
ATOM      4  C   UNL     1       1.149  -0.758  -0.425  0.00  0.00    +0.098 C 
ATOM      5  C   UNL     1       2.415  -0.323  -0.836  0.00  0.00    +0.122 C 
ATOM      6  N   UNL     1       0.031  -0.019  -0.132  0.00  0.00    -0.261 N 
ENDROOT
BRANCH   5   7
ATOM      7  C   UNL     1       3.515  -1.286  -0.969  0.00  0.00    +0.152 A 
ATOM      8  N   UNL     1       4.791  -0.978  -1.367  0.00  0.00    -0.337 N 
ATOM      9  H   UNL     1       5.133  -0.072  -1.617  0.00  0.00    +0.167 HD
ATOM     10  C   UNL     1       5.518  -2.158  -1.359  0.00  0.00    +0.066 A 
ATOM     11  C   UNL     1       6.833  -2.476  -1.657  0.00  0.00    +0.028 A 
ATOM     12  C   UNL     1       7.265  -3.783  -1.554  0.00  0.00    +0.002 A 
ATOM     13  C   UNL     1       6.391  -4.782  -1.153  0.00  0.00    +0.002 A 
ATOM     14  C   UNL     1       5.080  -4.485  -0.853  0.00  0.00    +0.030 A 
ATOM     15  C   UNL     1       4.627  -3.166  -0.952  0.00  0.00    +0.089 A 
ATOM     16  N   UNL     1       3.425  -2.577  -0.729  0.00  0.00    -0.227 NA
ENDBRANCH   5   7
BRANCH   1  20
ATOM     17  C   UNL     1      -4.613   1.533   1.203  0.00  0.00    +0.000 A 
ATOM     18  C   UNL     1      -4.681   0.479   0.309  0.00  0.00    +0.001 A 
ATOM     19  C   UNL     1      -3.545  -0.240  -0.002  0.00  0.00    +0.010 A 
ATOM     20  C   UNL     1      -2.326   0.098   0.587  0.00  0.00    -0.003 A 
ATOM     21  C   UNL     1      -2.265   1.159   1.491  0.00  0.00    +0.010 A 
ATOM     22  C   UNL     1      -3.407   1.873   1.790  0.00  0.00    +0.001 A 
ENDBRANCH   1  20
BRANCH   6  23
ATOM     23  C   UNL     1       0.055   1.377  -0.227  0.00  0.00    +0.039 A 
ATOM     24  C   UNL     1       0.593   2.135   0.805  0.00  0.00    +0.024 A 
ATOM     25  C   UNL     1       0.620   3.513   0.707  0.00  0.00    +0.002 A 
ATOM     26  C   UNL     1       0.103   4.138  -0.413  0.00  0.00    +0.000 A 
ATOM     27  C   UNL     1      -0.438   3.386  -1.440  0.00  0.00    +0.002 A 
ATOM     28  C   UNL     1      -0.463   2.008  -1.351  0.00  0.00    +0.024 A 
ENDBRANCH   6  23
BRANCH   5  29
ATOM     29  C   UNL     1       2.637   1.062  -1.127  0.00  0.00    +0.105 C 
ATOM     30  N   UNL     1       2.812   2.160  -1.358  0.00  0.00    -0.191 NA
ENDBRANCH   5  29
TORSDOF 4
