REMARK  Name = ZINC36593884
REMARK  9 active torsions:
REMARK  status: ('A' for Active; 'I' for Inactive)
REMARK    1  A    between atoms: C_1  and  C_2
REMARK    2  A    between atoms: C_2  and  C_3
REMARK    3  A    between atoms: C_2  and  C_4
REMARK    4  A    between atoms: C_4  and  C_5
REMARK    5  A    between atoms: C_5  and  C_7
REMARK    6  A    between atoms: C_5  and  N_11
REMARK    7  A    between atoms: C_7  and  O_9
REMARK    8  A    between atoms: O_9  and  C_10
REMARK    9  A    between atoms: C_23  and  C_25
REMARK                            x       y       z     vdW  Elec       q    Type
REMARK                         _______ _______ _______ _____ _____    ______ ____
ROOT
ATOM      1  N   UNL     1       4.385   0.929   0.016  0.00  0.00    -0.286 N 
ATOM      2  C   UNL     1       3.935  -0.252   0.485  0.00  0.00    +0.304 C 
ATOM      3  O   UNL     1       2.906  -0.729   0.046  0.00  0.00    -0.253 OA
ATOM      4  N   UNL     1       4.626  -0.905   1.441  0.00  0.00    -0.273 N 
ATOM      5  C   UNL     1       4.213  -2.243   1.888  0.00  0.00    +0.116 C 
ATOM      6  C   UNL     1       5.310  -3.253   1.529  0.00  0.00    +0.074 C 
ATOM      7  C   UNL     1       6.647  -2.671   1.904  0.00  0.00    +0.040 A 
ATOM      8  C   UNL     1       6.881  -1.362   2.138  0.00  0.00    +0.062 A 
ATOM      9  N   UNL     1       8.173  -1.217   2.437  0.00  0.00    -0.348 N 
ATOM     10  C   UNL     1       8.754  -2.388   2.402  0.00  0.00    +0.171 A 
ATOM     11  N   UNL     1       7.832  -3.322   2.073  0.00  0.00    -0.349 N 
ATOM     12  H   UNL     1       7.986  -4.275   1.976  0.00  0.00    +0.166 HD
ATOM     13  C   UNL     1       5.819  -0.297   2.058  0.00  0.00    +0.156 C 
ATOM     14  H   UNL     1       5.162   1.346   0.419  0.00  0.00    +0.151 HD
ATOM     15  H   UNL     1       8.612  -0.378   2.647  0.00  0.00    +0.167 HD
ENDROOT
BRANCH  13  16
ATOM     16  C   UNL     1       5.485   0.193   3.444  0.00  0.00    -0.020 A 
ATOM     17  C   UNL     1       5.115  -0.709   4.425  0.00  0.00    +0.006 A 
ATOM     18  C   UNL     1       4.809  -0.261   5.696  0.00  0.00    +0.002 A 
ATOM     19  C   UNL     1       4.872   1.089   5.988  0.00  0.00    +0.020 A 
ATOM     20  C   UNL     1       5.242   1.991   5.007  0.00  0.00    +0.041 A 
ATOM     21  C   UNL     1       5.555   1.542   3.736  0.00  0.00    +0.025 A 
ATOM     22 CL   UNL     1       5.322   3.687   5.372  0.00  0.00    -0.084 Cl
ENDBRANCH  13  16
BRANCH   1  23
ATOM     23  C   UNL     1       3.700   1.581  -1.103  0.00  0.00    +0.183 C 
BRANCH  23  24
ATOM     24  C   UNL     1       2.544   2.394  -0.579  0.00  0.00    +0.327 C 
ATOM     25  O   UNL     1       2.316   2.425   0.607  0.00  0.00    -0.249 OA
BRANCH  24  26
ATOM     26  O   UNL     1       1.768   3.083  -1.430  0.00  0.00    -0.467 OA
ATOM     27  C   UNL     1       0.690   3.832  -0.864  0.00  0.00    +0.280 C 
ENDBRANCH  24  26
ENDBRANCH  23  24
BRANCH  23  28
ATOM     28  C   UNL     1       4.680   2.501  -1.834  0.00  0.00    +0.036 C 
BRANCH  28  30
ATOM     29  C   UNL     1       5.187   0.764  -3.557  0.00  0.00    +0.007 C 
ATOM     30  C   UNL     1       5.788   1.660  -2.473  0.00  0.00    -0.015 C 
ATOM     31  C   UNL     1       6.834   2.586  -3.098  0.00  0.00    +0.007 C 
ENDBRANCH  28  30
ENDBRANCH  23  28
ENDBRANCH   1  23
TORSDOF 6
