REMARK  Name = ZINC02510291
REMARK  3 active torsions:
REMARK  status: ('A' for Active; 'I' for Inactive)
REMARK    1  A    between atoms: C_1  and  C_2
REMARK    2  A    between atoms: C_2  and  C_3
REMARK    3  A    between atoms: C_6  and  C_8
REMARK                            x       y       z     vdW  Elec       q    Type
REMARK                         _______ _______ _______ _____ _____    ______ ____
ROOT
ATOM      1  C   UNL     1      -2.143   1.058   1.278  0.00  0.00    -0.010 A 
ATOM      2  C   UNL     1      -2.623  -0.096   1.802  0.00  0.00    +0.011 A 
ATOM      3  C   UNL     1      -3.973  -0.371   1.694  0.00  0.00    +0.011 A 
ATOM      4  C   UNL     1      -4.777   0.522   1.066  0.00  0.00    -0.013 A 
ATOM      5  S   UNL     1      -3.621   1.803   0.609  0.00  0.00    -0.098 S 
ATOM      6  C   UNL     1      -6.263   0.453   0.823  0.00  0.00    +0.051 C 
ENDROOT
BRANCH   1   8
ATOM      7  C   UNL     1      -0.013   1.086   0.008  0.00  0.00    +0.009 C 
ATOM      8  C   UNL     1      -0.729   1.579   1.267  0.00  0.00    +0.039 C 
ENDBRANCH   1   8
TORSDOF 1
