REMARK  Name = ZINC60044110
REMARK  9 active torsions:
REMARK  status: ('A' for Active; 'I' for Inactive)
REMARK    1  A    between atoms: C_1  and  O_2
REMARK    2  A    between atoms: O_2  and  C_3
REMARK    3  A    between atoms: C_6  and  C_9
REMARK    4  A    between atoms: C_9  and  C_11
REMARK    5  A    between atoms: C_9  and  N_29
REMARK    6  A    between atoms: C_11  and  N_12
REMARK    7  A    between atoms: N_12  and  C_13
REMARK    8  A    between atoms: C_13  and  C_14
REMARK    9  A    between atoms: C_19  and  C_20
REMARK                            x       y       z     vdW  Elec       q    Type
REMARK                         _______ _______ _______ _____ _____    ______ ____
ROOT
ATOM      1  N   UNL     1      -5.515  -1.934  -2.284  0.00  0.00    -0.313 NA
ATOM      2  H   UNL     1      -6.260  -1.388  -1.879  0.00  0.00    +0.122 HD
ENDROOT
BRANCH   1   3
ATOM      3  C   UNL     1      -5.207  -3.104  -1.452  0.00  0.00    +0.070 C 
BRANCH   3   4
ATOM      4  C   UNL     1      -5.042  -2.666   0.004  0.00  0.00    -0.024 C 
BRANCH   4   8
ATOM      5  C   UNL     1      -1.669  -0.063   0.335  0.00  0.00    +0.120 A 
ATOM      6  C   UNL     1      -2.951   0.464   0.285  0.00  0.00    +0.046 A 
ATOM      7  C   UNL     1      -4.040  -0.379   0.177  0.00  0.00    +0.005 A 
ATOM      8  C   UNL     1      -3.852  -1.748   0.121  0.00  0.00    -0.060 A 
ATOM      9  C   UNL     1      -2.575  -2.276   0.171  0.00  0.00    +0.005 A 
ATOM     10  C   UNL     1      -1.483  -1.437   0.272  0.00  0.00    +0.046 A 
BRANCH   5  12
ATOM     11  C   UNL     1      -0.862   2.167   0.499  0.00  0.00    +0.277 C 
ATOM     12  O   UNL     1      -0.596   0.764   0.440  0.00  0.00    -0.495 OA
ENDBRANCH   5  12
ENDBRANCH   4   8
BRANCH   4  13
ATOM     13  N   UNL     1      -4.833  -3.848   0.851  0.00  0.00    +0.385 N 
ATOM     14  C   UNL     1      -4.745  -3.447   2.278  0.00  0.00    -0.078 C 
ATOM     15  C   UNL     1      -5.095  -4.752   3.036  0.00  0.00    -0.020 C 
ATOM     16  C   UNL     1      -6.194  -5.381   2.151  0.00  0.00    -0.020 C 
ATOM     17  C   UNL     1      -5.998  -4.754   0.758  0.00  0.00    -0.078 C 
ATOM     18  H   UNL     1      -3.992  -4.332   0.572  0.00  0.00    -0.081 HD
ENDBRANCH   4  13
ENDBRANCH   3   4
ENDBRANCH   1   3
BRANCH   1  19
ATOM     19  C   UNL     1      -5.844  -2.336  -3.658  0.00  0.00    +0.120 C 
BRANCH  19  20
ATOM     20  C   UNL     1      -6.153  -1.111  -4.480  0.00  0.00    +0.014 A 
ATOM     21  C   UNL     1      -7.424  -0.637  -4.804  0.00  0.00    +0.139 A 
ATOM     22  N   UNL     1      -7.296   0.446  -5.528  0.00  0.00    -0.181 NA
ATOM     23  H   UNL     1      -5.554   1.459  -6.195  0.00  0.00    +0.189 HD
ATOM     24  N   UNL     1      -5.932   0.715  -5.700  0.00  0.00    -0.274 N 
ATOM     25  C   UNL     1      -5.231  -0.254  -5.042  0.00  0.00    +0.105 A 
BRANCH  25  26
ATOM     26  C   UNL     1      -3.764  -0.364  -4.952  0.00  0.00    +0.154 A 
ATOM     27  C   UNL     1      -2.905  -0.203  -5.989  0.00  0.00    +0.060 A 
ATOM     28  C   UNL     1      -1.563  -0.401  -5.437  0.00  0.00    +0.021 A 
ATOM     29  C   UNL     1      -0.275  -0.370  -5.975  0.00  0.00    +0.011 A 
ATOM     30  C   UNL     1       0.803  -0.605  -5.168  0.00  0.00    +0.001 A 
ATOM     31  C   UNL     1       0.624  -0.874  -3.818  0.00  0.00    +0.004 A 
ATOM     32  C   UNL     1      -0.640  -0.909  -3.268  0.00  0.00    +0.047 A 
ATOM     33  C   UNL     1      -1.750  -0.672  -4.070  0.00  0.00    +0.136 A 
ATOM     34  O   UNL     1      -3.075  -0.634  -3.825  0.00  0.00    -0.453 OA
ENDBRANCH  25  26
ENDBRANCH  19  20
ENDBRANCH   1  19
TORSDOF 8
