REMARK  Name = ZINC35890835
REMARK  8 active torsions:
REMARK  status: ('A' for Active; 'I' for Inactive)
REMARK    1  A    between atoms: C_1  and  C_2
REMARK    2  A    between atoms: C_5  and  C_8
REMARK    3  A    between atoms: C_10  and  C_36
REMARK    4  A    between atoms: C_11  and  C_33
REMARK    5  A    between atoms: C_12  and  N_14
REMARK    6  A    between atoms: N_22  and  C_23
REMARK    7  A    between atoms: C_33  and  C_34
REMARK    8  A    between atoms: C_33  and  C_35
REMARK                            x       y       z     vdW  Elec       q    Type
REMARK                         _______ _______ _______ _____ _____    ______ ____
ROOT
ATOM      1  N   UNL     1      -0.445  -7.415  -1.163  0.00  0.00    -0.312 N 
ATOM      2  C   UNL     1      -0.491  -8.866  -0.937  0.00  0.00    +0.125 C 
ATOM      3  C   UNL     1      -1.878  -9.381  -1.339  0.00  0.00    +0.128 C 
ATOM      4  N   UNL     1      -2.203  -8.862  -2.675  0.00  0.00    -0.283 N 
ATOM      5  C   UNL     1      -2.158  -7.410  -2.901  0.00  0.00    +0.128 C 
ATOM      6  C   UNL     1      -0.775  -6.895  -2.498  0.00  0.00    +0.125 C 
ATOM      7  C   UNL     1      -2.537  -9.701  -3.675  0.00  0.00    +0.303 C 
ATOM      8  O   UNL     1      -2.475 -10.904  -3.506  0.00  0.00    -0.253 OA
ATOM      9  N   UNL     1      -2.938  -9.208  -4.864  0.00  0.00    -0.294 N 
ATOM     10  H   UNL     1      -2.920  -8.252  -5.023  0.00  0.00    +0.151 HD
ENDROOT
BRANCH   9  11
ATOM     11  C   UNL     1      -3.402 -10.117  -5.915  0.00  0.00    +0.037 C 
ATOM     12  C   UNL     1      -2.280 -11.091  -6.279  0.00  0.00    +0.029 C 
ATOM     13  C   UNL     1      -2.765 -12.040  -7.377  0.00  0.00    -0.008 C 
ATOM     14  C   UNL     1      -3.159 -11.231  -8.614  0.00  0.00    +0.007 C 
ATOM     15  C   UNL     1      -4.281 -10.257  -8.250  0.00  0.00    -0.008 C 
ATOM     16  C   UNL     1      -3.796  -9.307  -7.152  0.00  0.00    +0.029 C 
ATOM     17  C   UNL     1      -5.494 -11.041  -7.746  0.00  0.00    +0.007 C 
ATOM     18  C   UNL     1      -5.100 -11.851  -6.509  0.00  0.00    -0.008 C 
ATOM     19  C   UNL     1      -3.978 -12.825  -6.873  0.00  0.00    +0.007 C 
ATOM     20  C   UNL     1      -4.615 -10.902  -5.411  0.00  0.00    +0.029 C 
ENDBRANCH   9  11
BRANCH   1  25
ATOM     21  C   UNL     1      -0.697  -5.306   1.712  0.00  0.00    +0.140 A 
ATOM     22  N   UNL     1       0.545  -4.870   1.872  0.00  0.00    -0.343 N 
ATOM     23  C   UNL     1       1.511  -5.248   1.049  0.00  0.00    +0.021 A 
ATOM     24  C   UNL     1       1.215  -6.109   0.009  0.00  0.00    +0.014 A 
ATOM     25  C   UNL     1      -0.102  -6.551  -0.135  0.00  0.00    +0.129 A 
ATOM     26  N   UNL     1      -1.021  -6.136   0.731  0.00  0.00    -0.214 NA
ATOM     27  C   UNL     1       2.918  -4.744   1.244  0.00  0.00    +0.064 C 
ATOM     28  H   UNL     1       0.749  -4.266   2.603  0.00  0.00    +0.167 HD
BRANCH  21  33
ATOM     29  C   UNL     1      -4.779  -3.567   5.382  0.00  0.00    +0.044 C 
ATOM     30  C   UNL     1      -3.711  -4.022   4.422  0.00  0.00    -0.050 A 
ATOM     31  C   UNL     1      -4.033  -4.888   3.392  0.00  0.00    +0.004 A 
ATOM     32  C   UNL     1      -3.059  -5.308   2.510  0.00  0.00    +0.012 A 
ATOM     33  C   UNL     1      -1.748  -4.858   2.657  0.00  0.00    +0.017 A 
ATOM     34  C   UNL     1      -1.429  -3.985   3.696  0.00  0.00    +0.012 A 
ATOM     35  C   UNL     1      -2.413  -3.568   4.569  0.00  0.00    +0.004 A 
ENDBRANCH  21  33
BRANCH  24  36
ATOM     36  C   UNL     1       2.288  -6.559  -0.948  0.00  0.00    +0.018 C 
ATOM     37  C   UNL     1       2.132  -8.057  -1.221  0.00  0.00    +0.012 C 
ATOM     38  C   UNL     1       2.159  -5.785  -2.261  0.00  0.00    +0.012 C 
ENDBRANCH  24  36
ENDBRANCH   1  25
TORSDOF 4
