REMARK  Name = ZINC59059025
REMARK  13 active torsions:
REMARK  status: ('A' for Active; 'I' for Inactive)
REMARK    1  A    between atoms: C_1  and  C_2
REMARK    2  A    between atoms: C_2  and  O_3
REMARK    3  A    between atoms: O_3  and  C_4
REMARK    4  A    between atoms: C_4  and  C_6
REMARK    5  A    between atoms: C_7  and  C_38
REMARK    6  A    between atoms: C_14  and  C_15
REMARK    7  A    between atoms: C_20  and  O_21
REMARK    8  A    between atoms: O_21  and  C_22
REMARK    9  A    between atoms: C_22  and  C_23
REMARK   10  A    between atoms: C_26  and  C_28
REMARK   11  A    between atoms: C_31  and  O_34
REMARK   12  A    between atoms: O_34  and  C_35
REMARK   13  A    between atoms: C_35  and  C_36
REMARK                            x       y       z     vdW  Elec       q    Type
REMARK                         _______ _______ _______ _____ _____    ______ ____
ROOT
ATOM      1  C   UNL     1       2.680  -1.739  -1.765  0.00  0.00    +0.085 C 
ATOM      2  C   UNL     1       2.938  -3.081  -1.785  0.00  0.00    +0.053 C 
ATOM      3  N   UNL     1       3.395  -3.665  -2.886  0.00  0.00    -0.228 NA
ATOM      4  C   UNL     1       3.634  -3.046  -4.015  0.00  0.00    +0.178 A 
ATOM      5  N   UNL     1       3.441  -1.698  -4.210  0.00  0.00    -0.275 N 
ATOM      6  C   UNL     1       3.722  -1.177  -5.412  0.00  0.00    +0.268 A 
ATOM      7  O   UNL     1       3.568   0.011  -5.631  0.00  0.00    -0.266 OA
ATOM      8  C   UNL     1       4.222  -2.081  -6.456  0.00  0.00    +0.081 A 
ATOM      9  C   UNL     1       4.575  -1.806  -7.739  0.00  0.00    +0.032 C 
ATOM     10  S   UNL     1       4.239  -3.638  -5.583  0.00  0.00    -0.046 S 
ATOM     11  C   UNL     1       2.923  -0.950  -3.031  0.00  0.00    +0.162 C 
ATOM     12  C   UNL     1       2.703  -3.905  -0.545  0.00  0.00    +0.066 C 
ENDROOT
BRANCH   9  13
ATOM     13  C   UNL     1       5.248  -2.828  -8.550  0.00  0.00    +0.018 A 
ATOM     14  C   UNL     1       5.865  -3.923  -7.933  0.00  0.00    +0.011 A 
ATOM     15  C   UNL     1       6.495  -4.878  -8.700  0.00  0.00    +0.001 A 
ATOM     16  C   UNL     1       6.522  -4.759 -10.081  0.00  0.00    +0.004 A 
ATOM     17  C   UNL     1       5.918  -3.684 -10.703  0.00  0.00    +0.046 A 
ATOM     18  C   UNL     1       5.274  -2.716  -9.950  0.00  0.00    +0.129 A 
BRANCH  18  19
ATOM     19  O   UNL     1       4.675  -1.663 -10.561  0.00  0.00    -0.479 OA
BRANCH  19  20
ATOM     20  C   UNL     1       4.742  -1.617 -11.987  0.00  0.00    +0.317 C 
BRANCH  20  21
ATOM     21  C   UNL     1       4.044  -0.414 -12.473  0.00  0.00    -0.065 C 
ATOM     22  C   UNL     1       3.488   0.544 -12.860  0.00  0.00    +0.007 C 
ENDBRANCH  20  21
ENDBRANCH  19  20
ENDBRANCH  18  19
ENDBRANCH   9  13
BRANCH  11  23
ATOM     23  C   UNL     1       1.625  -0.295  -3.426  0.00  0.00    -0.020 A 
ATOM     24  C   UNL     1       0.653  -1.029  -4.081  0.00  0.00    +0.009 A 
ATOM     25  C   UNL     1      -0.538  -0.431  -4.444  0.00  0.00    +0.046 A 
ATOM     26  C   UNL     1      -0.759   0.907  -4.151  0.00  0.00    +0.121 A 
ATOM     27  C   UNL     1       0.217   1.641  -3.493  0.00  0.00    +0.046 A 
ATOM     28  C   UNL     1       1.404   1.037  -3.127  0.00  0.00    +0.009 A 
BRANCH  26  29
ATOM     29  O   UNL     1      -1.930   1.498  -4.508  0.00  0.00    -0.488 OA
BRANCH  29  30
ATOM     30  C   UNL     1      -2.089   2.878  -4.173  0.00  0.00    +0.256 C 
BRANCH  30  31
ATOM     31  C   UNL     1      -3.438   3.357  -4.644  0.00  0.00    +0.006 C 
ATOM     32  C   UNL     1      -4.185   4.089  -3.855  0.00  0.00    +0.007 C 
ENDBRANCH  30  31
ENDBRANCH  29  30
ENDBRANCH  26  29
ENDBRANCH  11  23
BRANCH   1  33
ATOM     33  C   UNL     1       2.197  -1.113  -0.605  0.00  0.00    +0.339 C 
ATOM     34  O   UNL     1       1.878  -1.783   0.361  0.00  0.00    -0.245 OA
BRANCH  33  35
ATOM     35  O   UNL     1       2.085   0.232  -0.560  0.00  0.00    -0.462 OA
BRANCH  35  37
ATOM     36  C   UNL     1       1.531   2.325   0.515  0.00  0.00    +0.048 C 
ATOM     37  C   UNL     1       1.586   0.802   0.652  0.00  0.00    +0.229 C 
ENDBRANCH  35  37
ENDBRANCH  33  35
ENDBRANCH   1  33
TORSDOF 11
