REMARK  Name = ZINC40054494
REMARK  10 active torsions:
REMARK  status: ('A' for Active; 'I' for Inactive)
REMARK    1  A    between atoms: C_2  and  C_3
REMARK    2  A    between atoms: C_3  and  O_4
REMARK    3  A    between atoms: O_4  and  C_5
REMARK    4  A    between atoms: C_9  and  C_11
REMARK    5  A    between atoms: C_11  and  C_13
REMARK    6  A    between atoms: N_17  and  C_27
REMARK    7  A    between atoms: C_18  and  C_20
REMARK    8  A    between atoms: C_27  and  C_28
REMARK    9  A    between atoms: C_28  and  C_29
REMARK   10  A    between atoms: C_29  and  O_30
REMARK                            x       y       z     vdW  Elec       q    Type
REMARK                         _______ _______ _______ _____ _____    ______ ____
ROOT
ATOM      1  C   UNL     1       4.757  -6.472   3.168  0.00  0.00    +0.076 C 
ATOM      2  C   UNL     1       4.843  -7.574   3.949  0.00  0.00    +0.249 C 
ATOM      3  C   UNL     1       6.170  -8.199   3.765  0.00  0.00    +0.288 C 
ATOM      4  O   UNL     1       6.551  -9.205   4.329  0.00  0.00    -0.266 OA
ATOM      5  N   UNL     1       6.892  -7.489   2.880  0.00  0.00    -0.283 N 
ATOM      6  C   UNL     1       6.071  -6.359   2.430  0.00  0.00    +0.145 C 
ATOM      7  O   UNL     1       3.868  -8.031   4.770  0.00  0.00    -0.282 OA
ENDROOT
BRANCH   6   8
ATOM      8  C   UNL     1       6.749  -5.058   2.777  0.00  0.00    -0.021 A 
ATOM      9  C   UNL     1       7.498  -4.957   3.935  0.00  0.00    +0.006 A 
ATOM     10  C   UNL     1       8.121  -3.765   4.254  0.00  0.00    +0.001 A 
ATOM     11  C   UNL     1       7.995  -2.673   3.415  0.00  0.00    +0.015 A 
ATOM     12  C   UNL     1       7.246  -2.774   2.257  0.00  0.00    +0.018 A 
ATOM     13  C   UNL     1       6.628  -3.969   1.935  0.00  0.00    +0.021 A 
ATOM     14 BR   UNL     1       7.073  -1.281   1.110  0.00  0.00    -0.050 Br
ENDBRANCH   6   8
BRANCH   1  15
ATOM     15  C   UNL     1       3.610  -5.567   3.054  0.00  0.00    +0.195 C 
ATOM     16  O   UNL     1       3.281  -4.880   4.003  0.00  0.00    -0.287 OA
BRANCH  15  21
ATOM     17  C   UNL     1       1.006  -4.624   0.512  0.00  0.00    +0.122 A 
ATOM     18  C   UNL     1       1.434  -5.350  -0.592  0.00  0.00    +0.046 A 
ATOM     19  C   UNL     1       2.564  -6.142  -0.509  0.00  0.00    +0.004 A 
ATOM     20  C   UNL     1       3.274  -6.217   0.672  0.00  0.00    +0.012 A 
ATOM     21  C   UNL     1       2.852  -5.490   1.787  0.00  0.00    +0.026 A 
ATOM     22  C   UNL     1       1.714  -4.686   1.700  0.00  0.00    +0.057 A 
BRANCH  17  23
ATOM     23  O   UNL     1      -0.106  -3.847   0.424  0.00  0.00    -0.488 OA
BRANCH  23  24
ATOM     24  C   UNL     1      -0.788  -3.830  -0.832  0.00  0.00    +0.256 C 
BRANCH  24  26
ATOM     25  C   UNL     1      -2.236  -2.067  -1.702  0.00  0.00    +0.007 C 
ATOM     26  C   UNL     1      -1.986  -2.921  -0.741  0.00  0.00    +0.006 C 
ENDBRANCH  24  26
ENDBRANCH  23  24
ENDBRANCH  17  23
ENDBRANCH  15  21
ENDBRANCH   1  15
BRANCH   5  27
ATOM     27  C   UNL     1       8.256  -7.793   2.438  0.00  0.00    +0.111 C 
BRANCH  27  28
ATOM     28  C   UNL     1       8.203  -8.702   1.209  0.00  0.00    +0.047 C 
BRANCH  28  29
ATOM     29  C   UNL     1       9.627  -9.020   0.749  0.00  0.00    +0.157 C 
BRANCH  29  30
ATOM     30  O   UNL     1       9.578  -9.869  -0.400  0.00  0.00    -0.395 OA
ATOM     31  H   UNL     1      10.447 -10.112  -0.747  0.00  0.00    +0.209 HD
ENDBRANCH  29  30
ENDBRANCH  28  29
ENDBRANCH  27  28
ENDBRANCH   5  27
TORSDOF 10
