REMARK  Name = ZINC39303590
REMARK  7 active torsions:
REMARK  status: ('A' for Active; 'I' for Inactive)
REMARK    1  A    between atoms: C_4  and  C_7
REMARK    2  A    between atoms: C_7  and  C_8
REMARK    3  A    between atoms: C_7  and  N_14
REMARK    4  A    between atoms: N_14  and  C_15
REMARK    5  A    between atoms: C_15  and  C_17
REMARK    6  A    between atoms: C_15  and  C_22
REMARK    7  A    between atoms: N_27  and  C_30
REMARK                            x       y       z     vdW  Elec       q    Type
REMARK                         _______ _______ _______ _____ _____    ______ ____
ROOT
ATOM      1  C   UNL     1       3.584  -1.387  -2.286  0.00  0.00    +0.055 C 
ENDROOT
BRANCH   1   2
ATOM      2  C   UNL     1       4.082  -2.136  -3.495  0.00  0.00    +0.206 C 
ATOM      3  O   UNL     1       4.269  -3.333  -3.432  0.00  0.00    -0.277 OA
ATOM      4  N   UNL     1       4.320  -1.477  -4.646  0.00  0.00    -0.300 N 
ATOM      5  C   UNL     1       4.203  -0.013  -4.707  0.00  0.00    +0.126 C 
ATOM      6  C   UNL     1       5.524   0.562  -5.231  0.00  0.00    +0.124 C 
ATOM      7  N   UNL     1       5.906  -0.169  -6.447  0.00  0.00    -0.327 N 
ATOM      8  C   UNL     1       6.023  -1.633  -6.386  0.00  0.00    +0.124 C 
ATOM      9  C   UNL     1       4.707  -2.208  -5.861  0.00  0.00    +0.126 C 
BRANCH   7  10
ATOM     10  C   UNL     1       6.152   0.513  -7.638  0.00  0.00    +0.035 C 
ATOM     11  C   UNL     1       6.362  -0.135  -8.831  0.00  0.00    +0.023 C 
ATOM     12  C   UNL     1       6.671   0.596 -10.000  0.00  0.00    -0.000 C 
ATOM     13  C   UNL     1       6.480   1.915 -10.123  0.00  0.00    +0.004 C 
ATOM     14  C   UNL     1       5.854   2.668  -8.988  0.00  0.00    +0.160 C 
ATOM     15  C   UNL     1       6.199   1.924  -7.709  0.00  0.00    +0.003 C 
ATOM     16  C   UNL     1       6.550   2.879  -6.839  0.00  0.00    +0.027 C 
ATOM     17  C   UNL     1       6.708   4.105  -7.528  0.00  0.00    +0.106 C 
ATOM     18  N   UNL     1       6.359   4.016  -8.777  0.00  0.00    -0.279 NA
ENDBRANCH   7  10
ENDBRANCH   1   2
BRANCH   1  19
ATOM     19  C   UNL     1       2.104  -1.140  -2.423  0.00  0.00    -0.015 A 
ATOM     20  C   UNL     1       1.074  -1.999  -2.228  0.00  0.00    +0.010 A 
ATOM     21  C   UNL     1      -0.220  -1.548  -2.413  0.00  0.00    +0.008 A 
ATOM     22  C   UNL     1      -0.419  -0.259  -2.783  0.00  0.00    +0.045 A 
ATOM     23  S   UNL     1       1.252   0.362  -2.875  0.00  0.00    -0.103 S 
ENDBRANCH   1  19
BRANCH   1  24
ATOM     24  N   UNL     1       3.838  -2.183  -1.078  0.00  0.00    +0.397 N 
ATOM     25  H   UNL     1       4.814  -2.436  -1.041  0.00  0.00    -0.083 HD
ATOM     26  H   UNL     1       3.275  -3.019  -1.101  0.00  0.00    -0.083 HD
BRANCH  24  27
ATOM     27  C   UNL     1       3.493  -1.392   0.111  0.00  0.00    -0.009 C 
BRANCH  27  31
ATOM     28  C   UNL     1       3.824  -3.841   3.595  0.00  0.00    +0.000 A 
ATOM     29  C   UNL     1       2.780  -2.943   3.478  0.00  0.00    +0.000 A 
ATOM     30  C   UNL     1       2.672  -2.150   2.351  0.00  0.00    +0.002 A 
ATOM     31  C   UNL     1       3.610  -2.255   1.340  0.00  0.00    -0.057 A 
ATOM     32  C   UNL     1       4.655  -3.153   1.458  0.00  0.00    +0.002 A 
ATOM     33  C   UNL     1       4.761  -3.947   2.584  0.00  0.00    +0.000 A 
ENDBRANCH  27  31
BRANCH  27  34
ATOM     34  C   UNL     1       4.435  -0.222   0.227  0.00  0.00    -0.057 A 
ATOM     35  C   UNL     1       5.777  -0.383  -0.063  0.00  0.00    +0.002 A 
ATOM     36  C   UNL     1       6.641   0.690   0.044  0.00  0.00    +0.000 A 
ATOM     37  C   UNL     1       6.164   1.925   0.440  0.00  0.00    +0.000 A 
ATOM     38  C   UNL     1       4.822   2.087   0.730  0.00  0.00    +0.000 A 
ATOM     39  C   UNL     1       3.957   1.015   0.619  0.00  0.00    +0.002 A 
ENDBRANCH  27  34
ENDBRANCH  24  27
ENDBRANCH   1  24
TORSDOF 7
