REMARK  Name = ZINC00222913
REMARK  5 active torsions:
REMARK  status: ('A' for Active; 'I' for Inactive)
REMARK    1  A    between atoms: C_1  and  C_2
REMARK    2  A    between atoms: C_2  and  C_3
REMARK    3  A    between atoms: C_6  and  C_9
REMARK    4  A    between atoms: C_12  and  C_20
REMARK    5  A    between atoms: C_25  and  C_26
REMARK                            x       y       z     vdW  Elec       q    Type
REMARK                         _______ _______ _______ _____ _____    ______ ____
ROOT
ATOM      1  C   UNL     1       2.946  -1.178   4.260  0.00  0.00    +0.106 C 
ATOM      2  C   UNL     1       3.180  -0.190   5.409  0.00  0.00    +0.059 C 
ATOM      3  C   UNL     1       3.868  -0.907   6.577  0.00  0.00    +0.145 C 
ATOM      4  N   UNL     1       3.145  -2.144   6.861  0.00  0.00    -0.206 N 
ATOM      5  C   UNL     1       2.296  -2.752   5.995  0.00  0.00    +0.236 A 
ATOM      6  N   UNL     1       1.837  -3.820   6.585  0.00  0.00    -0.092 NA
ATOM      7  N   UNL     1       2.341  -3.927   7.767  0.00  0.00    -0.021 NA
ATOM      8  N   UNL     1       3.147  -2.943   8.004  0.00  0.00    -0.042 NA
ATOM      9  N   UNL     1       2.040  -2.246   4.727  0.00  0.00    -0.305 N 
ATOM     10  H   UNL     1       1.308  -2.571   4.181  0.00  0.00    +0.150 HD
ENDROOT
BRANCH   3  11
ATOM     11  C   UNL     1       3.852  -0.019   7.795  0.00  0.00    -0.020 A 
ATOM     12  C   UNL     1       2.657   0.500   8.256  0.00  0.00    +0.006 A 
ATOM     13  C   UNL     1       2.642   1.315   9.373  0.00  0.00    +0.000 A 
ATOM     14  C   UNL     1       3.823   1.610  10.028  0.00  0.00    +0.000 A 
ATOM     15  C   UNL     1       5.018   1.090   9.568  0.00  0.00    +0.004 A 
ATOM     16  C   UNL     1       5.032   0.272   8.453  0.00  0.00    -0.045 A 
ATOM     17  C   UNL     1       6.334  -0.299   7.954  0.00  0.00    +0.044 C 
ENDBRANCH   3  11
BRANCH   1  21
ATOM     18  C   UNL     1       1.170   0.862   0.953  0.00  0.00    -0.048 A 
ATOM     19  C   UNL     1       2.526   0.591   0.951  0.00  0.00    +0.004 A 
ATOM     20  C   UNL     1       3.101  -0.069   2.021  0.00  0.00    +0.006 A 
ATOM     21  C   UNL     1       2.320  -0.458   3.094  0.00  0.00    -0.027 A 
ATOM     22  C   UNL     1       0.964  -0.186   3.096  0.00  0.00    +0.006 A 
ATOM     23  C   UNL     1       0.390   0.477   2.028  0.00  0.00    +0.004 A 
BRANCH  18  25
ATOM     24  C   UNL     1       0.591   3.091   0.033  0.00  0.00    +0.009 C 
ATOM     25  C   UNL     1       0.544   1.581  -0.213  0.00  0.00    +0.032 C 
ENDBRANCH  18  25
ENDBRANCH   1  21
TORSDOF 3
