REMARK  Name = ZINC38744177
REMARK  6 active torsions:
REMARK  status: ('A' for Active; 'I' for Inactive)
REMARK    1  A    between atoms: C_1  and  C_2
REMARK    2  A    between atoms: C_4  and  C_8
REMARK    3  A    between atoms: C_12  and  C_17
REMARK    4  A    between atoms: C_17  and  C_18
REMARK    5  A    between atoms: C_17  and  C_24
REMARK    6  A    between atoms: C_17  and  O_30
REMARK                            x       y       z     vdW  Elec       q    Type
REMARK                         _______ _______ _______ _____ _____    ______ ____
ROOT
ATOM      1  C   UNL     1      -0.976  -2.937  -1.266  0.00  0.00    +0.182 C 
ATOM      2  N   UNL     1      -0.538  -4.358  -1.243  0.00  0.00    -0.265 N 
ATOM      3  N   UNL     1      -1.435  -5.228  -0.698  0.00  0.00    -0.221 N 
ATOM      4  C   UNL     1      -1.412  -6.495  -0.141  0.00  0.00    +0.192 A 
ATOM      5  N   UNL     1      -2.632  -6.820   0.167  0.00  0.00    -0.128 NA
ATOM      6  N   UNL     1      -3.434  -5.859  -0.132  0.00  0.00    -0.121 NA
ATOM      7  C   UNL     1      -2.758  -4.874  -0.636  0.00  0.00    +0.211 A 
ATOM      8  S   UNL     1      -2.800  -3.214  -1.283  0.00  0.00    -0.058 S 
ATOM      9  H   UNL     1      -0.251  -4.663  -2.161  0.00  0.00    +0.168 HD
ENDROOT
BRANCH   1  13
ATOM     10  C   UNL     1      -0.018   1.503   0.010  0.00  0.00    +0.067 C 
ATOM     11  C   UNL     1       0.002  -0.004   0.002  0.00  0.00    +0.058 C 
ATOM     12  C   UNL     1      -1.086  -0.777   0.003  0.00  0.00    +0.029 C 
ATOM     13  C   UNL     1      -0.531  -2.190  -0.007  0.00  0.00    +0.185 C 
ATOM     14  N   UNL     1       0.926  -1.973  -0.013  0.00  0.00    -0.177 NA
ATOM     15  N   UNL     1       1.125  -0.756  -0.013  0.00  0.00    -0.159 NA
ENDBRANCH   1  13
BRANCH   4  16
ATOM     16  C   UNL     1      -0.188  -7.348   0.070  0.00  0.00    +0.177 C 
BRANCH  16  17
ATOM     17  C   UNL     1      -0.590  -8.655   0.702  0.00  0.00    -0.004 A 
ATOM     18  C   UNL     1      -1.836  -9.194   0.444  0.00  0.00    +0.007 A 
ATOM     19  C   UNL     1      -2.205 -10.393   1.023  0.00  0.00    +0.000 A 
ATOM     20  C   UNL     1      -1.327 -11.055   1.861  0.00  0.00    +0.000 A 
ATOM     21  C   UNL     1      -0.080 -10.517   2.119  0.00  0.00    +0.000 A 
ATOM     22  C   UNL     1       0.291  -9.320   1.536  0.00  0.00    +0.007 A 
ENDBRANCH  16  17
BRANCH  16  23
ATOM     23  C   UNL     1       0.474  -7.614  -1.257  0.00  0.00    -0.004 A 
ATOM     24  C   UNL     1      -0.286  -7.666  -2.411  0.00  0.00    +0.007 A 
ATOM     25  C   UNL     1       0.322  -7.910  -3.628  0.00  0.00    +0.000 A 
ATOM     26  C   UNL     1       1.689  -8.102  -3.692  0.00  0.00    +0.000 A 
ATOM     27  C   UNL     1       2.449  -8.049  -2.539  0.00  0.00    +0.000 A 
ATOM     28  C   UNL     1       1.843  -7.800  -1.322  0.00  0.00    +0.007 A 
ENDBRANCH  16  23
BRANCH  16  29
ATOM     29  O   UNL     1       0.727  -6.664   0.930  0.00  0.00    -0.372 OA
ATOM     30  H   UNL     1       1.028  -5.812   0.586  0.00  0.00    +0.212 HD
ENDBRANCH  16  29
ENDBRANCH   4  16
TORSDOF 5
