REMARK  Name = ZINC39325043
REMARK  10 active torsions:
REMARK  status: ('A' for Active; 'I' for Inactive)
REMARK    1  A    between atoms: C_1  and  O_2
REMARK    2  A    between atoms: O_2  and  C_3
REMARK    3  A    between atoms: C_6  and  S_9
REMARK    4  A    between atoms: S_9  and  N_12
REMARK    5  A    between atoms: N_12  and  C_13
REMARK    6  A    between atoms: N_12  and  C_21
REMARK    7  A    between atoms: C_13  and  C_14
REMARK    8  A    between atoms: C_21  and  C_22
REMARK    9  A    between atoms: C_27  and  O_34
REMARK   10  A    between atoms: O_34  and  C_35
REMARK                            x       y       z     vdW  Elec       q    Type
REMARK                         _______ _______ _______ _____ _____    ______ ____
ROOT
ATOM      1  N   UNL     1       1.476  -3.005   5.784  0.00  0.00    -0.171 NA
ENDROOT
BRANCH   1   2
ATOM      2  S   UNL     1       2.134  -2.697   4.295  0.00  0.00    +0.061 S 
ATOM      3  O   UNL     1       2.589  -3.944   3.787  0.00  0.00    -0.153 OA
ATOM      4  O   UNL     1       2.996  -1.579   4.456  0.00  0.00    -0.153 OA
BRANCH   2   8
ATOM      5  C   UNL     1      -1.241  -1.352   1.593  0.00  0.00    +0.120 A 
ATOM      6  C   UNL     1      -0.527  -0.418   2.330  0.00  0.00    +0.047 A 
ATOM      7  C   UNL     1       0.502  -0.831   3.154  0.00  0.00    +0.032 A 
ATOM      8  C   UNL     1       0.820  -2.174   3.244  0.00  0.00    +0.106 A 
ATOM      9  C   UNL     1       0.111  -3.106   2.510  0.00  0.00    +0.032 A 
ATOM     10  C   UNL     1      -0.923  -2.699   1.689  0.00  0.00    +0.047 A 
BRANCH   5  12
ATOM     11  C   UNL     1      -2.526   0.454   0.732  0.00  0.00    +0.277 C 
ATOM     12  O   UNL     1      -2.254  -0.948   0.781  0.00  0.00    -0.495 OA
ENDBRANCH   5  12
ENDBRANCH   2   8
ENDBRANCH   1   2
BRANCH   1  13
ATOM     13  C   UNL     1       0.978  -4.346   6.101  0.00  0.00    +0.144 C 
BRANCH  13  14
ATOM     14  C   UNL     1       2.063  -5.136   6.785  0.00  0.00    -0.031 A 
ATOM     15  C   UNL     1       2.948  -5.888   6.034  0.00  0.00    +0.008 A 
ATOM     16  C   UNL     1       3.944  -6.614   6.660  0.00  0.00    +0.038 A 
ATOM     17  C   UNL     1       4.056  -6.586   8.040  0.00  0.00    +0.123 A 
ATOM     18  C   UNL     1       3.170  -5.833   8.791  0.00  0.00    +0.038 A 
ATOM     19  C   UNL     1       2.178  -5.104   8.162  0.00  0.00    +0.008 A 
ATOM     20  F   UNL     1       5.030  -7.295   8.652  0.00  0.00    -0.205 F 
ENDBRANCH  13  14
ENDBRANCH   1  13
BRANCH   1  21
ATOM     21  C   UNL     1       1.392  -1.937   6.783  0.00  0.00    +0.126 C 
BRANCH  21  22
ATOM     22  C   UNL     1       0.127  -1.112   6.542  0.00  0.00    +0.114 C 
ATOM     23  C   UNL     1       0.208   0.128   7.411  0.00  0.00    -0.003 C 
ATOM     24  C   UNL     1      -0.799   0.332   8.306  0.00  0.00    -0.004 A 
ATOM     25  C   UNL     1      -0.798   1.503   9.182  0.00  0.00    +0.055 A 
ATOM     26  C   UNL     1      -1.826   1.666  10.062  0.00  0.00    +0.121 A 
ATOM     27  C   UNL     1      -2.872   0.738  10.137  0.00  0.00    +0.047 A 
ATOM     28  C   UNL     1      -2.927  -0.366   9.350  0.00  0.00    +0.027 A 
ATOM     29  C   UNL     1      -1.914  -0.627   8.408  0.00  0.00    +0.041 A 
ATOM     30  N   UNL     1      -1.981  -1.715   7.642  0.00  0.00    -0.284 N 
ATOM     31  C   UNL     1      -1.065  -2.021   6.740  0.00  0.00    +0.225 C 
ATOM     32  O   UNL     1      -1.181  -3.030   6.070  0.00  0.00    -0.275 OA
ATOM     33  H   UNL     1      -2.738  -2.312   7.752  0.00  0.00    +0.155 HD
BRANCH  26  34
ATOM     34  O   UNL     1      -1.836   2.750  10.882  0.00  0.00    -0.495 OA
ATOM     35  C   UNL     1      -2.938   2.870  11.784  0.00  0.00    +0.277 C 
ENDBRANCH  26  34
ENDBRANCH  21  22
ENDBRANCH   1  21
TORSDOF 8
