REMARK  Name = ZINC17088665
REMARK  12 active torsions:
REMARK  status: ('A' for Active; 'I' for Inactive)
REMARK    1  A    between atoms: C_1  and  C_2
REMARK    2  A    between atoms: C_2  and  C_3
REMARK    3  A    between atoms: C_3  and  C_21
REMARK    4  A    between atoms: N_4  and  N_5
REMARK    5  A    between atoms: C_6  and  C_8
REMARK    6  A    between atoms: C_10  and  C_18
REMARK    7  A    between atoms: C_12  and  C_15
REMARK    8  A    between atoms: C_13  and  O_14
REMARK    9  A    between atoms: C_15  and  C_16
REMARK   10  A    between atoms: C_15  and  C_17
REMARK   11  A    between atoms: C_18  and  C_19
REMARK   12  A    between atoms: C_18  and  C_20
REMARK                            x       y       z     vdW  Elec       q    Type
REMARK                         _______ _______ _______ _____ _____    ______ ____
ROOT
ATOM      1  N   UNL     1      -1.176   5.712   1.980  0.00  0.00    -0.203 N 
ATOM      2  C   UNL     1      -1.667   4.822   2.866  0.00  0.00    +0.267 C 
ATOM      3  O   UNL     1      -2.238   5.212   3.866  0.00  0.00    -0.268 OA
ATOM      4  H   UNL     1      -0.721   5.402   1.182  0.00  0.00    +0.178 HD
ENDROOT
BRANCH   2   5
ATOM      5  C   UNL     1      -1.513   3.376   2.620  0.00  0.00    +0.080 A 
ATOM      6  C   UNL     1      -0.854   2.924   1.474  0.00  0.00    +0.020 A 
ATOM      7  C   UNL     1      -0.718   1.572   1.248  0.00  0.00    -0.044 A 
ATOM      8  C   UNL     1      -1.222   0.657   2.158  0.00  0.00    +0.011 A 
ATOM      9  C   UNL     1      -1.871   1.090   3.297  0.00  0.00    -0.002 A 
ATOM     10  C   UNL     1      -2.022   2.447   3.538  0.00  0.00    +0.132 A 
BRANCH   9  11
ATOM     11  C   UNL     1      -2.416   0.086   4.280  0.00  0.00    +0.016 C 
ATOM     12  C   UNL     1      -3.447  -0.803   3.582  0.00  0.00    +0.012 C 
ATOM     13  C   UNL     1      -1.273  -0.781   4.811  0.00  0.00    +0.012 C 
ENDBRANCH   9  11
BRANCH   7  14
ATOM     14  C   UNL     1      -0.013   1.086   0.008  0.00  0.00    +0.013 C 
ATOM     15  C   UNL     1       1.423   1.615  -0.003  0.00  0.00    +0.012 C 
ATOM     16  C   UNL     1      -0.753   1.593  -1.232  0.00  0.00    +0.012 C 
ENDBRANCH   7  14
BRANCH  10  17
ATOM     17  O   UNL     1      -2.660   2.874   4.657  0.00  0.00    -0.506 OA
ATOM     18  H   UNL     1      -2.076   3.006   5.416  0.00  0.00    +0.292 HD
ENDBRANCH  10  17
ENDBRANCH   2   5
BRANCH   1  20
ATOM     19  C   UNL     1      -0.857   7.931   1.373  0.00  0.00    +0.043 C 
ATOM     20  N   UNL     1      -1.323   7.086   2.213  0.00  0.00    -0.188 NA
BRANCH  19  21
ATOM     21  C   UNL     1      -1.015   9.409   1.623  0.00  0.00    +0.011 C 
ATOM     22  C   UNL     1      -1.808  10.038   0.476  0.00  0.00    +0.016 C 
ATOM     23  C   UNL     1      -1.969  11.538   0.731  0.00  0.00    -0.010 C 
ATOM     24  C   UNL     1      -2.717  11.755   2.048  0.00  0.00    +0.007 C 
ATOM     25  C   UNL     1      -1.923  11.126   3.195  0.00  0.00    -0.010 C 
ATOM     26  C   UNL     1      -1.763   9.626   2.940  0.00  0.00    +0.016 C 
ATOM     27  C   UNL     1      -0.542  11.779   3.279  0.00  0.00    +0.007 C 
ATOM     28  C   UNL     1       0.205  11.562   1.961  0.00  0.00    -0.010 C 
ATOM     29  C   UNL     1      -0.588  12.192   0.815  0.00  0.00    +0.007 C 
ATOM     30  C   UNL     1       0.366  10.062   1.707  0.00  0.00    +0.016 C 
ENDBRANCH  19  21
BRANCH  19  32
ATOM     31  C   UNL     1      -1.165   7.271  -0.998  0.00  0.00    +0.010 C 
ATOM     32  C   UNL     1      -0.149   7.448   0.133  0.00  0.00    +0.049 C 
ENDBRANCH  19  32
ENDBRANCH   1  20
TORSDOF 7
