REMARK  Name = ZINC05522629
REMARK  7 active torsions:
REMARK  status: ('A' for Active; 'I' for Inactive)
REMARK    1  A    between atoms: C_1  and  C_2
REMARK    2  A    between atoms: C_2  and  C_3
REMARK    3  A    between atoms: C_2  and  O_4
REMARK    4  A    between atoms: O_4  and  C_5
REMARK    5  A    between atoms: C_5  and  C_7
REMARK    6  A    between atoms: C_10  and  N_13
REMARK    7  A    between atoms: N_16  and  C_17
REMARK                            x       y       z     vdW  Elec       q    Type
REMARK                         _______ _______ _______ _____ _____    ______ ____
ROOT
ATOM      1  N   UNL     1      -1.191   1.869   0.018  0.00  0.00    -0.269 N 
ATOM      2  C   UNL     1      -0.027   1.208   0.180  0.00  0.00    +0.304 C 
ATOM      3  O   UNL     1      -0.030   0.002   0.332  0.00  0.00    -0.252 OA
ATOM      4  N   UNL     1       1.139   1.884   0.167  0.00  0.00    -0.294 N 
ATOM      5  H   UNL     1      -1.196   2.838  -0.027  0.00  0.00    +0.156 HD
ATOM      6  H   UNL     1       1.141   2.846   0.045  0.00  0.00    +0.151 HD
ENDROOT
BRANCH   4   7
ATOM      7  C   UNL     1       2.404   1.164   0.336  0.00  0.00    +0.037 C 
ATOM      8  C   UNL     1       2.560   0.136  -0.785  0.00  0.00    +0.029 C 
ATOM      9  C   UNL     1       3.881  -0.616  -0.608  0.00  0.00    -0.008 C 
ATOM     10  C   UNL     1       5.044   0.377  -0.661  0.00  0.00    +0.007 C 
ATOM     11  C   UNL     1       4.888   1.406   0.460  0.00  0.00    -0.008 C 
ATOM     12  C   UNL     1       3.567   2.158   0.283  0.00  0.00    +0.029 C 
ATOM     13  C   UNL     1       4.890   0.691   1.813  0.00  0.00    +0.007 C 
ATOM     14  C   UNL     1       3.727  -0.302   1.866  0.00  0.00    -0.008 C 
ATOM     15  C   UNL     1       3.883  -1.331   0.745  0.00  0.00    +0.007 C 
ATOM     16  C   UNL     1       2.406   0.449   1.689  0.00  0.00    +0.029 C 
ENDBRANCH   4   7
BRANCH   1  20
ATOM     17  C   UNL     1      -4.764  -0.248  -0.292  0.00  0.00    +0.059 A 
ATOM     18  C   UNL     1      -4.744   1.007   0.325  0.00  0.00    +0.017 A 
ATOM     19  C   UNL     1      -3.561   1.703   0.426  0.00  0.00    +0.024 A 
ATOM     20  C   UNL     1      -2.387   1.161  -0.086  0.00  0.00    +0.035 A 
ATOM     21  C   UNL     1      -2.404  -0.085  -0.705  0.00  0.00    +0.024 A 
ATOM     22  C   UNL     1      -3.582  -0.790  -0.805  0.00  0.00    +0.017 A 
BRANCH  17  23
ATOM     23  C   UNL     1      -6.029  -0.997  -0.401  0.00  0.00    +0.339 C 
ATOM     24  O   UNL     1      -7.056  -0.525   0.045  0.00  0.00    -0.245 OA
BRANCH  23  25
ATOM     25  O   UNL     1      -6.047  -2.206  -0.996  0.00  0.00    -0.458 OA
BRANCH  25  27
ATOM     26  C   UNL     1      -7.365  -3.771  -2.317  0.00  0.00    +0.052 C 
ATOM     27  C   UNL     1      -7.327  -2.887  -1.069  0.00  0.00    +0.171 C 
ATOM     28  C   UNL     1      -7.514  -3.756   0.177  0.00  0.00    +0.052 C 
ENDBRANCH  25  27
ENDBRANCH  23  25
ENDBRANCH  17  23
ENDBRANCH   1  20
TORSDOF 5
