REMARK  Name = ZINC13065568
REMARK  13 active torsions:
REMARK  status: ('A' for Active; 'I' for Inactive)
REMARK    1  A    between atoms: C_1  and  C_2
REMARK    2  A    between atoms: C_2  and  O_3
REMARK    3  A    between atoms: O_3  and  C_4
REMARK    4  A    between atoms: C_11  and  C_16
REMARK    5  A    between atoms: C_16  and  N_70
REMARK    6  A    between atoms: C_17  and  C_18
REMARK    7  A    between atoms: C_17  and  N_70
REMARK    8  A    between atoms: C_18  and  C_19
REMARK    9  A    between atoms: C_23  and  C_25
REMARK   10  A    between atoms: C_26  and  C_27
REMARK   11  A    between atoms: C_26  and  N_70
REMARK   12  A    between atoms: N_31  and  C_32
REMARK   13  A    between atoms: C_32  and  C_33
REMARK                            x       y       z     vdW  Elec       q    Type
REMARK                         _______ _______ _______ _____ _____    ______ ____
ROOT
ATOM      1  N   UNL     1       1.799  -2.831  -1.522  0.00  0.00    +0.387 N 
ATOM      2  H   UNL     1       0.990  -2.699  -2.140  0.00  0.00    -0.081 HD
ENDROOT
BRANCH   1   3
ATOM      3  C   UNL     1       1.933  -4.269  -1.207  0.00  0.00    -0.037 C 
BRANCH   3  11
ATOM      4  C   UNL     1      -3.486  -7.050  -2.356  0.00  0.00    +0.121 A 
ATOM      5  C   UNL     1      -3.980  -6.957  -1.056  0.00  0.00    +0.047 A 
ATOM      6  C   UNL     1      -3.232  -6.367  -0.061  0.00  0.00    +0.030 A 
ATOM      7  C   UNL     1      -1.971  -5.857  -0.350  0.00  0.00    +0.049 A 
ATOM      8  C   UNL     1      -1.468  -5.948  -1.661  0.00  0.00    +0.002 A 
ATOM      9  C   UNL     1      -2.237  -6.550  -2.663  0.00  0.00    +0.055 A 
ATOM     10  C   UNL     1      -0.139  -5.407  -1.952  0.00  0.00    +0.017 A 
ATOM     11  C   UNL     1       0.562  -4.835  -0.942  0.00  0.00    +0.001 A 
ATOM     12  C   UNL     1       0.015  -4.773   0.357  0.00  0.00    +0.251 A 
ATOM     13  O   UNL     1       0.665  -4.259   1.252  0.00  0.00    -0.268 OA
ATOM     14  N   UNL     1      -1.206  -5.262   0.633  0.00  0.00    -0.322 N 
ATOM     15  H   UNL     1      -1.554  -5.199   1.536  0.00  0.00    +0.169 HD
BRANCH   4  16
ATOM     16  O   UNL     1      -4.238  -7.636  -3.325  0.00  0.00    -0.492 OA
BRANCH  16  18
ATOM     17  C   UNL     1      -6.215  -8.752  -4.155  0.00  0.00    +0.048 C 
ATOM     18  C   UNL     1      -5.521  -8.133  -2.939  0.00  0.00    +0.225 C 
ENDBRANCH  16  18
ENDBRANCH   4  16
ENDBRANCH   3  11
ENDBRANCH   1   3
BRANCH   1  19
ATOM     19  C   UNL     1       3.014  -2.349  -2.212  0.00  0.00    -0.073 C 
BRANCH  19  20
ATOM     20  C   UNL     1       3.012  -2.887  -3.644  0.00  0.00    +0.016 C 
BRANCH  20  21
ATOM     21  C   UNL     1       4.291  -2.486  -4.333  0.00  0.00    -0.049 A 
ATOM     22  C   UNL     1       4.355  -1.295  -5.033  0.00  0.00    +0.003 A 
ATOM     23  C   UNL     1       5.529  -0.926  -5.662  0.00  0.00    +0.001 A 
ATOM     24  C   UNL     1       6.637  -1.751  -5.598  0.00  0.00    +0.003 A 
ATOM     25  C   UNL     1       6.571  -2.944  -4.903  0.00  0.00    -0.050 A 
ATOM     26  C   UNL     1       5.398  -3.312  -4.271  0.00  0.00    +0.007 A 
ATOM     27  C   UNL     1       7.778  -3.844  -4.835  0.00  0.00    +0.044 C 
ENDBRANCH  20  21
ENDBRANCH  19  20
ENDBRANCH   1  19
BRANCH   1  28
ATOM     28  C   UNL     1       1.584  -2.059  -0.280  0.00  0.00    +0.001 C 
BRANCH  28  29
ATOM     29  C   UNL     1       1.301  -0.624  -0.640  0.00  0.00    +0.135 A 
ATOM     30  N   UNL     1       2.187   0.318  -0.855  0.00  0.00    -0.115 NA
ATOM     31  N   UNL     1       1.553   1.404  -1.137  0.00  0.00    -0.023 NA
ATOM     32  N   UNL     1       0.286   1.179  -1.107  0.00  0.00    -0.044 NA
ATOM     33  N   UNL     1       0.090  -0.060  -0.805  0.00  0.00    -0.227 N 
BRANCH  33  34
ATOM     34  C   UNL     1      -1.206  -0.728  -0.667  0.00  0.00    +0.182 C 
BRANCH  34  35
ATOM     35  C   UNL     1      -1.706  -1.141  -2.028  0.00  0.00    -0.026 A 
ATOM     36  C   UNL     1      -2.404  -0.240  -2.810  0.00  0.00    +0.008 A 
ATOM     37  C   UNL     1      -2.858  -0.617  -4.060  0.00  0.00    +0.038 A 
ATOM     38  C   UNL     1      -2.623  -1.900  -4.524  0.00  0.00    +0.123 A 
ATOM     39  C   UNL     1      -1.928  -2.803  -3.737  0.00  0.00    +0.038 A 
ATOM     40  C   UNL     1      -1.470  -2.423  -2.490  0.00  0.00    +0.008 A 
ATOM     41  F   UNL     1      -3.071  -2.271  -5.743  0.00  0.00    -0.205 F 
ENDBRANCH  34  35
ENDBRANCH  33  34
ENDBRANCH  28  29
ENDBRANCH   1  28
TORSDOF 11
