REMARK  Name = ZINC42017850
REMARK  4 active torsions:
REMARK  status: ('A' for Active; 'I' for Inactive)
REMARK    1  A    between atoms: C_4  and  C_7
REMARK    2  A    between atoms: C_7  and  C_13
REMARK    3  A    between atoms: N_15  and  N_16
REMARK    4  A    between atoms: C_17  and  C_19
REMARK                            x       y       z     vdW  Elec       q    Type
REMARK                         _______ _______ _______ _____ _____    ______ ____
ROOT
ATOM      1  C   UNL     1       4.433  -0.419  -1.329  0.00  0.00    +0.240 C 
ATOM      2  O   UNL     1       4.634  -1.314  -2.123  0.00  0.00    -0.273 OA
ATOM      3  N   UNL     1       4.854   0.831  -1.601  0.00  0.00    -0.233 N 
ATOM      4  H   UNL     1       4.759   1.531  -0.936  0.00  0.00    +0.173 HD
ENDROOT
BRANCH   1   5
ATOM      5  C   UNL     1       3.711  -0.707  -0.038  0.00  0.00    +0.077 C 
ATOM      6  C   UNL     1       4.553  -0.214   1.143  0.00  0.00    +0.049 C 
ATOM      7  C   UNL     1       5.871  -0.992   1.180  0.00  0.00    +0.161 C 
ATOM      8  O   UNL     1       5.595  -2.391   1.278  0.00  0.00    -0.380 OA
ATOM      9  C   UNL     1       4.850  -2.917   0.178  0.00  0.00    +0.161 C 
ATOM     10  C   UNL     1       3.491  -2.217   0.101  0.00  0.00    +0.049 C 
BRANCH   5  14
ATOM     11  C   UNL     1      -0.065   1.291  -0.033  0.00  0.00    +0.000 A 
ATOM     12  C   UNL     1       0.260   0.429  -1.063  0.00  0.00    +0.000 A 
ATOM     13  C   UNL     1       1.482  -0.218  -1.065  0.00  0.00    +0.004 A 
ATOM     14  C   UNL     1       2.379  -0.002  -0.036  0.00  0.00    -0.032 A 
ATOM     15  C   UNL     1       2.055   0.861   0.994  0.00  0.00    +0.004 A 
ATOM     16  C   UNL     1       0.833   1.507   0.996  0.00  0.00    +0.000 A 
ENDBRANCH   5  14
ENDBRANCH   1   5
BRANCH   3  17
ATOM     17  N   UNL     1       5.431   1.121  -2.845  0.00  0.00    -0.230 N 
ATOM     18  C   UNL     1       5.853   2.372  -3.117  0.00  0.00    +0.267 C 
ATOM     19  O   UNL     1       5.732   3.250  -2.283  0.00  0.00    -0.268 OA
ATOM     20  H   UNL     1       5.527   0.421  -3.510  0.00  0.00    +0.173 HD
BRANCH  18  21
ATOM     21  C   UNL     1       6.456   2.675  -4.418  0.00  0.00    +0.076 A 
ATOM     22  C   UNL     1       6.952   3.874  -4.891  0.00  0.00    +0.024 A 
ATOM     23  C   UNL     1       7.474   3.877  -6.181  0.00  0.00    -0.036 A 
ATOM     24  C   UNL     1       7.441   2.696  -6.851  0.00  0.00    -0.006 A 
ATOM     25  S   UNL     1       6.748   1.591  -5.802  0.00  0.00    -0.088 S 
ATOM     26  C   UNL     1       7.924   2.415  -8.244  0.00  0.00    +0.043 C 
ATOM     27  C   UNL     1       9.068   3.374  -8.591  0.00  0.00    +0.005 C 
ATOM     28  C   UNL     1       8.475   4.637  -9.206  0.00  0.00    +0.001 C 
ATOM     29  C   UNL     1       7.541   5.329  -8.217  0.00  0.00    +0.005 C 
ATOM     30  C   UNL     1       8.050   5.152  -6.790  0.00  0.00    +0.036 C 
ENDBRANCH  18  21
ENDBRANCH   3  17
TORSDOF 4
