REMARK  Name = ZINC43210519
REMARK  11 active torsions:
REMARK  status: ('A' for Active; 'I' for Inactive)
REMARK    1  A    between atoms: C_1  and  C_2
REMARK    2  A    between atoms: C_2  and  O_4
REMARK    3  A    between atoms: O_4  and  C_5
REMARK    4  A    between atoms: C_8  and  C_11
REMARK    5  A    between atoms: N_19  and  C_22
REMARK    6  A    between atoms: C_22  and  C_23
REMARK    7  A    between atoms: C_22  and  C_24
REMARK    8  A    between atoms: C_22  and  C_25
REMARK    9  A    between atoms: C_26  and  C_28
REMARK   10  A    between atoms: C_26  and  C_39
REMARK   11  A    between atoms: C_28  and  C_29
REMARK                            x       y       z     vdW  Elec       q    Type
REMARK                         _______ _______ _______ _____ _____    ______ ____
ROOT
ATOM      1  C   UNL     1      -1.291  -6.320  -0.158  0.00  0.00    -0.027 C 
ATOM      2  C   UNL     1      -1.667  -6.890   1.206  0.00  0.00    +0.077 C 
ATOM      3  C   UNL     1      -2.083  -8.326   0.709  0.00  0.00    +0.086 C 
ATOM      4  C   UNL     1      -2.060  -9.086   1.936  0.00  0.00    +0.225 C 
ATOM      5  O   UNL     1      -2.778 -10.013   2.244  0.00  0.00    -0.275 OA
ATOM      6  N   UNL     1      -1.048  -8.530   2.679  0.00  0.00    -0.236 N 
ATOM      7  C   UNL     1      -0.615  -7.318   2.180  0.00  0.00    +0.225 C 
ATOM      8  O   UNL     1       0.403  -6.723   2.462  0.00  0.00    -0.275 OA
ATOM      9  C   UNL     1      -2.969  -8.052  -0.428  0.00  0.00    +0.052 C 
ATOM     10  N   UNL     1      -2.400  -6.796  -1.047  0.00  0.00    +0.396 N 
ATOM     11  H   UNL     1      -3.122  -6.093  -1.100  0.00  0.00    -0.083 HD
ATOM     12  H   UNL     1      -2.040  -6.990  -1.970  0.00  0.00    -0.083 HD
ENDROOT
BRANCH   1  16
ATOM     13  C   UNL     1      -1.185  -2.049  -0.031  0.00  0.00    +0.132 A 
ATOM     14  C   UNL     1      -0.003  -2.775  -0.004  0.00  0.00    +0.046 A 
ATOM     15  C   UNL     1      -0.040  -4.155  -0.045  0.00  0.00    +0.005 A 
ATOM     16  C   UNL     1      -1.253  -4.814  -0.113  0.00  0.00    -0.060 A 
ATOM     17  C   UNL     1      -2.433  -4.093  -0.142  0.00  0.00    +0.005 A 
ATOM     18  C   UNL     1      -2.402  -2.713  -0.095  0.00  0.00    +0.046 A 
BRANCH  13  19
ATOM     19  O   UNL     1      -1.151  -0.691   0.009  0.00  0.00    -0.426 OA
BRANCH  19  21
ATOM     20  C   UNL     1      -0.883   1.471  -1.153  0.00  0.00    +0.136 C 
ATOM     21  C   UNL     1      -0.826  -0.035  -1.116  0.00  0.00    +0.309 C 
ATOM     22  O   UNL     1      -0.487  -0.651  -2.098  0.00  0.00    -0.251 OA
ENDBRANCH  19  21
ENDBRANCH  13  19
ENDBRANCH   1  16
BRANCH   6  23
ATOM     23  C   UNL     1      -0.492  -9.149   3.884  0.00  0.00    +0.036 C 
ATOM     24  C   UNL     1       0.089 -10.520   3.532  0.00  0.00    +0.031 C 
ATOM     25  C   UNL     1       0.615  -8.257   4.451  0.00  0.00    +0.031 C 
ATOM     26  C   UNL     1      -1.597  -9.316   4.928  0.00  0.00    +0.031 C 
ENDBRANCH   6  23
BRANCH   9  27
ATOM     27  C   UNL     1      -4.383  -7.839   0.047  0.00  0.00    +0.347 C 
ATOM     28  O   UNL     1      -4.947  -6.780  -0.171  0.00  0.00    -0.248 OA
ATOM     29  O   UNL     1      -4.964  -8.726   0.649  0.00  0.00    -0.248 OA
ENDBRANCH   9  27
BRANCH   9  30
ATOM     30  C   UNL     1      -2.911  -9.199  -1.439  0.00  0.00    +0.037 C 
BRANCH  30  31
ATOM     31  C   UNL     1      -3.731  -8.842  -2.652  0.00  0.00    -0.023 A 
ATOM     32  C   UNL     1      -5.012  -9.174  -2.877  0.00  0.00    +0.087 A 
ATOM     33  N   UNL     1      -5.419  -8.675  -4.084  0.00  0.00    -0.360 N 
ATOM     34  H   UNL     1      -6.305  -8.786  -4.462  0.00  0.00    +0.165 HD
ATOM     35  C   UNL     1      -4.384  -7.991  -4.681  0.00  0.00    +0.047 A 
ATOM     36  C   UNL     1      -3.283  -8.060  -3.807  0.00  0.00    +0.003 A 
ATOM     37  C   UNL     1      -2.079  -7.442  -4.153  0.00  0.00    +0.010 A 
ATOM     38  C   UNL     1      -1.978  -6.769  -5.338  0.00  0.00    +0.001 A 
ATOM     39  C   UNL     1      -3.063  -6.695  -6.201  0.00  0.00    +0.002 A 
ATOM     40  C   UNL     1      -4.257  -7.305  -5.884  0.00  0.00    +0.026 A 
ENDBRANCH  30  31
ENDBRANCH   9  30
TORSDOF 7
