REMARK  Name = ZINC12823512
REMARK  7 active torsions:
REMARK  status: ('A' for Active; 'I' for Inactive)
REMARK    1  A    between atoms: C_1  and  C_2
REMARK    2  A    between atoms: C_2  and  C_3
REMARK    3  A    between atoms: C_2  and  C_4
REMARK    4  A    between atoms: C_2  and  C_5
REMARK    5  A    between atoms: C_16  and  N_19
REMARK    6  A    between atoms: N_19  and  S_20
REMARK    7  A    between atoms: S_20  and  C_23
REMARK                            x       y       z     vdW  Elec       q    Type
REMARK                         _______ _______ _______ _____ _____    ______ ____
ROOT
ATOM      1  C   UNL     1      -2.148   8.187  -9.196  0.00  0.00    +0.068 A 
ATOM      2  C   UNL     1      -1.976   6.945  -8.709  0.00  0.00    +0.139 A 
ATOM      3  N   UNL     1      -1.005   7.009  -7.719  0.00  0.00    -0.212 N 
ATOM      4  C   UNL     1      -0.641   8.326  -7.668  0.00  0.00    +0.197 A 
ATOM      5  N   UNL     1      -1.319   9.014  -8.542  0.00  0.00    -0.224 NA
ATOM      6  S   UNL     1       0.594   8.335  -6.391  0.00  0.00    -0.013 S 
ATOM      7  C   UNL     1       0.548   6.592  -6.005  0.00  0.00    +0.184 A 
ATOM      8  N   UNL     1      -0.355   6.150  -6.838  0.00  0.00    -0.142 NA
ATOM      9  N   UNL     1       1.286   5.888  -5.066  0.00  0.00    -0.308 N 
ATOM     10  C   UNL     1       2.200   6.778  -4.340  0.00  0.00    +0.108 C 
ATOM     11  C   UNL     1       3.098   5.948  -3.419  0.00  0.00    +0.039 C 
ATOM     12  C   UNL     1       2.225   5.167  -2.433  0.00  0.00    +0.079 C 
ATOM     13  C   UNL     1       1.249   4.284  -3.215  0.00  0.00    +0.039 C 
ATOM     14  C   UNL     1       0.406   5.162  -4.142  0.00  0.00    +0.108 C 
ENDROOT
BRANCH   1  16
ATOM     15  C   UNL     1      -4.533   8.598  -9.734  0.00  0.00    +0.017 C 
ATOM     16  C   UNL     1      -3.107   8.582 -10.289  0.00  0.00    +0.006 C 
ATOM     17  C   UNL     1      -2.746   9.976 -10.806  0.00  0.00    +0.017 C 
ATOM     18  C   UNL     1      -3.017   7.573 -11.436  0.00  0.00    +0.017 C 
ENDBRANCH   1  16
BRANCH  12  19
ATOM     19  N   UNL     1       3.076   4.326  -1.587  0.00  0.00    -0.187 NA
ATOM     20  H   UNL     1       3.877   3.920  -1.954  0.00  0.00    +0.148 HD
BRANCH  19  21
ATOM     21  S   UNL     1       2.670   4.067  -0.002  0.00  0.00    +0.059 S 
ATOM     22  O   UNL     1       2.387   5.342   0.558  0.00  0.00    -0.153 OA
ATOM     23  O   UNL     1       3.661   3.202   0.535  0.00  0.00    -0.153 OA
BRANCH  21  24
ATOM     24  C   UNL     1       1.156   3.165   0.008  0.00  0.00    +0.105 A 
ATOM     25  C   UNL     1       1.175   1.783   0.000  0.00  0.00    +0.028 A 
ATOM     26  C   UNL     1      -0.013   1.076   0.008  0.00  0.00    +0.002 A 
ATOM     27  C   UNL     1      -1.219   1.751   0.017  0.00  0.00    +0.000 A 
ATOM     28  C   UNL     1      -1.238   3.133   0.030  0.00  0.00    +0.002 A 
ATOM     29  C   UNL     1      -0.050   3.840   0.023  0.00  0.00    +0.028 A 
ENDBRANCH  21  24
ENDBRANCH  19  21
ENDBRANCH  12  19
TORSDOF 4
