REMARK  Name = ZINC48252819
REMARK  6 active torsions:
REMARK  status: ('A' for Active; 'I' for Inactive)
REMARK    1  A    between atoms: C_3  and  C_6
REMARK    2  A    between atoms: C_8  and  C_11
REMARK    3  A    between atoms: C_11  and  O_12
REMARK    4  A    between atoms: O_12  and  C_13
REMARK    5  A    between atoms: C_13  and  C_15
REMARK    6  A    between atoms: C_17  and  N_23
REMARK                            x       y       z     vdW  Elec       q    Type
REMARK                         _______ _______ _______ _____ _____    ______ ____
ROOT
ATOM      1  C   UNL     1       9.519   2.319  -0.085  0.00  0.00    +0.360 C 
ATOM      2  O   UNL     1       9.937   1.179  -0.101  0.00  0.00    -0.243 OA
ENDROOT
BRANCH   1   3
ATOM      3  C   UNL     1      10.467   3.454  -0.085  0.00  0.00    +0.169 A 
ATOM      4  C   UNL     1      11.838   3.208  -0.109  0.00  0.00    +0.095 A 
ATOM      5  C   UNL     1      12.719   4.290  -0.109  0.00  0.00    +0.067 A 
ATOM      6  C   UNL     1      12.186   5.578  -0.085  0.00  0.00    +0.100 A 
ATOM      7  C   UNL     1      10.809   5.741  -0.062  0.00  0.00    +0.150 A 
ATOM      8  N   UNL     1      10.003   4.700  -0.068  0.00  0.00    -0.226 NA
ATOM      9 CL   UNL     1      10.138   7.342  -0.033  0.00  0.00    -0.060 Cl
ATOM     10 CL   UNL     1      13.234   6.962  -0.083  0.00  0.00    -0.078 Cl
ATOM     11 CL   UNL     1      12.441   1.581  -0.137  0.00  0.00    -0.079 Cl
BRANCH   5  12
ATOM     12  N   UNL     1      14.097   4.089  -0.131  0.00  0.00    -0.356 N 
ATOM     13  H   UNL     1      14.455   3.187  -0.147  0.00  0.00    +0.142 HD
ATOM     14  H   UNL     1      14.699   4.850  -0.131  0.00  0.00    +0.142 HD
ENDBRANCH   5  12
ENDBRANCH   1   3
BRANCH   1  15
ATOM     15  O   UNL     1       8.192   2.550  -0.068  0.00  0.00    -0.454 OA
BRANCH  15  16
ATOM     16  C   UNL     1       7.335   1.407  -0.069  0.00  0.00    +0.291 C 
BRANCH  16  19
ATOM     17  C   UNL     1       3.739   1.809  -0.024  0.00  0.00    +0.234 A 
ATOM     18  N   UNL     1       4.819   1.058  -0.044  0.00  0.00    -0.210 NA
ATOM     19  C   UNL     1       5.897   1.857  -0.049  0.00  0.00    +0.117 A 
ATOM     20  C   UNL     1       5.467   3.131  -0.032  0.00  0.00    +0.224 A 
ATOM     21  O   UNL     1       4.118   3.100  -0.022  0.00  0.00    -0.443 OA
BRANCH  17  24
ATOM     22  C   UNL     1      -0.016   1.355   0.009  0.00  0.00    +0.008 A 
ATOM     23  C   UNL     1       1.174   2.044   0.002  0.00  0.00    +0.021 A 
ATOM     24  C   UNL     1       2.353   1.321  -0.013  0.00  0.00    +0.074 A 
ATOM     25  S   UNL     1       1.751  -0.360  -0.017  0.00  0.00    -0.092 S 
ATOM     26  C   UNL     1       0.002  -0.004   0.002  0.00  0.00    +0.046 A 
ENDBRANCH  17  24
ENDBRANCH  16  19
ENDBRANCH  15  16
ENDBRANCH   1  15
TORSDOF 6
